
  xtb     02112202123D
 energy: -237.861332486837 gnorm: 0.000457176029 xtb: 6.4.1 (unknown)
122135  0     0  0            999 V2000
   -4.3957    3.8805   -3.7072 C   0  0  0  0  0  0  0  0  0  0  0  0
   -5.0209    4.9946   -3.2048 C   0  0  0  0  0  0  0  0  0  0  0  0
   -5.6528    5.9521   -4.1419 C   0  0  0  0  0  0  0  0  0  0  0  0
   -5.8409    5.8069   -5.3288 O   0  0  0  0  0  0  0  0  0  0  0  0
   -5.9425    7.1581   -3.3258 C   0  0  0  0  0  0  0  0  0  0  0  0
   -6.4553    8.3725   -3.7305 C   0  0  0  0  0  0  0  0  0  0  0  0
   -6.6159    9.3718   -2.7765 C   0  0  0  0  0  0  0  0  0  0  0  0
   -7.2449   10.9122   -3.2186 Cl  0  0  0  0  0  0  0  0  0  0  0  0
   -6.2613    9.1185   -1.4511 C   0  0  0  0  0  0  0  0  0  0  0  0
   -6.4096   10.0897   -0.5392 F   0  0  0  0  0  0  0  0  0  0  0  0
   -5.7567    7.8958   -1.0342 C   0  0  0  0  0  0  0  0  0  0  0  0
   -5.5929    6.9051   -1.9874 C   0  0  0  0  0  0  0  0  0  0  0  0
   -5.1281    5.5244   -1.8751 C   0  0  0  0  0  0  0  0  0  0  0  0
   -5.0071    4.8237   -0.6968 C   0  0  0  0  0  0  0  0  0  0  0  0
   -4.9978    5.4086    0.5806 C   0  0  0  0  0  0  0  0  0  0  0  0
   -4.9027    5.8246    1.6482 N   0  0  0  0  0  0  0  0  0  0  0  0
   -4.9011    3.4211   -0.6311 C   0  0  0  0  0  0  0  0  0  0  0  0
   -4.8396    2.2791   -0.5252 N   0  0  0  0  0  0  0  0  0  0  0  0
   -3.4063    3.0602   -3.1305 C   0  0  0  0  0  0  0  0  0  0  0  0
   -3.1795    1.7564   -3.6408 C   0  0  0  0  0  0  0  0  0  0  0  0
   -2.2062    0.8371   -3.0920 C   0  0  0  0  0  0  0  0  0  0  0  0
   -2.2802   -0.3618   -3.6724 N   0  0  0  0  0  0  0  0  0  0  0  0
   -3.4204   -0.3307   -4.8046 S   0  0  0  0  0  4  0  0  0  0  0  0
   -3.8871    1.1962   -4.6183 N   0  0  0  0  0  0  0  0  0  0  0  0
   -1.3396    1.1988   -2.0348 C   0  0  0  0  0  0  0  0  0  0  0  0
   -1.5847    2.4952   -1.5120 C   0  0  0  0  0  0  0  0  0  0  0  0
   -0.9001    3.0338   -0.5077 N   0  0  0  0  0  0  0  0  0  0  0  0
   -1.4005    4.5449   -0.2721 S   0  0  0  0  0  0  0  0  0  0  0  0
   -2.5113    4.5923   -1.4373 N   0  0  0  0  0  0  0  0  0  0  0  0
   -2.5576    3.4112   -2.0547 C   0  0  0  0  0  0  0  0  0  0  0  0
   -0.3296    0.3999   -1.4615 C   0  0  0  0  0  0  0  0  0  0  0  0
    0.3642   -0.7394   -1.9328 C   0  0  0  0  0  0  0  0  0  0  0  0
    0.4509   -1.2064   -3.2151 N   0  0  0  0  0  0  0  0  0  0  0  0
    0.2247   -0.4427   -4.3544 C   0  0  0  0  0  0  0  0  0  0  0  0
   -0.2143   -1.0655   -5.5284 C   0  0  0  0  0  0  0  0  0  0  0  0
   -0.5932   -0.3118   -6.6137 C   0  0  0  0  0  0  0  0  0  0  0  0
   -0.5375    1.0819   -6.5620 C   0  0  0  0  0  0  0  0  0  0  0  0
   -1.1957    1.9753   -7.9251 S   0  0  0  0  0  0  0  0  0  0  0  0
   -1.6119    3.5827   -7.1881 C   0  0  0  0  0  0  0  0  0  0  0  0
    0.0306    1.6958   -5.4492 C   0  0  0  0  0  0  0  0  0  0  0  0
    0.4239    0.9394   -4.3667 C   0  0  0  0  0  0  0  0  0  0  0  0
    0.8527   -2.5550   -3.3746 C   0  0  0  0  0  0  0  0  0  0  0  0
    0.1196   -3.5780   -2.7756 C   0  0  0  0  0  0  0  0  0  0  0  0
    0.5749   -4.8751   -2.8391 C   0  0  0  0  0  0  0  0  0  0  0  0
    1.7716   -5.1728   -3.4928 C   0  0  0  0  0  0  0  0  0  0  0  0
    2.3076   -6.8449   -3.4098 S   0  0  0  0  0  0  0  0  0  0  0  0
    3.8825   -6.8543   -4.3118 C   0  0  0  0  0  0  0  0  0  0  0  0
    2.4681   -4.1603   -4.1423 C   0  0  0  0  0  0  0  0  0  0  0  0
    2.0069   -2.8603   -4.0860 C   0  0  0  0  0  0  0  0  0  0  0  0
    1.0973   -1.3358   -0.8788 C   0  0  0  0  0  0  0  0  0  0  0  0
    2.1441   -2.7167   -0.7674 S   0  0  0  0  0  0  0  0  0  0  0  0
    2.4225   -2.4102    0.9441 C   0  0  0  0  0  0  0  0  0  0  0  0
    1.8358   -1.1966    1.3589 C   0  0  0  0  0  0  0  0  0  0  0  0
    1.9733   -0.5295    2.5527 N   0  0  0  0  0  0  0  0  0  0  0  0
    3.1297   -0.5241    3.3169 C   0  0  0  0  0  0  0  0  0  0  0  0
    3.0639   -0.2038    4.6757 C   0  0  0  0  0  0  0  0  0  0  0  0
    4.1858   -0.2681    5.4728 C   0  0  0  0  0  0  0  0  0  0  0  0
    5.4118   -0.6366    4.9268 C   0  0  0  0  0  0  0  0  0  0  0  0
    6.8979   -0.8131    5.8488 S   0  0  0  0  0  0  0  0  0  0  0  0
    6.3656   -0.6434    7.5756 C   0  0  0  0  0  0  0  0  0  0  0  0
    5.4980   -0.8806    3.5549 C   0  0  0  0  0  0  0  0  0  0  0  0
    4.3794   -0.8160    2.7591 C   0  0  0  0  0  0  0  0  0  0  0  0
    0.8724    0.2753    2.9288 C   0  0  0  0  0  0  0  0  0  0  0  0
    1.0219    1.6382    3.1626 C   0  0  0  0  0  0  0  0  0  0  0  0
   -0.0862    2.4363    3.3705 C   0  0  0  0  0  0  0  0  0  0  0  0
   -1.3613    1.8812    3.3451 C   0  0  0  0  0  0  0  0  0  0  0  0
   -2.8529    2.8018    3.4720 S   0  0  0  0  0  0  0  0  0  0  0  0
   -2.3213    4.5341    3.3904 C   0  0  0  0  0  0  0  0  0  0  0  0
   -1.5032    0.5003    3.1904 C   0  0  0  0  0  0  0  0  0  0  0  0
   -0.4003   -0.2942    2.9838 C   0  0  0  0  0  0  0  0  0  0  0  0
    1.0550   -0.6424    0.3176 C   0  0  0  0  0  0  0  0  0  0  0  0
    0.1378    0.8219    0.1805 S   0  0  0  0  0  0  0  0  0  0  0  0
    3.1205   -3.4208    1.6468 C   0  0  0  0  0  0  0  0  0  0  0  0
    3.8119   -4.4237    0.9207 C   0  0  0  0  0  0  0  0  0  0  0  0
    4.6020   -5.4659    1.5353 C   0  0  0  0  0  0  0  0  0  0  0  0
    5.1990   -6.2269    0.6211 N   0  0  0  0  0  0  0  0  0  0  0  0
    4.7818   -5.7397   -0.8442 S   0  0  0  0  0  4  0  0  0  0  0  0
    3.8500   -4.4991   -0.4084 N   0  0  0  0  0  0  0  0  0  0  0  0
    4.7250   -5.5911    2.9344 C   0  0  0  0  0  0  0  0  0  0  0  0
    3.9870   -4.6317    3.6661 C   0  0  0  0  0  0  0  0  0  0  0  0
    3.8866   -4.6095    4.9947 N   0  0  0  0  0  0  0  0  0  0  0  0
    2.8600   -3.4516    5.4277 S   0  0  0  0  0  0  0  0  0  0  0  0
    2.4958   -2.9047    3.9612 N   0  0  0  0  0  0  0  0  0  0  0  0
    3.1777   -3.5987    3.0493 C   0  0  0  0  0  0  0  0  0  0  0  0
    5.4955   -6.5597    3.6247 C   0  0  0  0  0  0  0  0  0  0  0  0
    6.0136   -7.7362    3.1628 C   0  0  0  0  0  0  0  0  0  0  0  0
    5.7978   -8.3726    1.9229 C   0  0  0  0  0  0  0  0  0  0  0  0
    5.6418   -9.0415    1.0021 N   0  0  0  0  0  0  0  0  0  0  0  0
    6.8014   -8.5181    4.0386 C   0  0  0  0  0  0  0  0  0  0  0  0
    7.4522   -9.1399    4.7501 N   0  0  0  0  0  0  0  0  0  0  0  0
   -4.6767    3.6151   -4.7218 H   0  0  0  0  0  0  0  0  0  0  0  0
   -6.7254    8.5412   -4.7608 H   0  0  0  0  0  0  0  0  0  0  0  0
   -5.5009    7.7592    0.0042 H   0  0  0  0  0  0  0  0  0  0  0  0
   -0.3208   -2.1385   -5.5530 H   0  0  0  0  0  0  0  0  0  0  0  0
   -0.9764   -0.7875   -7.5029 H   0  0  0  0  0  0  0  0  0  0  0  0
   -0.7196    4.1899   -7.0665 H   0  0  0  0  0  0  0  0  0  0  0  0
   -2.1149    3.4244   -6.2388 H   0  0  0  0  0  0  0  0  0  0  0  0
   -2.2885    4.0631   -7.8876 H   0  0  0  0  0  0  0  0  0  0  0  0
    0.1671    2.7652   -5.4201 H   0  0  0  0  0  0  0  0  0  0  0  0
    0.8715    1.4271   -3.5144 H   0  0  0  0  0  0  0  0  0  0  0  0
   -0.7944   -3.3379   -2.2541 H   0  0  0  0  0  0  0  0  0  0  0  0
    0.0223   -5.6733   -2.3686 H   0  0  0  0  0  0  0  0  0  0  0  0
    3.7144   -6.6123   -5.3571 H   0  0  0  0  0  0  0  0  0  0  0  0
    4.2592   -7.8687   -4.2254 H   0  0  0  0  0  0  0  0  0  0  0  0
    4.5802   -6.1625   -3.8492 H   0  0  0  0  0  0  0  0  0  0  0  0
    3.3796   -4.3664   -4.6784 H   0  0  0  0  0  0  0  0  0  0  0  0
    2.5588   -2.0688   -4.5710 H   0  0  0  0  0  0  0  0  0  0  0  0
    2.1110    0.0458    5.1155 H   0  0  0  0  0  0  0  0  0  0  0  0
    4.0922   -0.0392    6.5218 H   0  0  0  0  0  0  0  0  0  0  0  0
    5.5985   -1.3794    7.7976 H   0  0  0  0  0  0  0  0  0  0  0  0
    6.0143    0.3669    7.7635 H   0  0  0  0  0  0  0  0  0  0  0  0
    7.2503   -0.8406    8.1729 H   0  0  0  0  0  0  0  0  0  0  0  0
    6.4578   -1.1265    3.1267 H   0  0  0  0  0  0  0  0  0  0  0  0
    4.4671   -0.9999    1.6996 H   0  0  0  0  0  0  0  0  0  0  0  0
    2.0083    2.0776    3.1465 H   0  0  0  0  0  0  0  0  0  0  0  0
    0.0546    3.4930    3.5290 H   0  0  0  0  0  0  0  0  0  0  0  0
   -1.6514    4.6705    2.5463 H   0  0  0  0  0  0  0  0  0  0  0  0
   -3.2300    5.1090    3.2319 H   0  0  0  0  0  0  0  0  0  0  0  0
   -1.8495    4.8273    4.3237 H   0  0  0  0  0  0  0  0  0  0  0  0
   -2.4929    0.0717    3.2100 H   0  0  0  0  0  0  0  0  0  0  0  0
   -0.5079   -1.3584    2.8375 H   0  0  0  0  0  0  0  0  0  0  0  0
    5.6612   -6.3325    4.6716 H   0  0  0  0  0  0  0  0  0  0  0  0
  1  2  2  0  0  0  0
  2  3  1  0  0  0  0
  3  4  2  0  0  0  0
  3  5  1  0  0  0  0
  5  6  2  0  0  0  0
  6  7  1  0  0  0  0
  7  8  1  0  0  0  0
  7  9  2  0  0  0  0
  9 10  1  0  0  0  0
  9 11  1  0  0  0  0
 11 12  2  0  0  0  0
 12 13  1  0  0  0  0
 13 14  2  0  0  0  0
 14 15  1  0  0  0  0
 15 16  3  0  0  0  0
 14 17  1  0  0  0  0
 17 18  3  0  0  0  0
  1 19  1  0  0  0  0
 19 20  2  0  0  0  0
 20 21  1  0  0  0  0
 21 22  1  0  0  0  0
 22 23  2  0  0  0  0
 23 24  2  0  0  0  0
 21 25  2  0  0  0  0
 25 26  1  0  0  0  0
 26 27  2  0  0  0  0
 27 28  1  0  0  0  0
 28 29  1  0  0  0  0
 29 30  2  0  0  0  0
 25 31  1  0  0  0  0
 31 32  2  0  0  0  0
 32 33  1  0  0  0  0
 33 34  1  0  0  0  0
 34 35  2  0  0  0  0
 35 36  1  0  0  0  0
 36 37  2  0  0  0  0
 37 38  1  0  0  0  0
 38 39  1  0  0  0  0
 37 40  1  0  0  0  0
 40 41  2  0  0  0  0
 33 42  1  0  0  0  0
 42 43  2  0  0  0  0
 43 44  1  0  0  0  0
 44 45  2  0  0  0  0
 45 46  1  0  0  0  0
 46 47  1  0  0  0  0
 45 48  1  0  0  0  0
 48 49  2  0  0  0  0
 32 50  1  0  0  0  0
 50 51  1  0  0  0  0
 51 52  1  0  0  0  0
 52 53  2  0  0  0  0
 53 54  1  0  0  0  0
 54 55  1  0  0  0  0
 55 56  2  0  0  0  0
 56 57  1  0  0  0  0
 57 58  2  0  0  0  0
 58 59  1  0  0  0  0
 59 60  1  0  0  0  0
 58 61  1  0  0  0  0
 61 62  2  0  0  0  0
 54 63  1  0  0  0  0
 63 64  2  0  0  0  0
 64 65  1  0  0  0  0
 65 66  2  0  0  0  0
 66 67  1  0  0  0  0
 67 68  1  0  0  0  0
 66 69  1  0  0  0  0
 69 70  2  0  0  0  0
 53 71  1  0  0  0  0
 71 72  1  0  0  0  0
 52 73  1  0  0  0  0
 73 74  2  0  0  0  0
 74 75  1  0  0  0  0
 75 76  1  0  0  0  0
 76 77  2  0  0  0  0
 77 78  2  0  0  0  0
 75 79  2  0  0  0  0
 79 80  1  0  0  0  0
 80 81  2  0  0  0  0
 81 82  1  0  0  0  0
 82 83  1  0  0  0  0
 83 84  2  0  0  0  0
 79 85  1  0  0  0  0
 85 86  2  0  0  0  0
 86 87  1  0  0  0  0
 87 88  3  0  0  0  0
 86 89  1  0  0  0  0
 89 90  3  0  0  0  0
 13  2  1  0  0  0  0
 30 19  1  0  0  0  0
 72 31  1  0  0  0  0
 84 73  1  0  0  0  0
 12  5  1  0  0  0  0
 24 20  1  0  0  0  0
 30 26  1  0  0  0  0
 41 34  1  0  0  0  0
 49 42  1  0  0  0  0
 71 50  2  0  0  0  0
 78 74  1  0  0  0  0
 84 80  1  0  0  0  0
 62 55  1  0  0  0  0
 70 63  1  0  0  0  0
  1 91  1  0  0  0  0
  6 92  1  0  0  0  0
 11 93  1  0  0  0  0
 35 94  1  0  0  0  0
 36 95  1  0  0  0  0
 39 96  1  0  0  0  0
 39 97  1  0  0  0  0
 39 98  1  0  0  0  0
 40 99  1  0  0  0  0
 41100  1  0  0  0  0
 43101  1  0  0  0  0
 44102  1  0  0  0  0
 47103  1  0  0  0  0
 47104  1  0  0  0  0
 47105  1  0  0  0  0
 48106  1  0  0  0  0
 49107  1  0  0  0  0
 56108  1  0  0  0  0
 57109  1  0  0  0  0
 60110  1  0  0  0  0
 60111  1  0  0  0  0
 60112  1  0  0  0  0
 61113  1  0  0  0  0
 62114  1  0  0  0  0
 64115  1  0  0  0  0
 65116  1  0  0  0  0
 68117  1  0  0  0  0
 68118  1  0  0  0  0
 68119  1  0  0  0  0
 69120  1  0  0  0  0
 70121  1  0  0  0  0
 85122  1  0  0  0  0
M  END
