
  xtb     02112204163D
 energy: -394.681044172489 gnorm: 0.000553467900 xtb: 6.4.1 (unknown)
192209  0     0  0            999 V2000
    1.7171   -6.7999   -4.6212 C   0  0  0  0  0  0  0  0  0  0  0  0
    2.9109   -7.3545   -4.3027 C   0  0  0  0  0  0  0  0  0  0  0  0
    4.0990   -6.5586   -3.8737 C   0  0  0  0  0  0  0  0  0  0  0  0
    4.3370   -5.3945   -4.1061 O   0  0  0  0  0  0  0  0  0  0  0  0
    5.0390   -7.5547   -3.3113 C   0  0  0  0  0  0  0  0  0  0  0  0
    6.2375   -7.3308   -2.6645 C   0  0  0  0  0  0  0  0  0  0  0  0
    6.9617   -8.4296   -2.2213 C   0  0  0  0  0  0  0  0  0  0  0  0
    8.4501   -8.2169   -1.3851 Cl  0  0  0  0  0  0  0  0  0  0  0  0
    6.4718   -9.7172   -2.4562 C   0  0  0  0  0  0  0  0  0  0  0  0
    7.1821  -10.7657   -2.0293 F   0  0  0  0  0  0  0  0  0  0  0  0
    5.2783   -9.9492   -3.1208 C   0  0  0  0  0  0  0  0  0  0  0  0
    4.5505   -8.8506   -3.5555 C   0  0  0  0  0  0  0  0  0  0  0  0
    3.2675   -8.7612   -4.2488 C   0  0  0  0  0  0  0  0  0  0  0  0
    2.5295   -9.8161   -4.7087 C   0  0  0  0  0  0  0  0  0  0  0  0
    2.9312  -11.1662   -4.6100 C   0  0  0  0  0  0  0  0  0  0  0  0
    3.2107  -12.2783   -4.5742 N   0  0  0  0  0  0  0  0  0  0  0  0
    1.2917   -9.7039   -5.3763 C   0  0  0  0  0  0  0  0  0  0  0  0
    0.2880   -9.6933   -5.9331 N   0  0  0  0  0  0  0  0  0  0  0  0
    1.3573   -5.4741   -4.1961 C   0  0  0  0  0  0  0  0  0  0  0  0
    0.4832   -4.6604   -4.8971 C   0  0  0  0  0  0  0  0  0  0  0  0
    0.0329   -5.0578   -6.0978 F   0  0  0  0  0  0  0  0  0  0  0  0
    0.0104   -3.4507   -4.3850 C   0  0  0  0  0  0  0  0  0  0  0  0
   -0.8888   -2.7737   -5.1233 F   0  0  0  0  0  0  0  0  0  0  0  0
    0.3607   -2.9925   -3.1226 C   0  0  0  0  0  0  0  0  0  0  0  0
    1.3339   -3.7569   -2.4137 C   0  0  0  0  0  0  0  0  0  0  0  0
    1.8322   -3.2854   -1.2618 N   0  0  0  0  0  0  0  0  0  0  0  0
    2.6539   -4.0268   -0.5596 C   0  0  0  0  0  0  0  0  0  0  0  0
    3.1194   -3.4974    0.7122 C   0  0  0  0  0  0  0  0  0  0  0  0
    3.8384   -1.9329    0.8697 S   0  0  0  0  0  0  0  0  0  0  0  0
    4.0455   -2.0936    2.5831 C   0  0  0  0  0  0  0  0  0  0  0  0
    4.7099   -0.9968    3.3467 C   0  0  0  0  0  0  0  0  0  0  0  0
    4.6061   -1.1415    4.8598 C   0  0  0  0  0  0  0  0  0  0  0  0
    3.5446   -3.2940    2.9956 C   0  0  0  0  0  0  0  0  0  0  0  0
    3.0215   -4.0816    1.9440 C   0  0  0  0  0  0  0  0  0  0  0  0
    2.4582   -5.2816    2.1524 F   0  0  0  0  0  0  0  0  0  0  0  0
    3.5373   -3.7435    4.2576 F   0  0  0  0  0  0  0  0  0  0  0  0
    3.0070   -5.3397   -1.0056 C   0  0  0  0  0  0  0  0  0  0  0  0
    2.5707   -5.7724   -2.1646 N   0  0  0  0  0  0  0  0  0  0  0  0
    1.7786   -5.0050   -2.9177 C   0  0  0  0  0  0  0  0  0  0  0  0
    3.8672   -6.2609   -0.2939 C   0  0  0  0  0  0  0  0  0  0  0  0
    5.2378   -5.7853    0.6549 S   0  0  0  0  0  0  0  0  0  0  0  0
    5.7240   -7.4170    0.9408 C   0  0  0  0  0  0  0  0  0  0  0  0
    6.8937   -7.7526    1.7964 C   0  0  0  0  0  0  0  0  0  0  0  0
    6.6184   -7.4125    3.2626 C   0  0  0  0  0  0  0  0  0  0  0  0
    4.8567   -8.2737    0.3269 C   0  0  0  0  0  0  0  0  0  0  0  0
    4.9887   -9.6058    0.3651 F   0  0  0  0  0  0  0  0  0  0  0  0
    3.8221   -7.6298   -0.3866 C   0  0  0  0  0  0  0  0  0  0  0  0
    2.8818   -8.3035   -1.0510 F   0  0  0  0  0  0  0  0  0  0  0  0
   -0.2796   -1.8621   -2.5054 C   0  0  0  0  0  0  0  0  0  0  0  0
   -0.7521   -1.7871   -1.1975 C   0  0  0  0  0  0  0  0  0  0  0  0
   -0.7729   -2.8384   -0.2958 N   0  0  0  0  0  0  0  0  0  0  0  0
   -0.4139   -2.5961    1.0334 C   0  0  0  0  0  0  0  0  0  0  0  0
   -0.9486   -3.3613    2.0672 C   0  0  0  0  0  0  0  0  0  0  0  0
   -0.5717   -3.1362    3.3755 C   0  0  0  0  0  0  0  0  0  0  0  0
    0.3459   -2.1367    3.6738 C   0  0  0  0  0  0  0  0  0  0  0  0
    0.8717   -1.7475    5.3095 S   0  0  0  0  0  0  0  0  0  0  0  0
    0.4844   -3.2526    6.2464 C   0  0  0  0  0  0  0  0  0  0  0  0
    0.8771   -1.3665    2.6421 C   0  0  0  0  0  0  0  0  0  0  0  0
    0.5012   -1.5880    1.3380 C   0  0  0  0  0  0  0  0  0  0  0  0
   -0.9631   -4.1441   -0.7725 C   0  0  0  0  0  0  0  0  0  0  0  0
   -1.8395   -4.3735   -1.8322 C   0  0  0  0  0  0  0  0  0  0  0  0
   -1.9087   -5.6082   -2.4445 C   0  0  0  0  0  0  0  0  0  0  0  0
   -1.1021   -6.6500   -2.0024 C   0  0  0  0  0  0  0  0  0  0  0  0
   -0.9759   -8.2158   -2.7992 S   0  0  0  0  0  0  0  0  0  0  0  0
   -1.9870   -8.0262   -4.2962 C   0  0  0  0  0  0  0  0  0  0  0  0
   -0.3166   -6.4599   -0.8666 C   0  0  0  0  0  0  0  0  0  0  0  0
   -0.2526   -5.2287   -0.2539 C   0  0  0  0  0  0  0  0  0  0  0  0
   -1.3741   -0.5339   -0.9596 C   0  0  0  0  0  0  0  0  0  0  0  0
   -2.1430    0.2015    0.4082 S   0  0  0  0  0  0  0  0  0  0  0  0
   -2.6549    1.5454   -0.5895 C   0  0  0  0  0  0  0  0  0  0  0  0
   -2.1516    1.4831   -1.8897 C   0  0  0  0  0  0  0  0  0  0  0  0
   -2.2719    2.4662   -2.8472 N   0  0  0  0  0  0  0  0  0  0  0  0
   -2.3145    2.0783   -4.1966 C   0  0  0  0  0  0  0  0  0  0  0  0
   -1.6045    2.7902   -5.1629 C   0  0  0  0  0  0  0  0  0  0  0  0
   -1.5845    2.3473   -6.4660 C   0  0  0  0  0  0  0  0  0  0  0  0
   -2.2660    1.1860   -6.8297 C   0  0  0  0  0  0  0  0  0  0  0  0
   -2.1173    0.6568   -8.5021 S   0  0  0  0  0  0  0  0  0  0  0  0
   -2.5941   -1.0941   -8.4206 C   0  0  0  0  0  0  0  0  0  0  0  0
   -3.0239    0.5110   -5.8807 C   0  0  0  0  0  0  0  0  0  0  0  0
   -3.0487    0.9574   -4.5758 C   0  0  0  0  0  0  0  0  0  0  0  0
   -2.3445    3.8240   -2.5129 C   0  0  0  0  0  0  0  0  0  0  0  0
   -3.2115    4.6667   -3.2071 C   0  0  0  0  0  0  0  0  0  0  0  0
   -3.3456    5.9934   -2.8477 C   0  0  0  0  0  0  0  0  0  0  0  0
   -2.6046    6.5049   -1.7906 C   0  0  0  0  0  0  0  0  0  0  0  0
   -2.7379    8.1700   -1.2164 S   0  0  0  0  0  0  0  0  0  0  0  0
   -4.2849    8.7543   -1.9698 C   0  0  0  0  0  0  0  0  0  0  0  0
   -1.6857    5.6834   -1.1363 C   0  0  0  0  0  0  0  0  0  0  0  0
   -1.5656    4.3573   -1.4834 C   0  0  0  0  0  0  0  0  0  0  0  0
   -1.4306    0.2796   -2.0830 C   0  0  0  0  0  0  0  0  0  0  0  0
   -0.6715   -0.4447   -3.4526 S   0  0  0  0  0  0  0  0  0  0  0  0
   -3.5258    2.5733   -0.0970 C   0  0  0  0  0  0  0  0  0  0  0  0
   -4.5360    3.0868   -0.9149 C   0  0  0  0  0  0  0  0  0  0  0  0
   -4.8661    2.4278   -2.0424 F   0  0  0  0  0  0  0  0  0  0  0  0
   -5.1760    4.2887   -0.6474 C   0  0  0  0  0  0  0  0  0  0  0  0
   -6.0215    4.7887   -1.5632 F   0  0  0  0  0  0  0  0  0  0  0  0
   -4.8741    5.0399    0.4861 C   0  0  0  0  0  0  0  0  0  0  0  0
   -4.0636    4.3969    1.4651 C   0  0  0  0  0  0  0  0  0  0  0  0
   -3.9823    4.9051    2.6906 N   0  0  0  0  0  0  0  0  0  0  0  0
   -3.0544    4.4842    3.5188 C   0  0  0  0  0  0  0  0  0  0  0  0
   -3.0628    5.1259    4.8073 C   0  0  0  0  0  0  0  0  0  0  0  0
   -3.7657    6.7122    4.8646 S   0  0  0  0  0  0  0  0  0  0  0  0
   -3.3902    6.9039    6.5400 C   0  0  0  0  0  0  0  0  0  0  0  0
   -3.6983    8.1613    7.2762 C   0  0  0  0  0  0  0  0  0  0  0  0
   -3.2963    9.3967    6.4729 C   0  0  0  0  0  0  0  0  0  0  0  0
   -2.7944    5.7716    7.0201 C   0  0  0  0  0  0  0  0  0  0  0  0
   -2.6104    4.7618    6.0493 C   0  0  0  0  0  0  0  0  0  0  0  0
   -2.0696    3.5707    6.3332 F   0  0  0  0  0  0  0  0  0  0  0  0
   -2.3996    5.6331    8.2938 F   0  0  0  0  0  0  0  0  0  0  0  0
   -2.0900    3.5317    3.0592 C   0  0  0  0  0  0  0  0  0  0  0  0
   -2.3148    2.8649    1.9489 N   0  0  0  0  0  0  0  0  0  0  0  0
   -3.3255    3.2203    1.1513 C   0  0  0  0  0  0  0  0  0  0  0  0
   -0.8154    3.3151    3.7032 C   0  0  0  0  0  0  0  0  0  0  0  0
    0.0865    4.6030    4.4339 S   0  0  0  0  0  0  0  0  0  0  0  0
    1.4461    3.5848    4.7451 C   0  0  0  0  0  0  0  0  0  0  0  0
    2.6833    4.0984    5.3953 C   0  0  0  0  0  0  0  0  0  0  0  0
    3.3544    5.1805    4.5484 C   0  0  0  0  0  0  0  0  0  0  0  0
    1.1989    2.3210    4.2928 C   0  0  0  0  0  0  0  0  0  0  0  0
    2.1008    1.3306    4.3782 F   0  0  0  0  0  0  0  0  0  0  0  0
   -0.0720    2.1631    3.6953 C   0  0  0  0  0  0  0  0  0  0  0  0
   -0.5218    1.0068    3.2133 F   0  0  0  0  0  0  0  0  0  0  0  0
   -5.3429    6.3739    0.6571 C   0  0  0  0  0  0  0  0  0  0  0  0
   -4.6640    7.3560    1.3207 C   0  0  0  0  0  0  0  0  0  0  0  0
   -3.2306    7.3254    1.6943 C   0  0  0  0  0  0  0  0  0  0  0  0
   -2.4078    6.4544    1.5092 O   0  0  0  0  0  0  0  0  0  0  0  0
   -2.9458    8.6541    2.2809 C   0  0  0  0  0  0  0  0  0  0  0  0
   -1.7574    9.1188    2.8118 C   0  0  0  0  0  0  0  0  0  0  0  0
   -0.4225    8.0801    3.0322 Cl  0  0  0  0  0  0  0  0  0  0  0  0
   -1.6835   10.4640    3.1952 C   0  0  0  0  0  0  0  0  0  0  0  0
   -0.2594   11.0694    3.9210 Cl  0  0  0  0  0  0  0  0  0  0  0  0
   -2.7582   11.3177    2.9495 C   0  0  0  0  0  0  0  0  0  0  0  0
   -2.6056   12.9816    3.3154 Cl  0  0  0  0  0  0  0  0  0  0  0  0
   -3.9621   10.8376    2.4092 C   0  0  0  0  0  0  0  0  0  0  0  0
   -5.1716   11.9726    1.9724 Cl  0  0  0  0  0  0  0  0  0  0  0  0
   -4.0824    9.4753    2.1621 C   0  0  0  0  0  0  0  0  0  0  0  0
   -5.1990    8.6433    1.7264 C   0  0  0  0  0  0  0  0  0  0  0  0
   -6.5286    8.9061    1.9295 C   0  0  0  0  0  0  0  0  0  0  0  0
   -7.0463    9.9551    2.7194 C   0  0  0  0  0  0  0  0  0  0  0  0
   -7.5569   10.7028    3.4246 N   0  0  0  0  0  0  0  0  0  0  0  0
   -7.5810    8.0565    1.5213 C   0  0  0  0  0  0  0  0  0  0  0  0
   -8.4971    7.4416    1.2051 N   0  0  0  0  0  0  0  0  0  0  0  0
    0.9511   -7.3762   -5.1215 H   0  0  0  0  0  0  0  0  0  0  0  0
    6.5955   -6.3264   -2.5015 H   0  0  0  0  0  0  0  0  0  0  0  0
    4.9543  -10.9666   -3.2675 H   0  0  0  0  0  0  0  0  0  0  0  0
    4.2601   -0.0483    3.0432 H   0  0  0  0  0  0  0  0  0  0  0  0
    5.7631   -0.9611    3.0490 H   0  0  0  0  0  0  0  0  0  0  0  0
    5.0948   -2.0490    5.2019 H   0  0  0  0  0  0  0  0  0  0  0  0
    5.0866   -0.2912    5.3359 H   0  0  0  0  0  0  0  0  0  0  0  0
    3.5649   -1.1640    5.1687 H   0  0  0  0  0  0  0  0  0  0  0  0
    7.7673   -7.1935    1.4546 H   0  0  0  0  0  0  0  0  0  0  0  0
    7.1008   -8.8194    1.6934 H   0  0  0  0  0  0  0  0  0  0  0  0
    6.4135   -6.3499    3.3720 H   0  0  0  0  0  0  0  0  0  0  0  0
    5.7600   -7.9709    3.6275 H   0  0  0  0  0  0  0  0  0  0  0  0
    7.4820   -7.6668    3.8702 H   0  0  0  0  0  0  0  0  0  0  0  0
   -1.6710   -4.1321    1.8437 H   0  0  0  0  0  0  0  0  0  0  0  0
   -1.0092   -3.7386    4.1553 H   0  0  0  0  0  0  0  0  0  0  0  0
    0.9804   -3.1393    7.2052 H   0  0  0  0  0  0  0  0  0  0  0  0
    0.8853   -4.1148    5.7227 H   0  0  0  0  0  0  0  0  0  0  0  0
   -0.5878   -3.3414    6.3966 H   0  0  0  0  0  0  0  0  0  0  0  0
    1.5934   -0.5980    2.8799 H   0  0  0  0  0  0  0  0  0  0  0  0
    0.9351   -1.0047    0.5407 H   0  0  0  0  0  0  0  0  0  0  0  0
   -2.4562   -3.5651   -2.1965 H   0  0  0  0  0  0  0  0  0  0  0  0
   -2.5899   -5.7430   -3.2688 H   0  0  0  0  0  0  0  0  0  0  0  0
   -1.7917   -8.9148   -4.8894 H   0  0  0  0  0  0  0  0  0  0  0  0
   -1.6757   -7.1452   -4.8491 H   0  0  0  0  0  0  0  0  0  0  0  0
   -3.0392   -7.9756   -4.0325 H   0  0  0  0  0  0  0  0  0  0  0  0
    0.2695   -7.2847   -0.4924 H   0  0  0  0  0  0  0  0  0  0  0  0
    0.3812   -5.0948    0.6086 H   0  0  0  0  0  0  0  0  0  0  0  0
   -1.0516    3.6727   -4.8778 H   0  0  0  0  0  0  0  0  0  0  0  0
   -1.0197    2.8802   -7.2150 H   0  0  0  0  0  0  0  0  0  0  0  0
   -3.6714   -1.1889   -8.3198 H   0  0  0  0  0  0  0  0  0  0  0  0
   -2.0749   -1.5706   -7.5946 H   0  0  0  0  0  0  0  0  0  0  0  0
   -2.2762   -1.5303   -9.3624 H   0  0  0  0  0  0  0  0  0  0  0  0
   -3.5980   -0.3610   -6.1465 H   0  0  0  0  0  0  0  0  0  0  0  0
   -3.6466    0.4409   -3.8404 H   0  0  0  0  0  0  0  0  0  0  0  0
   -3.8064    4.2677   -4.0148 H   0  0  0  0  0  0  0  0  0  0  0  0
   -4.0421    6.6096   -3.3920 H   0  0  0  0  0  0  0  0  0  0  0  0
   -4.1490    8.9141   -3.0352 H   0  0  0  0  0  0  0  0  0  0  0  0
   -5.0777    8.0372   -1.7768 H   0  0  0  0  0  0  0  0  0  0  0  0
   -4.5095    9.6996   -1.4850 H   0  0  0  0  0  0  0  0  0  0  0  0
   -1.0813    6.0937   -0.3440 H   0  0  0  0  0  0  0  0  0  0  0  0
   -0.8676    3.7244   -0.9565 H   0  0  0  0  0  0  0  0  0  0  0  0
   -4.7712    8.2045    7.4850 H   0  0  0  0  0  0  0  0  0  0  0  0
   -3.1710    8.1393    8.2322 H   0  0  0  0  0  0  0  0  0  0  0  0
   -3.8471    9.4337    5.5351 H   0  0  0  0  0  0  0  0  0  0  0  0
   -2.2330    9.3757    6.2476 H   0  0  0  0  0  0  0  0  0  0  0  0
   -3.5147   10.2971    7.0399 H   0  0  0  0  0  0  0  0  0  0  0  0
    2.4301    4.5143    6.3735 H   0  0  0  0  0  0  0  0  0  0  0  0
    3.3661    3.2597    5.5450 H   0  0  0  0  0  0  0  0  0  0  0  0
    3.6341    4.7839    3.5753 H   0  0  0  0  0  0  0  0  0  0  0  0
    4.2498    5.5412    5.0467 H   0  0  0  0  0  0  0  0  0  0  0  0
    2.6759    6.0174    4.4000 H   0  0  0  0  0  0  0  0  0  0  0  0
   -6.2857    6.6114    0.1807 H   0  0  0  0  0  0  0  0  0  0  0  0
  1  2  2  0  0  0  0
  2  3  1  0  0  0  0
  3  4  2  0  0  0  0
  3  5  1  0  0  0  0
  5  6  2  0  0  0  0
  6  7  1  0  0  0  0
  7  8  1  0  0  0  0
  7  9  2  0  0  0  0
  9 10  1  0  0  0  0
  9 11  1  0  0  0  0
 11 12  2  0  0  0  0
 12 13  1  0  0  0  0
 13 14  2  0  0  0  0
 14 15  1  0  0  0  0
 15 16  3  0  0  0  0
 14 17  1  0  0  0  0
 17 18  3  0  0  0  0
  1 19  1  0  0  0  0
 19 20  2  0  0  0  0
 20 21  1  0  0  0  0
 20 22  1  0  0  0  0
 22 23  1  0  0  0  0
 22 24  2  0  0  0  0
 24 25  1  0  0  0  0
 25 26  2  0  0  0  0
 26 27  1  0  0  0  0
 27 28  1  0  0  0  0
 28 29  1  0  0  0  0
 29 30  1  0  0  0  0
 30 31  1  0  0  0  0
 31 32  1  0  0  0  0
 30 33  2  0  0  0  0
 33 34  1  0  0  0  0
 34 35  1  0  0  0  0
 33 36  1  0  0  0  0
 27 37  2  0  0  0  0
 37 38  1  0  0  0  0
 38 39  2  0  0  0  0
 37 40  1  0  0  0  0
 40 41  1  0  0  0  0
 41 42  1  0  0  0  0
 42 43  1  0  0  0  0
 43 44  1  0  0  0  0
 42 45  2  0  0  0  0
 45 46  1  0  0  0  0
 45 47  1  0  0  0  0
 47 48  1  0  0  0  0
 24 49  1  0  0  0  0
 49 50  2  0  0  0  0
 50 51  1  0  0  0  0
 51 52  1  0  0  0  0
 52 53  2  0  0  0  0
 53 54  1  0  0  0  0
 54 55  2  0  0  0  0
 55 56  1  0  0  0  0
 56 57  1  0  0  0  0
 55 58  1  0  0  0  0
 58 59  2  0  0  0  0
 51 60  1  0  0  0  0
 60 61  2  0  0  0  0
 61 62  1  0  0  0  0
 62 63  2  0  0  0  0
 63 64  1  0  0  0  0
 64 65  1  0  0  0  0
 63 66  1  0  0  0  0
 66 67  2  0  0  0  0
 50 68  1  0  0  0  0
 68 69  1  0  0  0  0
 69 70  1  0  0  0  0
 70 71  2  0  0  0  0
 71 72  1  0  0  0  0
 72 73  1  0  0  0  0
 73 74  2  0  0  0  0
 74 75  1  0  0  0  0
 75 76  2  0  0  0  0
 76 77  1  0  0  0  0
 77 78  1  0  0  0  0
 76 79  1  0  0  0  0
 79 80  2  0  0  0  0
 72 81  1  0  0  0  0
 81 82  2  0  0  0  0
 82 83  1  0  0  0  0
 83 84  2  0  0  0  0
 84 85  1  0  0  0  0
 85 86  1  0  0  0  0
 84 87  1  0  0  0  0
 87 88  2  0  0  0  0
 71 89  1  0  0  0  0
 89 90  1  0  0  0  0
 70 91  1  0  0  0  0
 91 92  2  0  0  0  0
 92 93  1  0  0  0  0
 92 94  1  0  0  0  0
 94 95  1  0  0  0  0
 94 96  2  0  0  0  0
 96 97  1  0  0  0  0
 97 98  2  0  0  0  0
 98 99  1  0  0  0  0
 99100  1  0  0  0  0
100101  1  0  0  0  0
101102  1  0  0  0  0
102103  1  0  0  0  0
103104  1  0  0  0  0
102105  2  0  0  0  0
105106  1  0  0  0  0
106107  1  0  0  0  0
105108  1  0  0  0  0
 99109  2  0  0  0  0
109110  1  0  0  0  0
110111  2  0  0  0  0
109112  1  0  0  0  0
112113  1  0  0  0  0
113114  1  0  0  0  0
114115  1  0  0  0  0
115116  1  0  0  0  0
114117  2  0  0  0  0
117118  1  0  0  0  0
117119  1  0  0  0  0
119120  1  0  0  0  0
 96121  1  0  0  0  0
121122  2  0  0  0  0
122123  1  0  0  0  0
123124  2  0  0  0  0
123125  1  0  0  0  0
125126  2  0  0  0  0
126127  1  0  0  0  0
126128  1  0  0  0  0
128129  1  0  0  0  0
128130  2  0  0  0  0
130131  1  0  0  0  0
130132  1  0  0  0  0
132133  1  0  0  0  0
132134  2  0  0  0  0
134135  1  0  0  0  0
135136  2  0  0  0  0
136137  1  0  0  0  0
137138  3  0  0  0  0
136139  1  0  0  0  0
139140  3  0  0  0  0
 13  2  1  0  0  0  0
 39 19  1  0  0  0  0
 47 40  2  0  0  0  0
 90 49  1  0  0  0  0
111 91  1  0  0  0  0
119112  2  0  0  0  0
135122  1  0  0  0  0
 12  5  1  0  0  0  0
 39 25  1  0  0  0  0
 59 52  1  0  0  0  0
 67 60  1  0  0  0  0
 89 68  2  0  0  0  0
111 97  1  0  0  0  0
134125  1  0  0  0  0
 34 28  2  0  0  0  0
 80 73  1  0  0  0  0
 88 81  1  0  0  0  0
106100  2  0  0  0  0
  1141  1  0  0  0  0
  6142  1  0  0  0  0
 11143  1  0  0  0  0
 31144  1  0  0  0  0
 31145  1  0  0  0  0
 32146  1  0  0  0  0
 32147  1  0  0  0  0
 32148  1  0  0  0  0
 43149  1  0  0  0  0
 43150  1  0  0  0  0
 44151  1  0  0  0  0
 44152  1  0  0  0  0
 44153  1  0  0  0  0
 53154  1  0  0  0  0
 54155  1  0  0  0  0
 57156  1  0  0  0  0
 57157  1  0  0  0  0
 57158  1  0  0  0  0
 58159  1  0  0  0  0
 59160  1  0  0  0  0
 61161  1  0  0  0  0
 62162  1  0  0  0  0
 65163  1  0  0  0  0
 65164  1  0  0  0  0
 65165  1  0  0  0  0
 66166  1  0  0  0  0
 67167  1  0  0  0  0
 74168  1  0  0  0  0
 75169  1  0  0  0  0
 78170  1  0  0  0  0
 78171  1  0  0  0  0
 78172  1  0  0  0  0
 79173  1  0  0  0  0
 80174  1  0  0  0  0
 82175  1  0  0  0  0
 83176  1  0  0  0  0
 86177  1  0  0  0  0
 86178  1  0  0  0  0
 86179  1  0  0  0  0
 87180  1  0  0  0  0
 88181  1  0  0  0  0
103182  1  0  0  0  0
103183  1  0  0  0  0
104184  1  0  0  0  0
104185  1  0  0  0  0
104186  1  0  0  0  0
115187  1  0  0  0  0
115188  1  0  0  0  0
116189  1  0  0  0  0
116190  1  0  0  0  0
116191  1  0  0  0  0
121192  1  0  0  0  0
M  END
