
  xtb     02102223123D
 energy: -271.503665314788 gnorm: 0.000716984002 xtb: 6.4.1 (unknown)
136151  0     0  0            999 V2000
   -8.0890    0.4529   -0.2024 C   0  0  0  0  0  0  0  0  0  0  0  0
   -8.8857   -0.0249   -1.2116 C   0  0  0  0  0  0  0  0  0  0  0  0
   -8.4287   -0.9480   -2.2717 C   0  0  0  0  0  0  0  0  0  0  0  0
   -7.3175   -1.3975   -2.4565 O   0  0  0  0  0  0  0  0  0  0  0  0
   -9.6596   -1.3565   -2.9914 C   0  0  0  0  0  0  0  0  0  0  0  0
   -9.7741   -2.2137   -4.0659 C   0  0  0  0  0  0  0  0  0  0  0  0
  -11.0435   -2.4764   -4.5676 C   0  0  0  0  0  0  0  0  0  0  0  0
  -11.2544   -3.5292   -5.9128 Cl  0  0  0  0  0  0  0  0  0  0  0  0
  -12.1537   -1.8795   -3.9687 C   0  0  0  0  0  0  0  0  0  0  0  0
  -13.3748   -2.1440   -4.4524 F   0  0  0  0  0  0  0  0  0  0  0  0
  -12.0463   -1.0214   -2.8847 C   0  0  0  0  0  0  0  0  0  0  0  0
  -10.7789   -0.7561   -2.3915 C   0  0  0  0  0  0  0  0  0  0  0  0
  -10.3229    0.0908   -1.2911 C   0  0  0  0  0  0  0  0  0  0  0  0
  -11.1163    0.9171   -0.5360 C   0  0  0  0  0  0  0  0  0  0  0  0
  -12.5166    1.0039   -0.6709 C   0  0  0  0  0  0  0  0  0  0  0  0
  -13.6583    1.1081   -0.7343 N   0  0  0  0  0  0  0  0  0  0  0  0
  -10.6411    1.8092    0.4480 C   0  0  0  0  0  0  0  0  0  0  0  0
  -10.3369    2.5801    1.2432 N   0  0  0  0  0  0  0  0  0  0  0  0
   -6.6791    0.5373   -0.2345 C   0  0  0  0  0  0  0  0  0  0  0  0
   -5.9140    0.7857   -1.3969 C   0  0  0  0  0  0  0  0  0  0  0  0
   -4.4646    0.8307   -1.3947 C   0  0  0  0  0  0  0  0  0  0  0  0
   -3.9786    1.0243   -2.6223 N   0  0  0  0  0  0  0  0  0  0  0  0
   -5.2026    1.1885   -3.6499 S   0  0  0  0  0  4  0  0  0  0  0  0
   -6.4092    1.0282   -2.6079 N   0  0  0  0  0  0  0  0  0  0  0  0
   -3.7006    0.6478   -0.2193 C   0  0  0  0  0  0  0  0  0  0  0  0
   -4.4748    0.3902    0.9401 C   0  0  0  0  0  0  0  0  0  0  0  0
   -3.9742    0.1537    2.1518 N   0  0  0  0  0  0  0  0  0  0  0  0
   -5.1838   -0.0353    3.1951 S   0  0  0  0  0  0  0  0  0  0  0  0
   -6.4024    0.1539    2.1659 N   0  0  0  0  0  0  0  0  0  0  0  0
   -5.9172    0.3908    0.9474 C   0  0  0  0  0  0  0  0  0  0  0  0
   -2.2893    0.6470   -0.1326 C   0  0  0  0  0  0  0  0  0  0  0  0
   -1.3003    1.1876   -0.9776 C   0  0  0  0  0  0  0  0  0  0  0  0
   -1.4685    2.1006   -1.9866 N   0  0  0  0  0  0  0  0  0  0  0  0
   -2.4685    3.0682   -1.9912 C   0  0  0  0  0  0  0  0  0  0  0  0
   -2.9142    3.5985   -3.2027 C   0  0  0  0  0  0  0  0  0  0  0  0
   -3.9452    4.5132   -3.2392 C   0  0  0  0  0  0  0  0  0  0  0  0
   -4.5490    4.9325   -2.0583 C   0  0  0  0  0  0  0  0  0  0  0  0
   -5.9000    6.0522   -1.9729 S   0  0  0  0  0  0  0  0  0  0  0  0
   -6.3616    6.3197   -3.7077 C   0  0  0  0  0  0  0  0  0  0  0  0
   -4.0629    4.4533   -0.8399 C   0  0  0  0  0  0  0  0  0  0  0  0
   -3.0338    3.5431   -0.8039 C   0  0  0  0  0  0  0  0  0  0  0  0
   -0.4897    2.1053   -3.0018 C   0  0  0  0  0  0  0  0  0  0  0  0
   -0.1681    0.9175   -3.6507 C   0  0  0  0  0  0  0  0  0  0  0  0
    0.8660    0.8745   -4.5644 C   0  0  0  0  0  0  0  0  0  0  0  0
    1.5982    2.0237   -4.8337 C   0  0  0  0  0  0  0  0  0  0  0  0
    2.9899    2.0744   -5.9101 S   0  0  0  0  0  0  0  0  0  0  0  0
    3.3120    0.3276   -6.2848 C   0  0  0  0  0  0  0  0  0  0  0  0
    1.2379    3.2277   -4.2277 C   0  0  0  0  0  0  0  0  0  0  0  0
    0.2023    3.2722   -3.3229 C   0  0  0  0  0  0  0  0  0  0  0  0
   -0.0140    0.7563   -0.5751 C   0  0  0  0  0  0  0  0  0  0  0  0
    1.5782    0.9622   -1.2290 S   0  0  0  0  0  0  0  0  0  0  0  0
    2.2790    0.0652    0.1153 C   0  0  0  0  0  0  0  0  0  0  0  0
    1.2882   -0.4486    0.9794 C   0  0  0  0  0  0  0  0  0  0  0  0
    1.4346   -1.3133    2.0341 N   0  0  0  0  0  0  0  0  0  0  0  0
    0.4517   -1.2167    3.0449 C   0  0  0  0  0  0  0  0  0  0  0  0
   -0.3203   -2.3185    3.3967 C   0  0  0  0  0  0  0  0  0  0  0  0
   -1.3627   -2.1834    4.2921 C   0  0  0  0  0  0  0  0  0  0  0  0
   -1.6445   -0.9418    4.8488 C   0  0  0  0  0  0  0  0  0  0  0  0
   -2.9964   -0.6304    5.9314 S   0  0  0  0  0  0  0  0  0  0  0  0
   -3.9419   -2.1799    5.9092 C   0  0  0  0  0  0  0  0  0  0  0  0
   -0.8293    0.1489    4.5465 C   0  0  0  0  0  0  0  0  0  0  0  0
    0.2077    0.0148    3.6522 C   0  0  0  0  0  0  0  0  0  0  0  0
    2.3714   -2.3373    2.1032 C   0  0  0  0  0  0  0  0  0  0  0  0
    2.9347   -2.9069    0.9564 C   0  0  0  0  0  0  0  0  0  0  0  0
    3.8534   -3.9236    1.0639 C   0  0  0  0  0  0  0  0  0  0  0  0
    4.2345   -4.4100    2.3157 C   0  0  0  0  0  0  0  0  0  0  0  0
    5.3984   -5.7173    2.3306 S   0  0  0  0  0  0  0  0  0  0  0  0
    5.8068   -5.9262    4.0904 C   0  0  0  0  0  0  0  0  0  0  0  0
    3.6604   -3.8633    3.4592 C   0  0  0  0  0  0  0  0  0  0  0  0
    2.7359   -2.8479    3.3513 C   0  0  0  0  0  0  0  0  0  0  0  0
    0.0036   -0.0108    0.5764 C   0  0  0  0  0  0  0  0  0  0  0  0
   -1.5899   -0.2215    1.2267 S   0  0  0  0  0  0  0  0  0  0  0  0
    3.6878    0.0100    0.1604 C   0  0  0  0  0  0  0  0  0  0  0  0
    4.4437    0.3640   -0.9887 C   0  0  0  0  0  0  0  0  0  0  0  0
    5.8730    0.1924   -1.0822 C   0  0  0  0  0  0  0  0  0  0  0  0
    6.3328    0.5426   -2.2813 N   0  0  0  0  0  0  0  0  0  0  0  0
    5.1149    1.0645   -3.1899 S   0  0  0  0  0  4  0  0  0  0  0  0
    3.9291    0.8377   -2.1213 N   0  0  0  0  0  0  0  0  0  0  0  0
    6.6364   -0.3605   -0.0269 C   0  0  0  0  0  0  0  0  0  0  0  0
    5.9196   -0.5097    1.1857 C   0  0  0  0  0  0  0  0  0  0  0  0
    6.4668   -0.7330    2.3757 N   0  0  0  0  0  0  0  0  0  0  0  0
    5.3188   -0.7257    3.4968 S   0  0  0  0  0  0  0  0  0  0  0  0
    4.0598   -0.4298    2.5401 N   0  0  0  0  0  0  0  0  0  0  0  0
    4.4864   -0.3229    1.2818 C   0  0  0  0  0  0  0  0  0  0  0  0
    8.0016   -0.6625   -0.1905 C   0  0  0  0  0  0  0  0  0  0  0  0
    8.6769   -1.6486    0.4887 C   0  0  0  0  0  0  0  0  0  0  0  0
    8.0249   -2.8179    1.1070 C   0  0  0  0  0  0  0  0  0  0  0  0
    6.8401   -3.0651    1.2067 O   0  0  0  0  0  0  0  0  0  0  0  0
    9.1321   -3.7298    1.4807 C   0  0  0  0  0  0  0  0  0  0  0  0
    9.0469   -4.9758    2.0645 C   0  0  0  0  0  0  0  0  0  0  0  0
   10.2259   -5.6618    2.3279 C   0  0  0  0  0  0  0  0  0  0  0  0
   10.1840   -7.2168    3.0678 Cl  0  0  0  0  0  0  0  0  0  0  0  0
   11.4473   -5.0820    1.9855 C   0  0  0  0  0  0  0  0  0  0  0  0
   12.5801   -5.7519    2.2380 F   0  0  0  0  0  0  0  0  0  0  0  0
   11.5389   -3.8361    1.3816 C   0  0  0  0  0  0  0  0  0  0  0  0
   10.3619   -3.1518    1.1257 C   0  0  0  0  0  0  0  0  0  0  0  0
   10.1046   -1.8496    0.5125 C   0  0  0  0  0  0  0  0  0  0  0  0
   11.0610   -0.9510    0.1107 C   0  0  0  0  0  0  0  0  0  0  0  0
   12.4469   -1.1975    0.1727 C   0  0  0  0  0  0  0  0  0  0  0  0
   13.5851   -1.3484    0.1943 N   0  0  0  0  0  0  0  0  0  0  0  0
   10.7885    0.3397   -0.3883 C   0  0  0  0  0  0  0  0  0  0  0  0
   10.6547    1.4101   -0.7822 N   0  0  0  0  0  0  0  0  0  0  0  0
   -8.5437    0.7427    0.7372 H   0  0  0  0  0  0  0  0  0  0  0  0
   -8.8988   -2.6652   -4.5048 H   0  0  0  0  0  0  0  0  0  0  0  0
  -12.9437   -0.5988   -2.4633 H   0  0  0  0  0  0  0  0  0  0  0  0
   -2.4737    3.2539   -4.1254 H   0  0  0  0  0  0  0  0  0  0  0  0
   -4.2768    4.8847   -4.1950 H   0  0  0  0  0  0  0  0  0  0  0  0
   -5.5603    6.8282   -4.2355 H   0  0  0  0  0  0  0  0  0  0  0  0
   -6.6062    5.3701   -4.1743 H   0  0  0  0  0  0  0  0  0  0  0  0
   -7.2420    6.9540   -3.6788 H   0  0  0  0  0  0  0  0  0  0  0  0
   -4.5086    4.8085    0.0765 H   0  0  0  0  0  0  0  0  0  0  0  0
   -2.6631    3.1958    0.1481 H   0  0  0  0  0  0  0  0  0  0  0  0
   -0.7321    0.0251   -3.4249 H   0  0  0  0  0  0  0  0  0  0  0  0
    1.0948   -0.0596   -5.0499 H   0  0  0  0  0  0  0  0  0  0  0  0
    4.2487    0.3134   -6.8331 H   0  0  0  0  0  0  0  0  0  0  0  0
    3.4151   -0.2312   -5.3595 H   0  0  0  0  0  0  0  0  0  0  0  0
    2.5182   -0.0757   -6.9068 H   0  0  0  0  0  0  0  0  0  0  0  0
    1.7993    4.1192   -4.4601 H   0  0  0  0  0  0  0  0  0  0  0  0
   -0.0578    4.1991   -2.8344 H   0  0  0  0  0  0  0  0  0  0  0  0
   -0.1193   -3.2775    2.9427 H   0  0  0  0  0  0  0  0  0  0  0  0
   -1.9576   -3.0493    4.5314 H   0  0  0  0  0  0  0  0  0  0  0  0
   -4.8451   -1.9792    6.4766 H   0  0  0  0  0  0  0  0  0  0  0  0
   -4.1978   -2.4392    4.8863 H   0  0  0  0  0  0  0  0  0  0  0  0
   -3.3765   -2.9722    6.3908 H   0  0  0  0  0  0  0  0  0  0  0  0
   -1.0346    1.1013    5.0095 H   0  0  0  0  0  0  0  0  0  0  0  0
    0.8303    0.8596    3.3997 H   0  0  0  0  0  0  0  0  0  0  0  0
    2.6418   -2.5521   -0.0198 H   0  0  0  0  0  0  0  0  0  0  0  0
    4.2965   -4.3541    0.1800 H   0  0  0  0  0  0  0  0  0  0  0  0
    6.5836   -6.6843    4.1267 H   0  0  0  0  0  0  0  0  0  0  0  0
    4.9373   -6.2726    4.6410 H   0  0  0  0  0  0  0  0  0  0  0  0
    6.1842   -4.9899    4.4916 H   0  0  0  0  0  0  0  0  0  0  0  0
    3.9283   -4.2179    4.4411 H   0  0  0  0  0  0  0  0  0  0  0  0
    2.3147   -2.4132    4.2447 H   0  0  0  0  0  0  0  0  0  0  0  0
    8.5119   -0.1041   -0.9655 H   0  0  0  0  0  0  0  0  0  0  0  0
    8.0869   -5.4057    2.2993 H   0  0  0  0  0  0  0  0  0  0  0  0
   12.5129   -3.4493    1.1298 H   0  0  0  0  0  0  0  0  0  0  0  0
  1  2  2  0  0  0  0
  2  3  1  0  0  0  0
  3  4  2  0  0  0  0
  3  5  1  0  0  0  0
  5  6  2  0  0  0  0
  6  7  1  0  0  0  0
  7  8  1  0  0  0  0
  7  9  2  0  0  0  0
  9 10  1  0  0  0  0
  9 11  1  0  0  0  0
 11 12  2  0  0  0  0
 12 13  1  0  0  0  0
 13 14  2  0  0  0  0
 14 15  1  0  0  0  0
 15 16  3  0  0  0  0
 14 17  1  0  0  0  0
 17 18  3  0  0  0  0
  1 19  1  0  0  0  0
 19 20  2  0  0  0  0
 20 21  1  0  0  0  0
 21 22  1  0  0  0  0
 22 23  2  0  0  0  0
 23 24  2  0  0  0  0
 21 25  2  0  0  0  0
 25 26  1  0  0  0  0
 26 27  2  0  0  0  0
 27 28  1  0  0  0  0
 28 29  1  0  0  0  0
 29 30  2  0  0  0  0
 25 31  1  0  0  0  0
 31 32  2  0  0  0  0
 32 33  1  0  0  0  0
 33 34  1  0  0  0  0
 34 35  2  0  0  0  0
 35 36  1  0  0  0  0
 36 37  2  0  0  0  0
 37 38  1  0  0  0  0
 38 39  1  0  0  0  0
 37 40  1  0  0  0  0
 40 41  2  0  0  0  0
 33 42  1  0  0  0  0
 42 43  2  0  0  0  0
 43 44  1  0  0  0  0
 44 45  2  0  0  0  0
 45 46  1  0  0  0  0
 46 47  1  0  0  0  0
 45 48  1  0  0  0  0
 48 49  2  0  0  0  0
 32 50  1  0  0  0  0
 50 51  1  0  0  0  0
 51 52  1  0  0  0  0
 52 53  2  0  0  0  0
 53 54  1  0  0  0  0
 54 55  1  0  0  0  0
 55 56  2  0  0  0  0
 56 57  1  0  0  0  0
 57 58  2  0  0  0  0
 58 59  1  0  0  0  0
 59 60  1  0  0  0  0
 58 61  1  0  0  0  0
 61 62  2  0  0  0  0
 54 63  1  0  0  0  0
 63 64  2  0  0  0  0
 64 65  1  0  0  0  0
 65 66  2  0  0  0  0
 66 67  1  0  0  0  0
 67 68  1  0  0  0  0
 66 69  1  0  0  0  0
 69 70  2  0  0  0  0
 53 71  1  0  0  0  0
 71 72  1  0  0  0  0
 52 73  1  0  0  0  0
 73 74  2  0  0  0  0
 74 75  1  0  0  0  0
 75 76  1  0  0  0  0
 76 77  2  0  0  0  0
 77 78  2  0  0  0  0
 75 79  2  0  0  0  0
 79 80  1  0  0  0  0
 80 81  2  0  0  0  0
 81 82  1  0  0  0  0
 82 83  1  0  0  0  0
 83 84  2  0  0  0  0
 79 85  1  0  0  0  0
 85 86  2  0  0  0  0
 86 87  1  0  0  0  0
 87 88  2  0  0  0  0
 87 89  1  0  0  0  0
 89 90  2  0  0  0  0
 90 91  1  0  0  0  0
 91 92  1  0  0  0  0
 91 93  2  0  0  0  0
 93 94  1  0  0  0  0
 93 95  1  0  0  0  0
 95 96  2  0  0  0  0
 96 97  1  0  0  0  0
 97 98  2  0  0  0  0
 98 99  1  0  0  0  0
 99100  3  0  0  0  0
 98101  1  0  0  0  0
101102  3  0  0  0  0
 13  2  1  0  0  0  0
 30 19  1  0  0  0  0
 72 31  1  0  0  0  0
 84 73  1  0  0  0  0
 97 86  1  0  0  0  0
 12  5  1  0  0  0  0
 24 20  1  0  0  0  0
 30 26  1  0  0  0  0
 41 34  1  0  0  0  0
 49 42  1  0  0  0  0
 71 50  2  0  0  0  0
 78 74  1  0  0  0  0
 84 80  1  0  0  0  0
 96 89  1  0  0  0  0
 62 55  1  0  0  0  0
 70 63  1  0  0  0  0
  1103  1  0  0  0  0
  6104  1  0  0  0  0
 11105  1  0  0  0  0
 35106  1  0  0  0  0
 36107  1  0  0  0  0
 39108  1  0  0  0  0
 39109  1  0  0  0  0
 39110  1  0  0  0  0
 40111  1  0  0  0  0
 41112  1  0  0  0  0
 43113  1  0  0  0  0
 44114  1  0  0  0  0
 47115  1  0  0  0  0
 47116  1  0  0  0  0
 47117  1  0  0  0  0
 48118  1  0  0  0  0
 49119  1  0  0  0  0
 56120  1  0  0  0  0
 57121  1  0  0  0  0
 60122  1  0  0  0  0
 60123  1  0  0  0  0
 60124  1  0  0  0  0
 61125  1  0  0  0  0
 62126  1  0  0  0  0
 64127  1  0  0  0  0
 65128  1  0  0  0  0
 68129  1  0  0  0  0
 68130  1  0  0  0  0
 68131  1  0  0  0  0
 69132  1  0  0  0  0
 70133  1  0  0  0  0
 85134  1  0  0  0  0
 90135  1  0  0  0  0
 95136  1  0  0  0  0
M  END
