182

C         -3.64380        5.62500      -11.11740
C         -2.89280        6.75240      -11.19730
C         -1.99580        7.26940      -10.12330
O         -1.67800        6.73780       -9.08700
C         -1.63470        8.64060      -10.54880
C         -0.84550        9.55280       -9.87700
C         -0.63260       10.79570      -10.45980
Cl         0.34380       11.97700       -9.68260
C         -1.22370       11.08230      -11.69450
F         -1.02010       12.28310      -12.24670
C         -2.01820       10.17270      -12.37300
C         -2.22570        8.93050      -11.79010
C         -2.98990        7.77120      -12.23460
C         -3.62210        7.64730      -13.44150
C         -4.30260        6.49430      -13.89060
N         -4.86690        5.59720      -14.33170
C         -3.66230        8.66440      -14.42040
N         -3.73660        9.45390      -15.24960
C         -3.51000        4.56850      -10.14600
C         -2.25440        4.13980       -9.68180
C         -2.20980        3.14920       -8.73340
C         -1.02470        2.55220       -8.05750
O          0.14180        2.75340       -8.28860
C         -1.60990        1.65470       -7.02460
C         -3.01360        1.65230       -7.14720
C         -3.38470        2.56880       -8.21360
C         -4.61910        2.94600       -8.71070
C         -4.66760        3.92890       -9.68470
C         -3.78300        0.91030       -6.27100
C         -3.15260        0.27590       -5.21350
C         -1.76880        0.35470       -5.03360
C         -0.97900        0.99350       -5.99830
C         -1.17990       -0.08070       -3.78140
C         -1.64000        0.25930       -2.52250
N         -2.74860        1.03950       -2.22880
C         -3.38740        0.80120       -1.00060
C         -3.65580       -0.50960       -0.60220
C         -4.12760       -0.77010        0.66540
C         -4.34840        0.27630        1.55610
S         -4.83890       -0.15420        3.19730
C         -4.27540        1.27550        4.16880
C         -4.17250        1.58770        1.13220
C         -3.69310        1.84810       -0.13600
C         -3.10980        2.12360       -3.03680
C         -4.45300        2.42800       -3.23530
C         -4.82930        3.41840       -4.12290
C         -3.86500        4.11860       -4.83450
S         -4.21020        5.33630       -6.06450
C         -6.02370        5.32950       -6.17970
C         -2.51660        3.86270       -4.58770
C         -2.14270        2.88760       -3.69330
C         -0.78080       -0.25600       -1.52050
S         -0.77050       -0.15990        0.19760
C          0.70870       -1.11570        0.27250
C          1.18380       -1.44830       -0.98900
N          2.27390       -2.24340       -1.28520
C          2.14780       -3.19550       -2.30770
C          0.95540       -3.89320       -2.47900
C          0.81770       -4.82080       -3.49300
C          1.87950       -5.07540       -4.34990
S          1.83190       -6.23800       -5.67500
C          0.13440       -6.88050       -5.63660
C          3.07980       -4.38730       -4.17360
C          3.21370       -3.45670       -3.16950
C          3.50790       -2.08910       -0.63840
C          4.03470       -0.82400       -0.39230
C          5.26310       -0.68400        0.22770
C          5.97960       -1.80960        0.61030
S          7.54770       -1.75450        1.41480
C          8.17680       -0.09980        1.01140
C          5.45110       -3.07740        0.36710
C          4.23410       -3.21820       -0.25600
C          0.31300       -0.95150       -1.99950
S          0.32980       -0.97320       -3.73160
C          1.09530       -1.44710        1.60830
C          0.18510       -1.65390        2.61210
C          0.76050       -1.86010        3.88380
C          0.10960       -2.10870        5.10690
C         -1.34260       -2.31810        5.16080
C         -2.14100       -1.67890        6.09860
C         -3.50150       -1.92040        6.15580
F         -4.19430       -1.22730        7.09420
C         -4.15090       -2.81180        5.29810
O         -5.43660       -3.19730        5.26390
C         -6.40160       -2.71460        6.18680
C         -6.96940       -1.35950        5.78570
C         -3.31010       -3.41980        4.34800
F         -3.87190       -4.28030        3.47730
C         -1.95740       -3.19610        4.26820
C          0.91650       -2.17640        6.23350
C          2.33250       -2.03120        6.18040
C          2.98070       -1.81260        4.94800
C          4.42990       -1.59880        4.86940
C          5.33680       -2.51330        5.38340
C          6.69620       -2.27280        5.31590
C          7.22920       -1.09820        4.77650
O          8.51420       -0.71870        4.65200
C          9.55580       -1.40410        5.33170
C          9.52130       -1.16390        6.83630
C          6.27430       -0.20130        4.26950
C          4.92100       -0.43310        4.28640
F          6.71990        0.95760        3.74140
F          7.50340       -3.23940        5.81090
C          2.17300       -1.73680        3.83240
S          2.74200       -1.49310        2.20140
C          2.93250       -2.09670        7.44830
C          2.04240       -2.31070        8.47450
S          0.38680       -2.44760        7.86650
C          2.21310       -2.42450        9.86890
C          3.32190       -2.29590       10.66500
C          4.70720       -1.94300       10.28240
O          5.18960       -1.78420        9.17990
C          5.45020       -1.80620       11.55390
C          6.77340       -1.45270       11.72410
C          7.27170       -1.37320       13.01820
Cl         8.90960       -0.93500       13.30510
C          6.42470       -1.65240       14.09360
F          6.90860       -1.56990       15.33850
C          5.09640       -2.01200       13.92770
C          4.60140       -2.09050       12.63450
C          3.27990       -2.43370       12.11470
C          2.22410       -2.83940       12.88850
C          2.27480       -2.94490       14.29590
N          2.24130       -3.04990       15.43820
C          0.94500       -3.23390       12.43870
N         -0.11930       -3.58170       12.18280
H         -4.46050        5.50270      -11.81920
H         -0.40580        9.29960       -8.92540
H         -2.44720       10.45960      -13.31910
H         -1.34180        4.55730      -10.07380
H         -5.52840        2.48940       -8.34900
H         -5.62510        4.24480      -10.07410
H         -4.85590        0.85600       -6.37510
H         -3.74190       -0.27260       -4.49380
H          0.09530        1.02860       -5.89440
H         -3.45700       -1.32390       -1.28370
H         -4.30830       -1.78430        0.98700
H         -4.96290        2.10880        4.05600
H         -3.27220        1.54680        3.85490
H         -4.26310        0.95180        5.20480
H         -4.38460        2.41360        1.79240
H         -3.52360        2.86660       -0.45290
H         -5.20880        1.86870       -2.70330
H         -5.87920        3.61910       -4.26130
H         -6.37430        4.33840       -6.45060
H         -6.46070        5.66090       -5.24240
H         -6.26720        6.03520       -6.96750
H         -1.77000        4.43710       -5.11440
H         -1.09600        2.70100       -3.50760
H          0.12850       -3.71380       -1.80700
H         -0.12010       -5.34230       -3.59460
H         -0.04760       -7.39950       -4.70000
H         -0.57240       -6.06930       -5.78540
H          0.07000       -7.58140       -6.46310
H          3.90140       -4.58800       -4.84350
H          4.14240       -2.92040       -3.04770
H          3.47790        0.05250       -0.68990
H          5.64890        0.30580        0.41140
H          7.63540        0.66170        1.56180
H          8.10740        0.05850       -0.06050
H          9.21620       -0.10070        1.32370
H          6.01260       -3.94620        0.67370
H          3.82960       -4.20020       -0.44950
H         -0.87570       -1.64750        2.43670
H         -1.72380       -0.97000        6.79620
H         -7.19070       -3.47100        6.14820
H         -5.99520       -2.68720        7.20200
H         -7.29730       -1.38990        4.75000
H         -7.81540       -1.12070        6.42360
H         -6.22420       -0.57680        5.88990
H         -1.38220       -3.73420        3.53190
H          5.00410       -3.44030        5.82280
H          9.53660       -2.47310        5.10220
H         10.46480       -0.97290        4.90390
H         10.39380       -1.62110        7.29380
H          8.62950       -1.59680        7.28240
H          9.53120       -0.09580        7.04150
H          4.25550        0.31200        3.88110
H          3.98710       -1.97710        7.60990
H          1.28390       -2.63090       10.38640
H          7.39970       -1.24320       10.87170
H          4.50110       -2.21240       14.80310
