
  xtb     02102220283D
 energy: -326.616270933306 gnorm: 0.000389744101 xtb: 6.4.1 (unknown)
172190  0     0  0            999 V2000
    3.2879    8.8707   -3.0639 C   0  0  0  0  0  0  0  0  0  0  0  0
    3.6902    9.1772   -4.3378 C   0  0  0  0  0  0  0  0  0  0  0  0
    3.9523    8.1780   -5.3968 C   0  0  0  0  0  0  0  0  0  0  0  0
    3.8647    6.9707   -5.3341 O   0  0  0  0  0  0  0  0  0  0  0  0
    4.5198    8.9482   -6.5298 C   0  0  0  0  0  0  0  0  0  0  0  0
    4.9211    8.4796   -7.7634 C   0  0  0  0  0  0  0  0  0  0  0  0
    5.4532    9.3868   -8.6723 C   0  0  0  0  0  0  0  0  0  0  0  0
    5.9630    8.8696  -10.2323 Cl  0  0  0  0  0  0  0  0  0  0  0  0
    5.5742   10.7289   -8.3089 C   0  0  0  0  0  0  0  0  0  0  0  0
    6.0947   11.5965   -9.1870 F   0  0  0  0  0  0  0  0  0  0  0  0
    5.1797   11.2051   -7.0679 C   0  0  0  0  0  0  0  0  0  0  0  0
    4.6433   10.2993   -6.1665 C   0  0  0  0  0  0  0  0  0  0  0  0
    4.1333   10.4694   -4.8075 C   0  0  0  0  0  0  0  0  0  0  0  0
    4.0322   11.6654   -4.1422 C   0  0  0  0  0  0  0  0  0  0  0  0
    3.4611   11.8408   -2.8669 C   0  0  0  0  0  0  0  0  0  0  0  0
    3.0000   12.0863   -1.8435 N   0  0  0  0  0  0  0  0  0  0  0  0
    4.4782   12.8986   -4.6606 C   0  0  0  0  0  0  0  0  0  0  0  0
    4.8267   13.9305   -5.0237 N   0  0  0  0  0  0  0  0  0  0  0  0
    2.6450    7.6756   -2.6640 C   0  0  0  0  0  0  0  0  0  0  0  0
    1.7581    6.9302   -3.4733 C   0  0  0  0  0  0  0  0  0  0  0  0
    1.1017    5.7262   -3.0080 C   0  0  0  0  0  0  0  0  0  0  0  0
    0.3310    5.1842   -3.9551 N   0  0  0  0  0  0  0  0  0  0  0  0
    0.3955    6.1078   -5.2658 S   0  0  0  0  0  4  0  0  0  0  0  0
    1.3795    7.2420   -4.7113 N   0  0  0  0  0  0  0  0  0  0  0  0
    1.2964    5.2065   -1.7119 C   0  0  0  0  0  0  0  0  0  0  0  0
    2.2279    5.9172   -0.9248 C   0  0  0  0  0  0  0  0  0  0  0  0
    2.5834    5.6038    0.3220 N   0  0  0  0  0  0  0  0  0  0  0  0
    3.5713    6.7350    0.8881 S   0  0  0  0  0  0  0  0  0  0  0  0
    3.5996    7.6863   -0.4102 N   0  0  0  0  0  0  0  0  0  0  0  0
    2.8310    7.1552   -1.3620 C   0  0  0  0  0  0  0  0  0  0  0  0
    0.6138    4.0762   -1.1889 C   0  0  0  0  0  0  0  0  0  0  0  0
   -0.7092    3.6642   -1.4006 C   0  0  0  0  0  0  0  0  0  0  0  0
   -1.6907    4.4321   -1.9801 N   0  0  0  0  0  0  0  0  0  0  0  0
   -2.7733    3.8184   -2.6157 C   0  0  0  0  0  0  0  0  0  0  0  0
   -4.0549    4.3623   -2.5114 C   0  0  0  0  0  0  0  0  0  0  0  0
   -5.1225    3.7317   -3.1065 C   0  0  0  0  0  0  0  0  0  0  0  0
   -4.9398    2.5432   -3.8142 C   0  0  0  0  0  0  0  0  0  0  0  0
   -6.3832    1.8100   -4.5088 S   0  0  0  0  0  0  0  0  0  0  0  0
   -5.8423    0.1299   -4.9365 C   0  0  0  0  0  0  0  0  0  0  0  0
   -3.6606    2.0181   -3.9485 C   0  0  0  0  0  0  0  0  0  0  0  0
   -2.5874    2.6534   -3.3566 C   0  0  0  0  0  0  0  0  0  0  0  0
   -1.5995    5.8312   -1.9227 C   0  0  0  0  0  0  0  0  0  0  0  0
   -1.9437    6.6179   -3.0221 C   0  0  0  0  0  0  0  0  0  0  0  0
   -1.6593    7.9655   -3.0236 C   0  0  0  0  0  0  0  0  0  0  0  0
   -1.0357    8.5619   -1.9273 C   0  0  0  0  0  0  0  0  0  0  0  0
   -0.5572   10.2449   -2.0891 S   0  0  0  0  0  0  0  0  0  0  0  0
    0.5219   10.5153   -0.6573 C   0  0  0  0  0  0  0  0  0  0  0  0
   -0.8152    7.8033   -0.7813 C   0  0  0  0  0  0  0  0  0  0  0  0
   -1.1006    6.4549   -0.7808 C   0  0  0  0  0  0  0  0  0  0  0  0
   -0.9503    2.4304   -0.7467 C   0  0  0  0  0  0  0  0  0  0  0  0
   -2.2984    1.3464   -0.6507 S   0  0  0  0  0  0  0  0  0  0  0  0
   -1.4086    0.3054    0.4480 C   0  0  0  0  0  0  0  0  0  0  0  0
   -0.1162    0.7533    0.6855 C   0  0  0  0  0  0  0  0  0  0  0  0
    0.8600    0.0976    1.4135 N   0  0  0  0  0  0  0  0  0  0  0  0
    1.7983    0.8825    2.1026 C   0  0  0  0  0  0  0  0  0  0  0  0
    3.1506    0.5589    2.0838 C   0  0  0  0  0  0  0  0  0  0  0  0
    4.0771    1.3789    2.6981 C   0  0  0  0  0  0  0  0  0  0  0  0
    3.6642    2.5416    3.3356 C   0  0  0  0  0  0  0  0  0  0  0  0
    4.7551    3.6958    4.1034 S   0  0  0  0  0  0  0  0  0  0  0  0
    6.4108    3.0747    3.6934 C   0  0  0  0  0  0  0  0  0  0  0  0
    2.3059    2.8469    3.3918 C   0  0  0  0  0  0  0  0  0  0  0  0
    1.3822    2.0245    2.7887 C   0  0  0  0  0  0  0  0  0  0  0  0
    0.9493   -1.2995    1.4188 C   0  0  0  0  0  0  0  0  0  0  0  0
    0.6052   -2.0379    0.2892 C   0  0  0  0  0  0  0  0  0  0  0  0
    0.5262   -3.4157    0.3414 C   0  0  0  0  0  0  0  0  0  0  0  0
    0.8117   -4.0824    1.5248 C   0  0  0  0  0  0  0  0  0  0  0  0
    0.6331   -5.8238    1.7438 S   0  0  0  0  0  0  0  0  0  0  0  0
   -0.0692   -6.3927    0.1711 C   0  0  0  0  0  0  0  0  0  0  0  0
    1.2524   -3.3540    2.6296 C   0  0  0  0  0  0  0  0  0  0  0  0
    1.3195   -1.9803    2.5811 C   0  0  0  0  0  0  0  0  0  0  0  0
    0.1216    1.9732    0.0043 C   0  0  0  0  0  0  0  0  0  0  0  0
    1.4758    3.0419   -0.0672 S   0  0  0  0  0  0  0  0  0  0  0  0
   -1.9881   -0.9173    0.9127 C   0  0  0  0  0  0  0  0  0  0  0  0
   -2.6367   -1.8578    0.1692 C   0  0  0  0  0  0  0  0  0  0  0  0
   -2.8486   -3.0710    0.8652 C   0  0  0  0  0  0  0  0  0  0  0  0
   -3.3311   -4.2832    0.3400 C   0  0  0  0  0  0  0  0  0  0  0  0
   -3.7056   -4.4068   -1.0601 C   0  0  0  0  0  0  0  0  0  0  0  0
   -2.5673   -4.0191   -2.3208 S   0  0  0  0  0  0  0  0  0  0  0  0
   -3.6790   -4.4629   -3.5715 C   0  0  0  0  0  0  0  0  0  0  0  0
   -3.3229   -4.3101   -5.0091 C   0  0  0  0  0  0  0  0  0  0  0  0
   -3.6139   -2.8886   -5.4961 C   0  0  0  0  0  0  0  0  0  0  0  0
   -4.8581   -4.8755   -3.0285 C   0  0  0  0  0  0  0  0  0  0  0  0
   -6.2112   -5.3790   -3.9554 Cl  0  0  0  0  0  0  0  0  0  0  0  0
   -4.8735   -4.8569   -1.6058 C   0  0  0  0  0  0  0  0  0  0  0  0
   -6.2545   -5.2953   -0.6909 Cl  0  0  0  0  0  0  0  0  0  0  0  0
   -3.3509   -5.3749    1.1958 C   0  0  0  0  0  0  0  0  0  0  0  0
   -2.8655   -5.3207    2.5310 C   0  0  0  0  0  0  0  0  0  0  0  0
   -2.3378   -4.1130    3.0487 C   0  0  0  0  0  0  0  0  0  0  0  0
   -1.6612   -4.0695    4.3201 C   0  0  0  0  0  0  0  0  0  0  0  0
   -0.8791   -5.0365    4.9005 C   0  0  0  0  0  0  0  0  0  0  0  0
   -0.2689   -4.6102    6.0924 C   0  0  0  0  0  0  0  0  0  0  0  0
   -0.5803   -3.3292    6.4399 C   0  0  0  0  0  0  0  0  0  0  0  0
   -0.0801   -2.5272    7.5900 C   0  0  0  0  0  0  0  0  0  0  0  0
    0.9254   -1.4731    7.1192 C   0  0  0  0  0  0  0  0  0  0  0  0
   -1.6444   -2.6133    5.2784 S   0  0  0  0  0  0  0  0  0  0  0  0
   -2.3934   -3.0076    2.2048 C   0  0  0  0  0  0  0  0  0  0  0  0
   -1.7684   -1.4255    2.5717 S   0  0  0  0  0  0  0  0  0  0  0  0
   -2.9484   -6.5715    3.1700 C   0  0  0  0  0  0  0  0  0  0  0  0
   -3.4144   -7.5819    2.3632 C   0  0  0  0  0  0  0  0  0  0  0  0
   -3.8524   -6.9799    0.7657 S   0  0  0  0  0  0  0  0  0  0  0  0
   -3.6181   -8.9556    2.6160 C   0  0  0  0  0  0  0  0  0  0  0  0
   -3.0293   -9.7483    3.5632 C   0  0  0  0  0  0  0  0  0  0  0  0
   -1.8280   -9.4227    4.3672 C   0  0  0  0  0  0  0  0  0  0  0  0
   -1.2815   -8.3507    4.5191 O   0  0  0  0  0  0  0  0  0  0  0  0
   -1.3666  -10.7092    4.9256 C   0  0  0  0  0  0  0  0  0  0  0  0
   -0.2545  -10.9515    5.6786 C   0  0  0  0  0  0  0  0  0  0  0  0
    0.0075  -12.2711    6.1085 C   0  0  0  0  0  0  0  0  0  0  0  0
    1.1410  -12.5776    6.8860 C   0  0  0  0  0  0  0  0  0  0  0  0
    1.3741  -13.8639    7.2846 C   0  0  0  0  0  0  0  0  0  0  0  0
    2.4543  -14.1543    8.0229 F   0  0  0  0  0  0  0  0  0  0  0  0
    0.4856  -14.8969    6.9248 C   0  0  0  0  0  0  0  0  0  0  0  0
    0.7398  -16.1483    7.3297 F   0  0  0  0  0  0  0  0  0  0  0  0
   -0.6231  -14.6302    6.1715 C   0  0  0  0  0  0  0  0  0  0  0  0
   -0.8923  -13.3144    5.7442 C   0  0  0  0  0  0  0  0  0  0  0  0
   -2.0369  -13.0303    4.9641 C   0  0  0  0  0  0  0  0  0  0  0  0
   -2.2726  -11.7422    4.5611 C   0  0  0  0  0  0  0  0  0  0  0  0
   -3.3430  -11.1521    3.7638 C   0  0  0  0  0  0  0  0  0  0  0  0
   -4.4781  -11.8001    3.3530 C   0  0  0  0  0  0  0  0  0  0  0  0
   -5.5588  -11.1962    2.6749 C   0  0  0  0  0  0  0  0  0  0  0  0
   -6.4858  -10.7744    2.1448 N   0  0  0  0  0  0  0  0  0  0  0  0
   -4.7348  -13.1655    3.5966 C   0  0  0  0  0  0  0  0  0  0  0  0
   -4.9929  -14.2722    3.7588 N   0  0  0  0  0  0  0  0  0  0  0  0
    3.5159    9.5612   -2.2606 H   0  0  0  0  0  0  0  0  0  0  0  0
    4.8200    7.4358   -8.0144 H   0  0  0  0  0  0  0  0  0  0  0  0
    5.3069   12.2525   -6.8479 H   0  0  0  0  0  0  0  0  0  0  0  0
   -4.2056    5.2701   -1.9471 H   0  0  0  0  0  0  0  0  0  0  0  0
   -6.1167    4.1415   -3.0188 H   0  0  0  0  0  0  0  0  0  0  0  0
   -6.7465   -0.4096   -5.2005 H   0  0  0  0  0  0  0  0  0  0  0  0
   -5.1679    0.1532   -5.7876 H   0  0  0  0  0  0  0  0  0  0  0  0
   -5.3739   -0.3299   -4.0715 H   0  0  0  0  0  0  0  0  0  0  0  0
   -3.4855    1.1220   -4.5216 H   0  0  0  0  0  0  0  0  0  0  0  0
   -1.5905    2.2597   -3.4837 H   0  0  0  0  0  0  0  0  0  0  0  0
   -2.3840    6.1535   -3.8915 H   0  0  0  0  0  0  0  0  0  0  0  0
   -1.8810    8.5689   -3.8902 H   0  0  0  0  0  0  0  0  0  0  0  0
   -0.0684   10.5792    0.2523 H   0  0  0  0  0  0  0  0  0  0  0  0
    1.0284   11.4577   -0.8432 H   0  0  0  0  0  0  0  0  0  0  0  0
    1.2573    9.7183   -0.6017 H   0  0  0  0  0  0  0  0  0  0  0  0
   -0.4171    8.2532    0.1136 H   0  0  0  0  0  0  0  0  0  0  0  0
   -0.9076    5.8716    0.1076 H   0  0  0  0  0  0  0  0  0  0  0  0
    3.4781   -0.3330    1.5703 H   0  0  0  0  0  0  0  0  0  0  0  0
    5.1190    1.1057    2.6568 H   0  0  0  0  0  0  0  0  0  0  0  0
    7.1049    3.8069    4.0941 H   0  0  0  0  0  0  0  0  0  0  0  0
    6.5234    3.0099    2.6153 H   0  0  0  0  0  0  0  0  0  0  0  0
    6.5788    2.1124    4.1683 H   0  0  0  0  0  0  0  0  0  0  0  0
    1.9891    3.7388    3.9094 H   0  0  0  0  0  0  0  0  0  0  0  0
    0.3301    2.2630    2.8367 H   0  0  0  0  0  0  0  0  0  0  0  0
    0.3723   -1.5291   -0.6342 H   0  0  0  0  0  0  0  0  0  0  0  0
    0.2273   -3.9492   -0.5463 H   0  0  0  0  0  0  0  0  0  0  0  0
    0.6566   -6.2757   -0.6283 H   0  0  0  0  0  0  0  0  0  0  0  0
   -0.2914   -7.4455    0.3161 H   0  0  0  0  0  0  0  0  0  0  0  0
   -0.9833   -5.8481   -0.0457 H   0  0  0  0  0  0  0  0  0  0  0  0
    1.5054   -3.8807    3.5367 H   0  0  0  0  0  0  0  0  0  0  0  0
    1.6155   -1.4194    3.4545 H   0  0  0  0  0  0  0  0  0  0  0  0
   -2.8811   -1.7091   -0.8666 H   0  0  0  0  0  0  0  0  0  0  0  0
   -2.2634   -4.5322   -5.1469 H   0  0  0  0  0  0  0  0  0  0  0  0
   -3.9095   -5.0223   -5.5918 H   0  0  0  0  0  0  0  0  0  0  0  0
   -3.0412   -2.1680   -4.9162 H   0  0  0  0  0  0  0  0  0  0  0  0
   -3.3412   -2.7899   -6.5433 H   0  0  0  0  0  0  0  0  0  0  0  0
   -4.6723   -2.6649   -5.3882 H   0  0  0  0  0  0  0  0  0  0  0  0
   -0.6950   -6.0001    4.4635 H   0  0  0  0  0  0  0  0  0  0  0  0
    0.3855   -5.2351    6.6737 H   0  0  0  0  0  0  0  0  0  0  0  0
    0.3954   -3.1966    8.3095 H   0  0  0  0  0  0  0  0  0  0  0  0
   -0.9162   -2.0275    8.0847 H   0  0  0  0  0  0  0  0  0  0  0  0
    1.2900   -0.8948    7.9641 H   0  0  0  0  0  0  0  0  0  0  0  0
    1.7730   -1.9505    6.6322 H   0  0  0  0  0  0  0  0  0  0  0  0
    0.4551   -0.7956    6.4097 H   0  0  0  0  0  0  0  0  0  0  0  0
   -2.7183   -6.7208    4.2060 H   0  0  0  0  0  0  0  0  0  0  0  0
   -4.2861   -9.4404    1.9130 H   0  0  0  0  0  0  0  0  0  0  0  0
    0.4163  -10.1472    5.9401 H   0  0  0  0  0  0  0  0  0  0  0  0
    1.8307  -11.7978    7.1687 H   0  0  0  0  0  0  0  0  0  0  0  0
   -1.2934  -15.4328    5.9061 H   0  0  0  0  0  0  0  0  0  0  0  0
   -2.6942  -13.8424    4.6989 H   0  0  0  0  0  0  0  0  0  0  0  0
  1  2  2  0  0  0  0
  2  3  1  0  0  0  0
  3  4  2  0  0  0  0
  3  5  1  0  0  0  0
  5  6  2  0  0  0  0
  6  7  1  0  0  0  0
  7  8  1  0  0  0  0
  7  9  2  0  0  0  0
  9 10  1  0  0  0  0
  9 11  1  0  0  0  0
 11 12  2  0  0  0  0
 12 13  1  0  0  0  0
 13 14  2  0  0  0  0
 14 15  1  0  0  0  0
 15 16  3  0  0  0  0
 14 17  1  0  0  0  0
 17 18  3  0  0  0  0
  1 19  1  0  0  0  0
 19 20  2  0  0  0  0
 20 21  1  0  0  0  0
 21 22  1  0  0  0  0
 22 23  2  0  0  0  0
 23 24  2  0  0  0  0
 21 25  2  0  0  0  0
 25 26  1  0  0  0  0
 26 27  2  0  0  0  0
 27 28  1  0  0  0  0
 28 29  1  0  0  0  0
 29 30  2  0  0  0  0
 25 31  1  0  0  0  0
 31 32  2  0  0  0  0
 32 33  1  0  0  0  0
 33 34  1  0  0  0  0
 34 35  2  0  0  0  0
 35 36  1  0  0  0  0
 36 37  2  0  0  0  0
 37 38  1  0  0  0  0
 38 39  1  0  0  0  0
 37 40  1  0  0  0  0
 40 41  2  0  0  0  0
 33 42  1  0  0  0  0
 42 43  2  0  0  0  0
 43 44  1  0  0  0  0
 44 45  2  0  0  0  0
 45 46  1  0  0  0  0
 46 47  1  0  0  0  0
 45 48  1  0  0  0  0
 48 49  2  0  0  0  0
 32 50  1  0  0  0  0
 50 51  1  0  0  0  0
 51 52  1  0  0  0  0
 52 53  2  0  0  0  0
 53 54  1  0  0  0  0
 54 55  1  0  0  0  0
 55 56  2  0  0  0  0
 56 57  1  0  0  0  0
 57 58  2  0  0  0  0
 58 59  1  0  0  0  0
 59 60  1  0  0  0  0
 58 61  1  0  0  0  0
 61 62  2  0  0  0  0
 54 63  1  0  0  0  0
 63 64  2  0  0  0  0
 64 65  1  0  0  0  0
 65 66  2  0  0  0  0
 66 67  1  0  0  0  0
 67 68  1  0  0  0  0
 66 69  1  0  0  0  0
 69 70  2  0  0  0  0
 53 71  1  0  0  0  0
 71 72  1  0  0  0  0
 52 73  1  0  0  0  0
 73 74  2  0  0  0  0
 74 75  1  0  0  0  0
 75 76  2  0  0  0  0
 76 77  1  0  0  0  0
 77 78  1  0  0  0  0
 78 79  1  0  0  0  0
 79 80  1  0  0  0  0
 80 81  1  0  0  0  0
 79 82  2  0  0  0  0
 82 83  1  0  0  0  0
 82 84  1  0  0  0  0
 84 85  1  0  0  0  0
 76 86  1  0  0  0  0
 86 87  2  0  0  0  0
 87 88  1  0  0  0  0
 88 89  1  0  0  0  0
 89 90  2  0  0  0  0
 90 91  1  0  0  0  0
 91 92  2  0  0  0  0
 92 93  1  0  0  0  0
 93 94  1  0  0  0  0
 92 95  1  0  0  0  0
 88 96  2  0  0  0  0
 96 97  1  0  0  0  0
 87 98  1  0  0  0  0
 98 99  2  0  0  0  0
 99100  1  0  0  0  0
 99101  1  0  0  0  0
101102  2  0  0  0  0
102103  1  0  0  0  0
103104  2  0  0  0  0
103105  1  0  0  0  0
105106  2  0  0  0  0
106107  1  0  0  0  0
107108  2  0  0  0  0
108109  1  0  0  0  0
109110  1  0  0  0  0
109111  2  0  0  0  0
111112  1  0  0  0  0
111113  1  0  0  0  0
113114  2  0  0  0  0
114115  1  0  0  0  0
115116  2  0  0  0  0
116117  1  0  0  0  0
117118  2  0  0  0  0
118119  1  0  0  0  0
119120  3  0  0  0  0
118121  1  0  0  0  0
121122  3  0  0  0  0
 13  2  1  0  0  0  0
 30 19  1  0  0  0  0
 72 31  1  0  0  0  0
 97 73  1  0  0  0  0
117102  1  0  0  0  0
 12  5  1  0  0  0  0
 24 20  1  0  0  0  0
 30 26  1  0  0  0  0
 41 34  1  0  0  0  0
 49 42  1  0  0  0  0
 71 50  2  0  0  0  0
 96 75  1  0  0  0  0
116105  1  0  0  0  0
 62 55  1  0  0  0  0
 70 63  1  0  0  0  0
 84 77  2  0  0  0  0
100 86  1  0  0  0  0
114107  1  0  0  0  0
 95 89  1  0  0  0  0
  1123  1  0  0  0  0
  6124  1  0  0  0  0
 11125  1  0  0  0  0
 35126  1  0  0  0  0
 36127  1  0  0  0  0
 39128  1  0  0  0  0
 39129  1  0  0  0  0
 39130  1  0  0  0  0
 40131  1  0  0  0  0
 41132  1  0  0  0  0
 43133  1  0  0  0  0
 44134  1  0  0  0  0
 47135  1  0  0  0  0
 47136  1  0  0  0  0
 47137  1  0  0  0  0
 48138  1  0  0  0  0
 49139  1  0  0  0  0
 56140  1  0  0  0  0
 57141  1  0  0  0  0
 60142  1  0  0  0  0
 60143  1  0  0  0  0
 60144  1  0  0  0  0
 61145  1  0  0  0  0
 62146  1  0  0  0  0
 64147  1  0  0  0  0
 65148  1  0  0  0  0
 68149  1  0  0  0  0
 68150  1  0  0  0  0
 68151  1  0  0  0  0
 69152  1  0  0  0  0
 70153  1  0  0  0  0
 74154  1  0  0  0  0
 80155  1  0  0  0  0
 80156  1  0  0  0  0
 81157  1  0  0  0  0
 81158  1  0  0  0  0
 81159  1  0  0  0  0
 90160  1  0  0  0  0
 91161  1  0  0  0  0
 93162  1  0  0  0  0
 93163  1  0  0  0  0
 94164  1  0  0  0  0
 94165  1  0  0  0  0
 94166  1  0  0  0  0
 98167  1  0  0  0  0
101168  1  0  0  0  0
106169  1  0  0  0  0
108170  1  0  0  0  0
113171  1  0  0  0  0
115172  1  0  0  0  0
M  END
