141

C         -6.89930       -4.72350        1.32810
C         -7.10940       -5.46470        2.46280
C         -8.18500       -6.48490        2.45770
O         -9.06190       -6.62730        1.63610
C         -7.93010       -7.32170        3.65660
C         -8.57700       -8.47040        4.06160
C         -8.13600       -9.10180        5.21950
Cl        -8.89760      -10.54180        5.77640
C         -7.06520       -8.56010        5.93100
F         -6.63840       -9.18120        7.03950
C         -6.41790       -7.39850        5.53670
C         -6.85830       -6.77320        4.38270
C         -6.42280       -5.54360        3.72150
C         -5.66770       -4.55750        4.31020
C         -5.00430       -4.69830        5.54310
N         -4.41010       -4.76680        6.52380
C         -5.53150       -3.26040        3.78570
N         -5.40990       -2.17600        3.42570
C         -5.77780       -3.99020        0.89780
C         -5.90660       -3.11330       -0.21180
C         -4.84560       -2.24130       -0.66900
N         -5.20340       -1.55710       -1.75530
S         -6.71200       -1.95120       -2.15370
N         -6.99750       -2.99490       -0.96220
C         -3.57630       -2.20960       -0.04290
C         -3.38900       -3.24760        0.90410
N         -2.22380       -3.53780        1.47470
S         -2.41810       -4.77410        2.48490
N         -3.99850       -4.99180        2.26260
C         -4.45220       -4.10130        1.37990
C         -2.51970       -1.32210       -0.33350
C         -2.51680       -0.08010       -1.00310
N         -3.59680        0.71580       -1.28010
C         -3.53200        1.54290       -2.41410
C         -3.06430        1.02870       -3.62010
C         -2.97340        1.83150       -4.73900
C         -3.35230        3.16670       -4.66730
S         -3.27400        4.29160       -6.01870
C         -2.48850        3.33400       -7.34530
C         -3.83730        3.67910       -3.46280
C         -3.92720        2.87900       -2.34730
C         -4.73750        0.73080       -0.47640
C         -5.98620        1.00660       -1.03380
C         -7.13410        0.90490       -0.27600
C         -7.05520        0.54050        1.06440
S         -8.44860        0.29060        2.10110
C         -9.83670        0.19230        0.93280
C         -5.80010        0.35960        1.65020
C         -4.65860        0.45630        0.89200
C         -1.18920        0.33730       -1.26010
S         -0.49720        1.73280       -2.02130
C          1.11710        1.15060       -1.65520
C          1.10830       -0.01640       -0.89850
N          2.20520       -0.60100       -0.30790
C          2.16780       -1.97960       -0.03710
C          1.67770       -2.87090       -0.99130
C          1.56390       -4.20920       -0.69160
C          1.94210       -4.68680        0.56210
S          1.69080       -6.40790        0.84920
C          2.26530       -6.66130        2.55250
C          2.47750       -3.80860        1.49540
C          2.58920       -2.46520        1.19560
C          3.32240        0.15450        0.08020
C          4.60740       -0.34520       -0.12830
C          5.70940        0.42690        0.16870
C          5.55290        1.70870        0.68830
S          7.01590        2.66040        0.97100
C          6.50740        3.80640        2.28750
C          4.27650        2.19480        0.93900
C          3.17310        1.41900        0.64670
C         -0.21690       -0.48530       -0.71690
S         -0.90100       -1.82840        0.13610
C          2.27740        1.89620       -2.06740
C          2.32380        3.28720       -1.97030
C          3.50580        3.98410       -2.15900
O          3.62150        5.32320       -2.08290
C          2.60780        6.11020       -1.47630
C          2.59240        5.93720        0.03730
C          4.71310        3.26720       -2.43150
C          4.62310        1.89150       -2.68770
C          3.43250        1.24030       -2.52270
F          3.36120       -0.07960       -2.79850
C          5.93040        3.98570       -2.27870
C          7.25060        3.64480       -2.37390
C          7.90150        2.47860       -3.01190
O          7.40440        1.47450       -3.47390
C          9.34870        2.79510       -3.02920
C         10.37210        2.04930       -3.57800
C         11.66590        2.55060       -3.50230
Cl        12.98760        1.67550       -4.16840
C         11.88820        3.78140       -2.87930
F         13.13570        4.26260       -2.81980
C         10.86600        4.53160       -2.31980
C          9.57670        4.02770       -2.39680
C          8.30230        4.53780       -1.90860
C          8.15150        5.59500       -1.05010
C          9.21720        6.41040       -0.61270
N         10.03620        7.11610       -0.22740
C          6.95210        5.97750       -0.41530
N          6.04870        6.33600        0.19930
H         -7.71470       -4.75170        0.61120
H         -9.40300       -8.86740        3.49350
H         -5.59570       -7.02930        6.12800
H         -2.78420       -0.01240       -3.67720
H         -2.61330        1.40230       -5.65940
H         -1.51340        2.98370       -7.02010
H         -3.12940        2.50880       -7.64170
H         -2.37440        4.02520       -8.17460
H         -4.13250        4.71590       -3.41700
H         -4.29130        3.28210       -1.41440
H         -6.06030        1.24600       -2.08370
H         -8.08570        1.09540       -0.74540
H        -10.03400        1.16560        0.49330
H         -9.61860       -0.55140        0.17200
H        -10.69230       -0.12250        1.52190
H         -5.73770        0.10870        2.69610
H         -3.69790        0.30140        1.35800
H          1.39180       -2.50320       -1.96500
H          1.17700       -4.90250       -1.42220
H          3.32280       -6.42570        2.62750
H          1.67430       -6.06020        3.23720
H          2.10880       -7.71550        2.75860
H          2.79780       -4.15220        2.46530
H          2.99050       -1.78170        1.92940
H          4.73020       -1.33030       -0.55120
H          6.70350        0.05050       -0.01470
H          5.90980        4.61580        1.87730
H          5.96650        3.25590        3.05060
H          7.42750        4.20880        2.70000
H          4.13540        3.17870        1.35710
H          2.18270        1.80050        0.84840
H          1.41490        3.79570       -1.68950
H          1.62830        5.89510       -1.91830
H          2.88550        7.13560       -1.73150
H          2.32550        4.91780        0.30770
H          1.87160        6.62000        0.47740
H          3.58060        6.15980        0.43260
H          5.49620        1.33720       -2.99110
H          5.75070        5.00460       -1.95550
H         10.16860        1.10300       -4.05320
H         11.10450        5.47470       -1.85570
