
  xtb     02102220223D
 energy: -212.987840053608 gnorm: 0.001023185431 xtb: 6.4.1 (unknown)
108119  0     0  0            999 V2000
   -0.0548   -1.5742   10.9884 C   0  0  0  0  0  0  0  0  0  0  0  0
   -0.2229   -0.3840   11.6079 C   0  0  0  0  0  0  0  0  0  0  0  0
    0.4319   -0.1458   12.9279 C   0  0  0  0  0  0  0  0  0  0  0  0
    0.9128   -0.9780   13.6572 O   0  0  0  0  0  0  0  0  0  0  0  0
    0.4112    1.3224   13.1047 C   0  0  0  0  0  0  0  0  0  0  0  0
    1.0103    2.0772   14.0938 C   0  0  0  0  0  0  0  0  0  0  0  0
    0.8829    3.4597   14.0375 C   0  0  0  0  0  0  0  0  0  0  0  0
    1.6056    4.4577   15.2355 Cl  0  0  0  0  0  0  0  0  0  0  0  0
    0.1605    4.0406   12.9900 C   0  0  0  0  0  0  0  0  0  0  0  0
    0.0573    5.3718   12.9362 F   0  0  0  0  0  0  0  0  0  0  0  0
   -0.4530    3.2907   11.9995 C   0  0  0  0  0  0  0  0  0  0  0  0
   -0.3270    1.9115   12.0612 C   0  0  0  0  0  0  0  0  0  0  0  0
   -0.8652    0.8583   11.2051 C   0  0  0  0  0  0  0  0  0  0  0  0
   -1.9416    0.9860   10.3729 C   0  0  0  0  0  0  0  0  0  0  0  0
   -2.5873   -0.1038    9.7493 C   0  0  0  0  0  0  0  0  0  0  0  0
   -3.1839   -0.9567    9.2670 N   0  0  0  0  0  0  0  0  0  0  0  0
   -2.5926    2.2135   10.1203 C   0  0  0  0  0  0  0  0  0  0  0  0
   -3.1487    3.1890    9.8876 N   0  0  0  0  0  0  0  0  0  0  0  0
   -0.2817   -1.9109    9.6052 C   0  0  0  0  0  0  0  0  0  0  0  0
   -0.1208   -0.9535    8.5884 C   0  0  0  0  0  0  0  0  0  0  0  0
   -0.3322   -1.3311    7.2870 C   0  0  0  0  0  0  0  0  0  0  0  0
   -0.2447   -0.5073    6.0485 C   0  0  0  0  0  0  0  0  0  0  0  0
    0.0635    0.6561    5.9621 O   0  0  0  0  0  0  0  0  0  0  0  0
   -0.6114   -1.4487    4.9588 C   0  0  0  0  0  0  0  0  0  0  0  0
   -0.8679   -2.7223    5.5035 C   0  0  0  0  0  0  0  0  0  0  0  0
   -0.7055   -2.6476    6.9510 C   0  0  0  0  0  0  0  0  0  0  0  0
   -0.8417   -3.5994    7.9443 C   0  0  0  0  0  0  0  0  0  0  0  0
   -0.6137   -3.2250    9.2592 C   0  0  0  0  0  0  0  0  0  0  0  0
   -1.2028   -3.7731    4.6718 C   0  0  0  0  0  0  0  0  0  0  0  0
   -1.2809   -3.5424    3.3048 C   0  0  0  0  0  0  0  0  0  0  0  0
   -1.0419   -2.2807    2.7641 C   0  0  0  0  0  0  0  0  0  0  0  0
   -0.7036   -1.2145    3.6060 C   0  0  0  0  0  0  0  0  0  0  0  0
   -1.1267   -2.0652    1.3145 C   0  0  0  0  0  0  0  0  0  0  0  0
   -1.8029   -0.9929    0.7761 C   0  0  0  0  0  0  0  0  0  0  0  0
   -2.4585   -0.1356    1.5743 F   0  0  0  0  0  0  0  0  0  0  0  0
   -1.8730   -0.7700   -0.6095 C   0  0  0  0  0  0  0  0  0  0  0  0
   -2.5978    0.2800   -1.0278 F   0  0  0  0  0  0  0  0  0  0  0  0
   -1.2620   -1.6032   -1.5216 C   0  0  0  0  0  0  0  0  0  0  0  0
   -0.5530   -2.7180   -0.9974 C   0  0  0  0  0  0  0  0  0  0  0  0
    0.0984   -3.5422   -1.8381 N   0  0  0  0  0  0  0  0  0  0  0  0
    0.7660   -4.5610   -1.3601 C   0  0  0  0  0  0  0  0  0  0  0  0
    1.5211   -5.3798   -2.3623 C   0  0  0  0  0  0  0  0  0  0  0  0
    2.9395   -4.8256   -2.5232 C   0  0  0  0  0  0  0  0  0  0  0  0
    0.8029   -4.8092    0.0431 C   0  0  0  0  0  0  0  0  0  0  0  0
    0.1906   -4.0075    0.8762 N   0  0  0  0  0  0  0  0  0  0  0  0
   -0.4932   -2.9500    0.4020 C   0  0  0  0  0  0  0  0  0  0  0  0
    1.4860   -5.9947    0.6545 C   0  0  0  0  0  0  0  0  0  0  0  0
    0.5315   -7.1916    0.6890 C   0  0  0  0  0  0  0  0  0  0  0  0
   -1.3164   -1.3460   -2.9653 C   0  0  0  0  0  0  0  0  0  0  0  0
   -1.1070   -0.0487   -3.4504 C   0  0  0  0  0  0  0  0  0  0  0  0
   -1.1572    0.1626   -4.8087 C   0  0  0  0  0  0  0  0  0  0  0  0
   -0.9677    1.4290   -5.5670 C   0  0  0  0  0  0  0  0  0  0  0  0
   -0.7442    2.5301   -5.1300 O   0  0  0  0  0  0  0  0  0  0  0  0
   -1.1276    1.0274   -6.9938 C   0  0  0  0  0  0  0  0  0  0  0  0
   -1.4086   -0.3524   -7.0625 C   0  0  0  0  0  0  0  0  0  0  0  0
   -1.4156   -0.8904   -5.7075 C   0  0  0  0  0  0  0  0  0  0  0  0
   -1.6187   -2.1706   -5.2290 C   0  0  0  0  0  0  0  0  0  0  0  0
   -1.5652   -2.3866   -3.8588 C   0  0  0  0  0  0  0  0  0  0  0  0
   -1.6447   -0.9478   -8.2885 C   0  0  0  0  0  0  0  0  0  0  0  0
   -1.5826   -0.1626   -9.4285 C   0  0  0  0  0  0  0  0  0  0  0  0
   -1.2478    1.1961   -9.3732 C   0  0  0  0  0  0  0  0  0  0  0  0
   -1.0383    1.8029   -8.1227 C   0  0  0  0  0  0  0  0  0  0  0  0
   -1.1930    1.9483  -10.6034 C   0  0  0  0  0  0  0  0  0  0  0  0
   -0.3387    2.9590  -10.9007 C   0  0  0  0  0  0  0  0  0  0  0  0
    0.9064    3.2838  -10.1469 C   0  0  0  0  0  0  0  0  0  0  0  0
    1.3350    2.7572   -9.1479 O   0  0  0  0  0  0  0  0  0  0  0  0
    1.5828    4.3302  -10.9446 C   0  0  0  0  0  0  0  0  0  0  0  0
    2.7746    4.9687  -10.6645 C   0  0  0  0  0  0  0  0  0  0  0  0
    3.2317    5.9321  -11.5547 C   0  0  0  0  0  0  0  0  0  0  0  0
    4.7013    6.7748  -11.2632 Cl  0  0  0  0  0  0  0  0  0  0  0  0
    2.4807    6.2149  -12.7004 C   0  0  0  0  0  0  0  0  0  0  0  0
    2.9297    7.1389  -13.5568 F   0  0  0  0  0  0  0  0  0  0  0  0
    1.2874    5.5746  -12.9902 C   0  0  0  0  0  0  0  0  0  0  0  0
    0.8294    4.6174  -12.0955 C   0  0  0  0  0  0  0  0  0  0  0  0
   -0.3706    3.7884  -12.0997 C   0  0  0  0  0  0  0  0  0  0  0  0
   -1.3646    3.8342  -13.0380 C   0  0  0  0  0  0  0  0  0  0  0  0
   -2.5525    3.0704  -13.0144 C   0  0  0  0  0  0  0  0  0  0  0  0
   -3.5441    2.4949  -13.0690 N   0  0  0  0  0  0  0  0  0  0  0  0
   -1.3409    4.6718  -14.1754 C   0  0  0  0  0  0  0  0  0  0  0  0
   -1.3785    5.3204  -15.1208 N   0  0  0  0  0  0  0  0  0  0  0  0
    0.3668   -2.3587   11.6098 H   0  0  0  0  0  0  0  0  0  0  0  0
    1.5635    1.6025   14.8883 H   0  0  0  0  0  0  0  0  0  0  0  0
   -0.9916    3.7971   11.2148 H   0  0  0  0  0  0  0  0  0  0  0  0
    0.1975    0.0528    8.8168 H   0  0  0  0  0  0  0  0  0  0  0  0
   -1.1195   -4.6153    7.7088 H   0  0  0  0  0  0  0  0  0  0  0  0
   -0.7251   -3.9551   10.0475 H   0  0  0  0  0  0  0  0  0  0  0  0
   -1.4041   -4.7563    5.0693 H   0  0  0  0  0  0  0  0  0  0  0  0
   -1.5440   -4.3509    2.6417 H   0  0  0  0  0  0  0  0  0  0  0  0
   -0.5015   -0.2308    3.2108 H   0  0  0  0  0  0  0  0  0  0  0  0
    1.0035   -5.3055   -3.3194 H   0  0  0  0  0  0  0  0  0  0  0  0
    1.5614   -6.4257   -2.0597 H   0  0  0  0  0  0  0  0  0  0  0  0
    3.4887   -5.4112   -3.2560 H   0  0  0  0  0  0  0  0  0  0  0  0
    3.4800   -4.8549   -1.5794 H   0  0  0  0  0  0  0  0  0  0  0  0
    2.8968   -3.7937   -2.8625 H   0  0  0  0  0  0  0  0  0  0  0  0
    2.3858   -6.2533    0.0973 H   0  0  0  0  0  0  0  0  0  0  0  0
    1.7640   -5.7324    1.6759 H   0  0  0  0  0  0  0  0  0  0  0  0
    1.0243   -8.0494    1.1393 H   0  0  0  0  0  0  0  0  0  0  0  0
   -0.3492   -6.9484    1.2780 H   0  0  0  0  0  0  0  0  0  0  0  0
    0.2091   -7.4639   -0.3139 H   0  0  0  0  0  0  0  0  0  0  0  0
   -0.8975    0.7734   -2.7836 H   0  0  0  0  0  0  0  0  0  0  0  0
   -1.8184   -2.9918   -5.9006 H   0  0  0  0  0  0  0  0  0  0  0  0
   -1.7296   -3.3787   -3.4697 H   0  0  0  0  0  0  0  0  0  0  0  0
   -1.8819   -1.9981   -8.3628 H   0  0  0  0  0  0  0  0  0  0  0  0
   -1.7680   -0.6125  -10.3935 H   0  0  0  0  0  0  0  0  0  0  0  0
   -0.8468    2.8601   -8.0396 H   0  0  0  0  0  0  0  0  0  0  0  0
   -1.9061    1.6393  -11.3581 H   0  0  0  0  0  0  0  0  0  0  0  0
    3.3295    4.7257   -9.7722 H   0  0  0  0  0  0  0  0  0  0  0  0
    0.7613    5.8387  -13.8929 H   0  0  0  0  0  0  0  0  0  0  0  0
  1  2  2  0  0  0  0
  2  3  1  0  0  0  0
  3  4  2  0  0  0  0
  3  5  1  0  0  0  0
  5  6  2  0  0  0  0
  6  7  1  0  0  0  0
  7  8  1  0  0  0  0
  7  9  2  0  0  0  0
  9 10  1  0  0  0  0
  9 11  1  0  0  0  0
 11 12  2  0  0  0  0
 12 13  1  0  0  0  0
 13 14  2  0  0  0  0
 14 15  1  0  0  0  0
 15 16  3  0  0  0  0
 14 17  1  0  0  0  0
 17 18  3  0  0  0  0
  1 19  1  0  0  0  0
 19 20  2  0  0  0  0
 20 21  1  0  0  0  0
 21 22  1  0  0  0  0
 22 23  2  0  0  0  0
 22 24  1  0  0  0  0
 24 25  2  0  0  0  0
 25 26  1  0  0  0  0
 26 27  1  0  0  0  0
 27 28  2  0  0  0  0
 25 29  1  0  0  0  0
 29 30  2  0  0  0  0
 30 31  1  0  0  0  0
 31 32  2  0  0  0  0
 31 33  1  0  0  0  0
 33 34  2  0  0  0  0
 34 35  1  0  0  0  0
 34 36  1  0  0  0  0
 36 37  1  0  0  0  0
 36 38  2  0  0  0  0
 38 39  1  0  0  0  0
 39 40  2  0  0  0  0
 40 41  1  0  0  0  0
 41 42  1  0  0  0  0
 42 43  1  0  0  0  0
 41 44  2  0  0  0  0
 44 45  1  0  0  0  0
 45 46  2  0  0  0  0
 44 47  1  0  0  0  0
 47 48  1  0  0  0  0
 38 49  1  0  0  0  0
 49 50  2  0  0  0  0
 50 51  1  0  0  0  0
 51 52  1  0  0  0  0
 52 53  2  0  0  0  0
 52 54  1  0  0  0  0
 54 55  2  0  0  0  0
 55 56  1  0  0  0  0
 56 57  1  0  0  0  0
 57 58  2  0  0  0  0
 55 59  1  0  0  0  0
 59 60  2  0  0  0  0
 60 61  1  0  0  0  0
 61 62  2  0  0  0  0
 61 63  1  0  0  0  0
 63 64  2  0  0  0  0
 64 65  1  0  0  0  0
 65 66  2  0  0  0  0
 65 67  1  0  0  0  0
 67 68  2  0  0  0  0
 68 69  1  0  0  0  0
 69 70  1  0  0  0  0
 69 71  2  0  0  0  0
 71 72  1  0  0  0  0
 71 73  1  0  0  0  0
 73 74  2  0  0  0  0
 74 75  1  0  0  0  0
 75 76  2  0  0  0  0
 76 77  1  0  0  0  0
 77 78  3  0  0  0  0
 76 79  1  0  0  0  0
 79 80  3  0  0  0  0
 13  2  1  0  0  0  0
 28 19  1  0  0  0  0
 46 33  1  0  0  0  0
 58 49  1  0  0  0  0
 75 64  1  0  0  0  0
 12  5  1  0  0  0  0
 26 21  2  0  0  0  0
 46 39  1  0  0  0  0
 56 51  2  0  0  0  0
 74 67  1  0  0  0  0
 32 24  1  0  0  0  0
 62 54  1  0  0  0  0
  1 81  1  0  0  0  0
  6 82  1  0  0  0  0
 11 83  1  0  0  0  0
 20 84  1  0  0  0  0
 27 85  1  0  0  0  0
 28 86  1  0  0  0  0
 29 87  1  0  0  0  0
 30 88  1  0  0  0  0
 32 89  1  0  0  0  0
 42 90  1  0  0  0  0
 42 91  1  0  0  0  0
 43 92  1  0  0  0  0
 43 93  1  0  0  0  0
 43 94  1  0  0  0  0
 47 95  1  0  0  0  0
 47 96  1  0  0  0  0
 48 97  1  0  0  0  0
 48 98  1  0  0  0  0
 48 99  1  0  0  0  0
 50100  1  0  0  0  0
 57101  1  0  0  0  0
 58102  1  0  0  0  0
 59103  1  0  0  0  0
 60104  1  0  0  0  0
 62105  1  0  0  0  0
 63106  1  0  0  0  0
 68107  1  0  0  0  0
 73108  1  0  0  0  0
M  END
