92

C          1.14090        3.84780        6.69110
C          1.12580        2.97460        7.73770
C          0.68950        1.55770        7.65640
O          0.29690        0.94520        6.68920
C          0.68770        1.07050        9.05530
C          0.35910       -0.18790        9.51700
C          0.40710       -0.42270       10.88570
Cl         0.01850       -1.97060       11.52630
C          0.77450        0.61550       11.74550
F          0.81300        0.38400       13.06290
C          1.09920        1.88330       11.28990
C          1.05560        2.11270        9.92290
C          1.34210        3.30700        9.13360
C          1.80970        4.49570        9.62630
C          2.02000        4.75350       10.99810
N          2.20380        5.02500       12.09790
C          2.16910        5.61620        8.84570
N          2.50500        6.56310        8.29080
C          1.12590        3.49730        5.31170
C          1.76310        2.36430        4.76900
C          1.70830        2.04860        3.35330
N          2.42910        0.95680        3.06560
S          3.08740        0.40380        4.40860
N          2.53370        1.50060        5.43340
C          1.03150        2.85400        2.42700
C          0.44120        4.01110        2.95380
N         -0.27130        4.91910        2.27480
S         -0.75920        6.05830        3.27810
N         -0.14100        5.47360        4.63600
C          0.50870        4.33880        4.36450
C          0.93600        2.50060        1.02070
C          1.19290        3.41000        0.01400
F          1.60570        4.64940        0.31100
C          1.13810        3.05100       -1.34130
F          1.49930        3.97070       -2.24530
C          0.82080        1.76930       -1.74140
C          0.51590        0.81630       -0.72990
N          0.13450       -0.42200       -1.07490
C         -0.11110       -1.31230       -0.15270
C         -0.52100       -2.68330       -0.59720
C         -0.85670       -2.74930       -2.08130
C         -0.00850       -0.95920        1.22950
N          0.29750        0.26110        1.57760
C          0.58330        1.17610        0.63950
C         -0.31780       -1.91080        2.34390
C         -1.79690       -1.81850        2.73070
C          0.81320        1.36050       -3.13530
C          1.45350        0.18660       -3.55440
C          1.37240       -0.30140       -4.91720
N          2.12420       -1.39040       -5.09260
S          2.81510       -1.77430       -3.70190
N          2.24680       -0.58730       -2.80130
C          0.62590        0.36370       -5.90940
C          0.07180        1.59560       -5.50710
N         -0.64360        2.41990       -6.27620
S         -1.15360        3.65250       -5.38670
N         -0.53340        3.21750       -3.98380
C          0.14580        2.07430       -4.13930
C          0.46920       -0.11660       -7.23980
C          0.36080       -1.42830       -7.59430
C         -0.02310       -2.52230       -6.67240
O         -0.20940       -2.47030       -5.47900
C         -0.30250       -3.68650       -7.54770
C         -0.77160       -4.93600       -7.18230
Cl        -0.94120       -5.37530       -5.54410
C         -1.10880       -5.84330       -8.19600
Cl        -1.65310       -7.41280       -7.79220
C         -1.04130       -5.45160       -9.53240
Cl        -1.55320       -6.53880      -10.74900
C         -0.57570       -4.17760       -9.89780
Cl        -0.68770       -3.71090      -11.54360
C         -0.13720       -3.31730       -8.89830
C          0.43560       -1.97480       -8.93710
C          1.15570       -1.40180       -9.95020
C          1.73370       -0.11400       -9.85730
N          2.23450        0.91810       -9.86350
C          1.58580       -2.02680      -11.14100
N          2.06660       -2.46070      -12.08820
H          1.12330        4.91320        6.88530
H          0.07520       -0.96830        8.82920
H          1.36790        2.64150       12.00730
H         -1.38180       -3.00960       -0.00970
H          0.30290       -3.36870       -0.37360
H         -1.68180       -2.08200       -2.31360
H         -1.13920       -3.76160       -2.35740
H         -0.00860       -2.44970       -2.68730
H         -0.06740       -2.93170        2.05410
H          0.28580       -1.62540        3.20640
H         -2.01210       -2.50750        3.54320
H         -2.02880       -0.80890        3.06050
H         -2.44090       -2.06360        1.88850
H          0.37400        0.65150       -7.99720
