
  xtb     02112200323D
 energy: -269.962883359616 gnorm: 0.000446831689 xtb: 6.4.1 (unknown)
141154  0     0  0            999 V2000
   -6.8993   -4.7235    1.3281 C   0  0  0  0  0  0  0  0  0  0  0  0
   -7.1094   -5.4647    2.4628 C   0  0  0  0  0  0  0  0  0  0  0  0
   -8.1850   -6.4849    2.4577 C   0  0  0  0  0  0  0  0  0  0  0  0
   -9.0619   -6.6273    1.6361 O   0  0  0  0  0  0  0  0  0  0  0  0
   -7.9301   -7.3217    3.6566 C   0  0  0  0  0  0  0  0  0  0  0  0
   -8.5770   -8.4704    4.0616 C   0  0  0  0  0  0  0  0  0  0  0  0
   -8.1360   -9.1018    5.2195 C   0  0  0  0  0  0  0  0  0  0  0  0
   -8.8976  -10.5418    5.7764 Cl  0  0  0  0  0  0  0  0  0  0  0  0
   -7.0652   -8.5601    5.9310 C   0  0  0  0  0  0  0  0  0  0  0  0
   -6.6384   -9.1812    7.0395 F   0  0  0  0  0  0  0  0  0  0  0  0
   -6.4179   -7.3985    5.5367 C   0  0  0  0  0  0  0  0  0  0  0  0
   -6.8583   -6.7732    4.3827 C   0  0  0  0  0  0  0  0  0  0  0  0
   -6.4228   -5.5436    3.7215 C   0  0  0  0  0  0  0  0  0  0  0  0
   -5.6677   -4.5575    4.3102 C   0  0  0  0  0  0  0  0  0  0  0  0
   -5.0043   -4.6983    5.5431 C   0  0  0  0  0  0  0  0  0  0  0  0
   -4.4101   -4.7668    6.5238 N   0  0  0  0  0  0  0  0  0  0  0  0
   -5.5315   -3.2604    3.7857 C   0  0  0  0  0  0  0  0  0  0  0  0
   -5.4099   -2.1760    3.4257 N   0  0  0  0  0  0  0  0  0  0  0  0
   -5.7778   -3.9902    0.8978 C   0  0  0  0  0  0  0  0  0  0  0  0
   -5.9066   -3.1133   -0.2118 C   0  0  0  0  0  0  0  0  0  0  0  0
   -4.8456   -2.2413   -0.6690 C   0  0  0  0  0  0  0  0  0  0  0  0
   -5.2034   -1.5571   -1.7553 N   0  0  0  0  0  0  0  0  0  0  0  0
   -6.7120   -1.9512   -2.1537 S   0  0  0  0  0  4  0  0  0  0  0  0
   -6.9975   -2.9949   -0.9622 N   0  0  0  0  0  0  0  0  0  0  0  0
   -3.5763   -2.2096   -0.0429 C   0  0  0  0  0  0  0  0  0  0  0  0
   -3.3890   -3.2476    0.9041 C   0  0  0  0  0  0  0  0  0  0  0  0
   -2.2238   -3.5378    1.4747 N   0  0  0  0  0  0  0  0  0  0  0  0
   -2.4181   -4.7741    2.4849 S   0  0  0  0  0  0  0  0  0  0  0  0
   -3.9985   -4.9918    2.2626 N   0  0  0  0  0  0  0  0  0  0  0  0
   -4.4522   -4.1013    1.3799 C   0  0  0  0  0  0  0  0  0  0  0  0
   -2.5197   -1.3221   -0.3335 C   0  0  0  0  0  0  0  0  0  0  0  0
   -2.5168   -0.0801   -1.0031 C   0  0  0  0  0  0  0  0  0  0  0  0
   -3.5968    0.7158   -1.2801 N   0  0  0  0  0  0  0  0  0  0  0  0
   -3.5320    1.5429   -2.4141 C   0  0  0  0  0  0  0  0  0  0  0  0
   -3.0643    1.0287   -3.6201 C   0  0  0  0  0  0  0  0  0  0  0  0
   -2.9734    1.8315   -4.7390 C   0  0  0  0  0  0  0  0  0  0  0  0
   -3.3523    3.1667   -4.6673 C   0  0  0  0  0  0  0  0  0  0  0  0
   -3.2740    4.2916   -6.0187 S   0  0  0  0  0  0  0  0  0  0  0  0
   -2.4885    3.3340   -7.3453 C   0  0  0  0  0  0  0  0  0  0  0  0
   -3.8373    3.6791   -3.4628 C   0  0  0  0  0  0  0  0  0  0  0  0
   -3.9272    2.8790   -2.3473 C   0  0  0  0  0  0  0  0  0  0  0  0
   -4.7375    0.7308   -0.4764 C   0  0  0  0  0  0  0  0  0  0  0  0
   -5.9862    1.0066   -1.0338 C   0  0  0  0  0  0  0  0  0  0  0  0
   -7.1341    0.9049   -0.2760 C   0  0  0  0  0  0  0  0  0  0  0  0
   -7.0552    0.5405    1.0644 C   0  0  0  0  0  0  0  0  0  0  0  0
   -8.4486    0.2906    2.1011 S   0  0  0  0  0  0  0  0  0  0  0  0
   -9.8367    0.1923    0.9328 C   0  0  0  0  0  0  0  0  0  0  0  0
   -5.8001    0.3596    1.6502 C   0  0  0  0  0  0  0  0  0  0  0  0
   -4.6586    0.4563    0.8920 C   0  0  0  0  0  0  0  0  0  0  0  0
   -1.1892    0.3373   -1.2601 C   0  0  0  0  0  0  0  0  0  0  0  0
   -0.4972    1.7328   -2.0213 S   0  0  0  0  0  0  0  0  0  0  0  0
    1.1171    1.1506   -1.6552 C   0  0  0  0  0  0  0  0  0  0  0  0
    1.1083   -0.0164   -0.8985 C   0  0  0  0  0  0  0  0  0  0  0  0
    2.2052   -0.6010   -0.3079 N   0  0  0  0  0  0  0  0  0  0  0  0
    2.1678   -1.9796   -0.0371 C   0  0  0  0  0  0  0  0  0  0  0  0
    1.6777   -2.8709   -0.9913 C   0  0  0  0  0  0  0  0  0  0  0  0
    1.5639   -4.2092   -0.6916 C   0  0  0  0  0  0  0  0  0  0  0  0
    1.9421   -4.6868    0.5621 C   0  0  0  0  0  0  0  0  0  0  0  0
    1.6908   -6.4079    0.8492 S   0  0  0  0  0  0  0  0  0  0  0  0
    2.2653   -6.6613    2.5525 C   0  0  0  0  0  0  0  0  0  0  0  0
    2.4775   -3.8086    1.4954 C   0  0  0  0  0  0  0  0  0  0  0  0
    2.5892   -2.4652    1.1956 C   0  0  0  0  0  0  0  0  0  0  0  0
    3.3224    0.1545    0.0802 C   0  0  0  0  0  0  0  0  0  0  0  0
    4.6074   -0.3452   -0.1283 C   0  0  0  0  0  0  0  0  0  0  0  0
    5.7094    0.4269    0.1687 C   0  0  0  0  0  0  0  0  0  0  0  0
    5.5529    1.7087    0.6883 C   0  0  0  0  0  0  0  0  0  0  0  0
    7.0159    2.6604    0.9710 S   0  0  0  0  0  0  0  0  0  0  0  0
    6.5074    3.8064    2.2875 C   0  0  0  0  0  0  0  0  0  0  0  0
    4.2765    2.1948    0.9390 C   0  0  0  0  0  0  0  0  0  0  0  0
    3.1731    1.4190    0.6467 C   0  0  0  0  0  0  0  0  0  0  0  0
   -0.2169   -0.4853   -0.7169 C   0  0  0  0  0  0  0  0  0  0  0  0
   -0.9010   -1.8284    0.1361 S   0  0  0  0  0  0  0  0  0  0  0  0
    2.2774    1.8962   -2.0674 C   0  0  0  0  0  0  0  0  0  0  0  0
    2.3238    3.2872   -1.9703 C   0  0  0  0  0  0  0  0  0  0  0  0
    3.5058    3.9841   -2.1590 C   0  0  0  0  0  0  0  0  0  0  0  0
    3.6215    5.3232   -2.0829 O   0  0  0  0  0  0  0  0  0  0  0  0
    2.6078    6.1102   -1.4763 C   0  0  0  0  0  0  0  0  0  0  0  0
    2.5924    5.9372    0.0373 C   0  0  0  0  0  0  0  0  0  0  0  0
    4.7131    3.2672   -2.4315 C   0  0  0  0  0  0  0  0  0  0  0  0
    4.6231    1.8915   -2.6877 C   0  0  0  0  0  0  0  0  0  0  0  0
    3.4325    1.2403   -2.5227 C   0  0  0  0  0  0  0  0  0  0  0  0
    3.3612   -0.0796   -2.7985 F   0  0  0  0  0  0  0  0  0  0  0  0
    5.9304    3.9857   -2.2787 C   0  0  0  0  0  0  0  0  0  0  0  0
    7.2506    3.6448   -2.3739 C   0  0  0  0  0  0  0  0  0  0  0  0
    7.9015    2.4786   -3.0119 C   0  0  0  0  0  0  0  0  0  0  0  0
    7.4044    1.4745   -3.4739 O   0  0  0  0  0  0  0  0  0  0  0  0
    9.3487    2.7951   -3.0292 C   0  0  0  0  0  0  0  0  0  0  0  0
   10.3721    2.0493   -3.5780 C   0  0  0  0  0  0  0  0  0  0  0  0
   11.6659    2.5506   -3.5023 C   0  0  0  0  0  0  0  0  0  0  0  0
   12.9876    1.6755   -4.1684 Cl  0  0  0  0  0  0  0  0  0  0  0  0
   11.8882    3.7814   -2.8793 C   0  0  0  0  0  0  0  0  0  0  0  0
   13.1357    4.2626   -2.8198 F   0  0  0  0  0  0  0  0  0  0  0  0
   10.8660    4.5316   -2.3198 C   0  0  0  0  0  0  0  0  0  0  0  0
    9.5767    4.0277   -2.3968 C   0  0  0  0  0  0  0  0  0  0  0  0
    8.3023    4.5378   -1.9086 C   0  0  0  0  0  0  0  0  0  0  0  0
    8.1515    5.5950   -1.0501 C   0  0  0  0  0  0  0  0  0  0  0  0
    9.2172    6.4104   -0.6127 C   0  0  0  0  0  0  0  0  0  0  0  0
   10.0362    7.1161   -0.2274 N   0  0  0  0  0  0  0  0  0  0  0  0
    6.9521    5.9775   -0.4153 C   0  0  0  0  0  0  0  0  0  0  0  0
    6.0487    6.3360    0.1993 N   0  0  0  0  0  0  0  0  0  0  0  0
   -7.7147   -4.7517    0.6112 H   0  0  0  0  0  0  0  0  0  0  0  0
   -9.4030   -8.8674    3.4935 H   0  0  0  0  0  0  0  0  0  0  0  0
   -5.5957   -7.0293    6.1280 H   0  0  0  0  0  0  0  0  0  0  0  0
   -2.7842   -0.0124   -3.6772 H   0  0  0  0  0  0  0  0  0  0  0  0
   -2.6133    1.4023   -5.6594 H   0  0  0  0  0  0  0  0  0  0  0  0
   -1.5134    2.9837   -7.0201 H   0  0  0  0  0  0  0  0  0  0  0  0
   -3.1294    2.5088   -7.6417 H   0  0  0  0  0  0  0  0  0  0  0  0
   -2.3744    4.0252   -8.1746 H   0  0  0  0  0  0  0  0  0  0  0  0
   -4.1325    4.7159   -3.4170 H   0  0  0  0  0  0  0  0  0  0  0  0
   -4.2913    3.2821   -1.4144 H   0  0  0  0  0  0  0  0  0  0  0  0
   -6.0603    1.2460   -2.0837 H   0  0  0  0  0  0  0  0  0  0  0  0
   -8.0857    1.0954   -0.7454 H   0  0  0  0  0  0  0  0  0  0  0  0
  -10.0340    1.1656    0.4933 H   0  0  0  0  0  0  0  0  0  0  0  0
   -9.6186   -0.5514    0.1720 H   0  0  0  0  0  0  0  0  0  0  0  0
  -10.6923   -0.1225    1.5219 H   0  0  0  0  0  0  0  0  0  0  0  0
   -5.7377    0.1087    2.6961 H   0  0  0  0  0  0  0  0  0  0  0  0
   -3.6979    0.3014    1.3580 H   0  0  0  0  0  0  0  0  0  0  0  0
    1.3918   -2.5032   -1.9650 H   0  0  0  0  0  0  0  0  0  0  0  0
    1.1770   -4.9025   -1.4222 H   0  0  0  0  0  0  0  0  0  0  0  0
    3.3228   -6.4257    2.6275 H   0  0  0  0  0  0  0  0  0  0  0  0
    1.6743   -6.0602    3.2372 H   0  0  0  0  0  0  0  0  0  0  0  0
    2.1088   -7.7155    2.7586 H   0  0  0  0  0  0  0  0  0  0  0  0
    2.7978   -4.1522    2.4653 H   0  0  0  0  0  0  0  0  0  0  0  0
    2.9905   -1.7817    1.9294 H   0  0  0  0  0  0  0  0  0  0  0  0
    4.7302   -1.3303   -0.5512 H   0  0  0  0  0  0  0  0  0  0  0  0
    6.7035    0.0505   -0.0147 H   0  0  0  0  0  0  0  0  0  0  0  0
    5.9098    4.6158    1.8773 H   0  0  0  0  0  0  0  0  0  0  0  0
    5.9665    3.2559    3.0506 H   0  0  0  0  0  0  0  0  0  0  0  0
    7.4275    4.2088    2.7000 H   0  0  0  0  0  0  0  0  0  0  0  0
    4.1354    3.1787    1.3571 H   0  0  0  0  0  0  0  0  0  0  0  0
    2.1827    1.8005    0.8484 H   0  0  0  0  0  0  0  0  0  0  0  0
    1.4149    3.7957   -1.6895 H   0  0  0  0  0  0  0  0  0  0  0  0
    1.6283    5.8951   -1.9183 H   0  0  0  0  0  0  0  0  0  0  0  0
    2.8855    7.1356   -1.7315 H   0  0  0  0  0  0  0  0  0  0  0  0
    2.3255    4.9178    0.3077 H   0  0  0  0  0  0  0  0  0  0  0  0
    1.8716    6.6200    0.4774 H   0  0  0  0  0  0  0  0  0  0  0  0
    3.5806    6.1598    0.4326 H   0  0  0  0  0  0  0  0  0  0  0  0
    5.4962    1.3372   -2.9911 H   0  0  0  0  0  0  0  0  0  0  0  0
    5.7507    5.0046   -1.9555 H   0  0  0  0  0  0  0  0  0  0  0  0
   10.1686    1.1030   -4.0532 H   0  0  0  0  0  0  0  0  0  0  0  0
   11.1045    5.4747   -1.8557 H   0  0  0  0  0  0  0  0  0  0  0  0
  1  2  2  0  0  0  0
  2  3  1  0  0  0  0
  3  4  2  0  0  0  0
  3  5  1  0  0  0  0
  5  6  2  0  0  0  0
  6  7  1  0  0  0  0
  7  8  1  0  0  0  0
  7  9  2  0  0  0  0
  9 10  1  0  0  0  0
  9 11  1  0  0  0  0
 11 12  2  0  0  0  0
 12 13  1  0  0  0  0
 13 14  2  0  0  0  0
 14 15  1  0  0  0  0
 15 16  3  0  0  0  0
 14 17  1  0  0  0  0
 17 18  3  0  0  0  0
  1 19  1  0  0  0  0
 19 20  2  0  0  0  0
 20 21  1  0  0  0  0
 21 22  1  0  0  0  0
 22 23  2  0  0  0  0
 23 24  2  0  0  0  0
 21 25  2  0  0  0  0
 25 26  1  0  0  0  0
 26 27  2  0  0  0  0
 27 28  1  0  0  0  0
 28 29  1  0  0  0  0
 29 30  2  0  0  0  0
 25 31  1  0  0  0  0
 31 32  2  0  0  0  0
 32 33  1  0  0  0  0
 33 34  1  0  0  0  0
 34 35  2  0  0  0  0
 35 36  1  0  0  0  0
 36 37  2  0  0  0  0
 37 38  1  0  0  0  0
 38 39  1  0  0  0  0
 37 40  1  0  0  0  0
 40 41  2  0  0  0  0
 33 42  1  0  0  0  0
 42 43  2  0  0  0  0
 43 44  1  0  0  0  0
 44 45  2  0  0  0  0
 45 46  1  0  0  0  0
 46 47  1  0  0  0  0
 45 48  1  0  0  0  0
 48 49  2  0  0  0  0
 32 50  1  0  0  0  0
 50 51  1  0  0  0  0
 51 52  1  0  0  0  0
 52 53  2  0  0  0  0
 53 54  1  0  0  0  0
 54 55  1  0  0  0  0
 55 56  2  0  0  0  0
 56 57  1  0  0  0  0
 57 58  2  0  0  0  0
 58 59  1  0  0  0  0
 59 60  1  0  0  0  0
 58 61  1  0  0  0  0
 61 62  2  0  0  0  0
 54 63  1  0  0  0  0
 63 64  2  0  0  0  0
 64 65  1  0  0  0  0
 65 66  2  0  0  0  0
 66 67  1  0  0  0  0
 67 68  1  0  0  0  0
 66 69  1  0  0  0  0
 69 70  2  0  0  0  0
 53 71  1  0  0  0  0
 71 72  1  0  0  0  0
 52 73  1  0  0  0  0
 73 74  2  0  0  0  0
 74 75  1  0  0  0  0
 75 76  1  0  0  0  0
 76 77  1  0  0  0  0
 77 78  1  0  0  0  0
 75 79  2  0  0  0  0
 79 80  1  0  0  0  0
 80 81  2  0  0  0  0
 81 82  1  0  0  0  0
 79 83  1  0  0  0  0
 83 84  2  0  0  0  0
 84 85  1  0  0  0  0
 85 86  2  0  0  0  0
 85 87  1  0  0  0  0
 87 88  2  0  0  0  0
 88 89  1  0  0  0  0
 89 90  1  0  0  0  0
 89 91  2  0  0  0  0
 91 92  1  0  0  0  0
 91 93  1  0  0  0  0
 93 94  2  0  0  0  0
 94 95  1  0  0  0  0
 95 96  2  0  0  0  0
 96 97  1  0  0  0  0
 97 98  3  0  0  0  0
 96 99  1  0  0  0  0
 99100  3  0  0  0  0
 13  2  1  0  0  0  0
 30 19  1  0  0  0  0
 72 31  1  0  0  0  0
 81 73  1  0  0  0  0
 95 84  1  0  0  0  0
 12  5  1  0  0  0  0
 24 20  1  0  0  0  0
 30 26  1  0  0  0  0
 41 34  1  0  0  0  0
 49 42  1  0  0  0  0
 71 50  2  0  0  0  0
 94 87  1  0  0  0  0
 62 55  1  0  0  0  0
 70 63  1  0  0  0  0
  1101  1  0  0  0  0
  6102  1  0  0  0  0
 11103  1  0  0  0  0
 35104  1  0  0  0  0
 36105  1  0  0  0  0
 39106  1  0  0  0  0
 39107  1  0  0  0  0
 39108  1  0  0  0  0
 40109  1  0  0  0  0
 41110  1  0  0  0  0
 43111  1  0  0  0  0
 44112  1  0  0  0  0
 47113  1  0  0  0  0
 47114  1  0  0  0  0
 47115  1  0  0  0  0
 48116  1  0  0  0  0
 49117  1  0  0  0  0
 56118  1  0  0  0  0
 57119  1  0  0  0  0
 60120  1  0  0  0  0
 60121  1  0  0  0  0
 60122  1  0  0  0  0
 61123  1  0  0  0  0
 62124  1  0  0  0  0
 64125  1  0  0  0  0
 65126  1  0  0  0  0
 68127  1  0  0  0  0
 68128  1  0  0  0  0
 68129  1  0  0  0  0
 69130  1  0  0  0  0
 70131  1  0  0  0  0
 74132  1  0  0  0  0
 77133  1  0  0  0  0
 77134  1  0  0  0  0
 78135  1  0  0  0  0
 78136  1  0  0  0  0
 78137  1  0  0  0  0
 80138  1  0  0  0  0
 83139  1  0  0  0  0
 88140  1  0  0  0  0
 93141  1  0  0  0  0
M  END
