190

C         -6.76190        4.76710       -7.24650
C         -7.68350        4.14410       -8.07050
C         -7.42730        2.88350       -8.77490
O         -6.42260        2.19810       -8.73480
C         -8.60570        2.67750       -9.65360
C         -8.85930        1.63890      -10.52270
C        -10.05750        1.64890      -11.22920
Cl       -10.44320        0.36950      -12.31570
C        -10.95160        2.70290      -11.04880
F        -12.10380        2.70650      -11.73470
C        -10.69810        3.75600      -10.18160
C         -9.50910        3.73790       -9.47440
C         -8.96000        4.65430       -8.47650
C         -9.62800        5.70920       -7.90210
C        -10.93470        6.09680       -8.24960
N        -12.00550        6.44410       -8.47910
C         -9.11910        6.47250       -6.83330
N         -8.77990        7.10960       -5.93950
C         -5.75660        4.13750       -6.51910
C         -5.62330        2.80150       -6.07130
N         -6.56510        1.81790       -6.11950
C         -7.94200        2.07320       -6.15170
C         -8.50180        3.12600       -5.42790
C         -9.85390        3.38050       -5.50900
C        -10.68940        2.60100       -6.30710
C        -12.14570        2.92370       -6.41650
C        -10.13250        1.52480       -6.98450
C         -8.77830        1.25680       -6.91040
C         -6.14090        0.47130       -6.05210
C         -6.73430       -0.40220       -5.14680
C         -6.29220       -1.70730       -5.06300
C         -5.26020       -2.16920       -5.87340
C         -4.79170       -3.58760       -5.77020
C         -4.69440       -1.29270       -6.79150
C         -5.12580        0.01600       -6.88640
C         -4.38800        2.63070       -5.40710
S         -3.64830        1.29920       -4.58920
C         -2.32050        2.32320       -4.04340
C         -2.47570        3.64170       -4.45860
N         -1.64680        4.71720       -4.17490
C         -1.30810        5.04830       -2.85920
C         -0.13290        5.75010       -2.59460
C          0.21080        6.06520       -1.29650
C         -0.59290        5.68890       -0.22640
C         -0.22530        6.04980        1.18030
C         -1.76160        4.98800       -0.49770
C         -2.12300        4.67420       -1.79260
C         -1.40150        5.61430       -5.23030
C         -1.11280        5.11330       -6.49710
C         -0.89940        5.97510       -7.55430
C         -0.95730        7.35170       -7.37840
C         -0.74900        8.28630       -8.52990
C         -1.23980        7.84290       -6.10850
C         -1.46540        6.99250       -5.04530
C         -3.63990        3.78730       -5.25310
S         -4.40870        5.15240       -5.97310
C         -1.31160        1.67540       -3.27780
C         -1.29720        0.33410       -2.99380
C         -0.22230       -0.07120       -2.17300
C          0.05360       -1.35090       -1.67110
C         -0.79170       -2.53990       -2.01470
C         -2.01250       -2.62340       -1.09610
C          1.10570       -1.44070       -0.78190
C          1.90060       -0.33320       -0.38190
C          1.67390        0.92950       -0.94830
C          2.47140        2.14060       -0.56920
C          1.83210        2.85450        0.62350
C          0.61130        1.02280       -1.82600
S          0.06800        2.49900       -2.58200
C          2.83530       -0.69520        0.62080
C          2.78160       -2.01370        0.96970
S          1.58610       -2.89820        0.04630
C          3.49620       -2.68030        2.01210
C          4.08990       -2.11610        3.10540
C          4.60300       -3.06410        4.02290
C          5.22540       -2.82660        5.26070
C          5.38010       -1.47240        5.80830
C          6.61130       -1.04440        6.29510
C          6.72820        0.22310        6.82960
F          7.93470        0.61140        7.28920
C          5.66560        1.11550        6.91830
C          5.82770        2.49940        7.47270
C          6.26560        3.47090        6.37390
C          4.45340        0.64910        6.42120
F          3.37980        1.46340        6.47160
C          4.29000       -0.61010        5.87930
C          5.63930       -3.94000        5.97230
C          5.47580       -5.26930        5.50610
C          4.86450       -5.50660        4.26280
C          4.71760       -6.86700        3.72960
C          3.48870       -7.32690        3.26880
C          3.39210       -8.60410        2.75290
C          4.47440       -9.47180        2.65300
C          4.33920      -10.86570        2.11700
C          4.03030      -11.84740        3.25010
C          5.68370       -8.97350        3.12540
C          5.82530       -7.70700        3.65560
F          6.77690       -9.76020        3.05660
F          2.18860       -9.02640        2.31930
C          4.41840       -4.39550        3.56610
S          3.58750       -4.42660        2.03530
C          5.90170       -6.22020        6.46260
C          6.32700       -5.66720        7.63890
S          6.32220       -3.91060        7.57380
C          6.76450       -6.37290        8.79530
C          6.71420       -5.96320       10.08690
C          7.56780       -6.61820       11.12000
O          8.15680       -7.66790       11.01100
C          7.57810       -5.67900       12.25800
C          8.29800       -5.74090       13.41660
C          8.16660       -4.70360       14.36670
C          8.88240       -4.72310       15.58150
C          8.75480       -3.71040       16.49090
C          7.89640       -2.64120       16.19960
F          7.78580       -1.65320       17.10540
C          7.17790       -2.57340       15.03860
C          7.29420       -3.60970       14.09190
C          6.55270       -3.57580       12.88840
C          6.68590       -4.59970       11.99040
C          6.02160       -4.85590       10.71750
C          4.81330       -4.33900       10.33360
C          4.05750       -4.84850        9.25630
N          3.38710       -5.27880        8.42970
C          4.14490       -3.31140       11.02930
N          3.57210       -2.46450       11.55070
H         -6.79110        5.84720       -7.16860
H         -8.15090        0.83530      -10.64540
H        -11.42620        4.54550      -10.09100
H         -7.87460        3.74600       -4.80500
H        -10.27100        4.20510       -4.94950
H        -12.63550        2.27450       -7.13730
H        -12.63410        2.80240       -5.45020
H        -12.28540        3.95830       -6.72770
H        -10.76190        0.89360       -7.59440
H         -8.35620        0.42370       -7.45190
H         -7.52950       -0.04950       -4.50630
H         -6.74910       -2.37790       -4.34990
H         -3.79770       -3.70140       -6.19500
H         -4.77300       -3.91280       -4.73210
H         -5.47050       -4.24580       -6.31320
H         -3.90570       -1.63880       -7.44330
H         -4.70370        0.69070       -7.61460
H          0.51190        6.03260       -3.41300
H          1.12720        6.60600       -1.10940
H         -0.50130        5.25570        1.87070
H         -0.75350        6.95460        1.48300
H          0.84200        6.23750        1.26690
H         -2.40360        4.68720        0.31780
H         -3.04040        4.13570       -1.98150
H         -1.05580        4.04450       -6.64640
H         -0.67940        5.57000       -8.53140
H         -0.22270        9.18320       -8.21100
H         -0.18140        7.80620       -9.32330
H         -1.71250        8.59150       -8.93940
H         -1.29670        8.91040       -5.95260
H         -1.70230        7.39060       -4.07010
H         -2.06160       -0.33310       -3.35080
H         -1.11870       -2.47410       -3.05370
H         -0.19400       -3.44710       -1.89920
H         -2.61560       -3.49160       -1.34940
H         -2.62590       -1.73070       -1.19460
H         -1.69660       -2.71220       -0.05940
H          3.49550        1.85500       -0.32520
H          2.49910        2.82690       -1.41890
H          1.77370        2.18840        1.48150
H          0.82730        3.18120        0.36680
H          2.41870        3.72740        0.89800
H          3.52130       -0.00320        1.07420
H          4.14100       -1.05440        3.26080
H          7.48150       -1.67930        6.24730
H          6.58000        2.48510        8.26300
H          4.87910        2.83290        7.89590
H          7.21650        3.15860        5.94800
H          6.38160        4.46990        6.78550
H          5.52250        3.50680        5.58020
H          3.31330       -0.92020        5.54340
H          2.60460       -6.71290        3.32700
H          5.27080      -11.15760        1.62930
H          3.53310      -10.89400        1.38240
H          3.92790      -12.85360        2.85270
H          4.83260      -11.84450        3.98440
H          3.10200      -11.57380        3.74660
H          6.79800       -7.37460        3.98230
H          5.82080       -7.28270        6.31940
H          7.24490       -7.33030        8.61890
H          8.96000       -6.57230       13.60720
H          9.53790       -5.55680       15.78350
H          9.29500       -3.71040       17.42430
H          6.52280       -1.73740       14.84920
H          5.90310       -2.73550       12.70050
