244

C         -8.25360        1.14290        3.33720
C         -9.36490        0.34730        3.12200
C         -9.37750       -1.10910        3.02000
O         -8.43190       -1.87860        3.00850
C        -10.80540       -1.49960        2.97290
C        -11.34670       -2.76420        2.88150
C        -12.73140       -2.88700        2.85670
Cl       -13.47180       -4.43720        2.74320
C        -13.52100       -1.73940        2.92350
F        -14.85500       -1.86470        2.90170
C        -12.98150       -0.46400        3.01080
C        -11.60220       -0.34440        3.03650
C        -10.72410        0.82480        3.09800
C        -11.15170        2.13210        3.08300
C        -10.31920        3.26220        2.98220
N         -9.71790        4.23490        2.86090
C        -12.50570        2.51790        3.12540
N        -13.58790        2.89940        3.17730
C         -6.90370        0.81870        3.32670
C         -5.86670        1.75880        3.58040
N         -6.04510        3.06870        3.95590
C         -5.28550        4.05760        3.30200
C         -4.83310        5.18540        3.98230
C         -4.15740        6.17890        3.30300
C         -3.89390        6.07100        1.94090
C         -3.20180        7.18030        1.21320
C         -4.31460        4.92450        1.27990
C         -5.00960        3.93260        1.94310
C         -7.00040        3.43290        4.91830
C         -7.25920        2.58420        5.99290
C         -8.21280        2.92360        6.93140
C         -8.91820        4.11740        6.83750
C         -9.96520        4.48570        7.84260
C         -8.63350        4.96980        5.77660
C         -7.69300        4.63840        4.82260
C         -4.61200        1.19720        3.31960
S         -2.98480        1.78520        3.43370
C         -2.36330        0.25410        2.80940
C         -3.38600       -0.64450        2.49820
N         -3.25990       -1.84920        1.82290
C         -2.39800       -2.01000        0.73380
C         -1.93530       -0.92660       -0.01040
C         -1.04400       -1.11690       -1.05040
C         -0.61290       -2.38460       -1.41010
C          0.38580       -2.59230       -2.50680
C         -1.12480       -3.46870       -0.70210
C         -1.98730       -3.29060        0.35940
C         -4.25500       -2.81980        2.07160
C         -4.62470       -3.10040        3.38370
C         -5.61540       -4.02190        3.64960
C         -6.27410       -4.67890        2.61800
C         -7.38140       -5.63810        2.92230
C         -5.90320       -4.39160        1.31120
C         -4.90880       -3.47410        1.03320
C         -4.64990       -0.11290        2.85410
S         -6.25750       -0.74530        2.81900
C         -0.97470        0.20820        2.53370
C         -0.10590       -0.85110        2.27070
N         -0.18360       -2.14610        2.71950
C          1.04410       -2.88600        2.66940
C          1.36300       -3.72720        1.61230
C          2.58000       -4.37830        1.59660
C          3.48810       -4.20710        2.63930
S          5.02530       -5.05870        2.51010
C          5.93840       -4.57670        4.00200
C          3.15540       -3.38900        3.71090
C          1.94020       -2.73390        3.71940
C         -1.01410       -2.57470        3.77650
C         -1.33560       -3.93280        3.82480
C         -2.08270       -4.44040        4.86150
C         -2.52650       -3.60450        5.88520
S         -3.51000       -4.34680        7.14790
C         -4.28080       -2.92310        7.97230
C         -2.17890       -2.26100        5.86230
C         -1.42540       -1.75230        4.81920
C          0.99080       -0.38640        1.49630
S          2.09980       -1.18690        0.44580
C          2.70510        0.35980       -0.15640
C          2.19410        1.43380        0.57830
N          2.74180        2.70070        0.65720
C          4.13470        2.90240        0.59310
C          5.05630        1.89870        0.87460
C          6.41460        2.15480        0.84260
C          6.88100        3.42500        0.53400
S          8.59130        3.84070        0.42660
C          9.40150        2.22450        0.23920
C          5.96210        4.44250        0.28310
C          4.61150        4.18460        0.30960
C          1.98740        3.69880        1.31250
C          2.49830        4.33940        2.44100
C          1.72120        5.24210        3.13520
C          0.42790        5.51090        2.71260
S         -0.62210        6.54610        3.72030
C         -1.26490        5.21820        4.78460
C         -0.07110        4.92020        1.56610
C          0.70540        4.01080        0.87020
C          1.11280        0.99010        1.39050
S         -0.21540        1.77170        2.17710
C          3.54350        0.25710       -1.29750
C          3.96340        1.17100       -2.26360
N          3.66200        2.52750       -2.35560
C          2.33920        2.97920       -2.31610
C          1.26460        2.10680       -2.48860
C         -0.03080        2.58630       -2.50790
C         -0.30430        3.94200       -2.36820
C         -1.71670        4.44060       -2.39230
C          0.76870        4.80610       -2.18370
C          2.06560        4.33660       -2.14180
C          4.67840        3.33450       -2.91260
C          5.99450        3.13680       -2.49910
C          7.01600        3.90490       -3.01530
C          6.76230        4.88970       -3.96250
C          7.88080        5.71610       -4.51660
C          5.45480        5.05690       -4.39880
C          4.42400        4.28840       -3.89300
C          4.72090        0.52610       -3.26930
S          5.46710        1.10160       -4.71080
C          5.96660       -0.54050       -5.14100
C          5.43080       -1.49870       -4.24320
N          5.38490       -2.84680       -4.45710
C          5.05300       -3.74420       -3.40850
C          5.80090       -3.81000       -2.23880
C          5.54050       -4.80360       -1.31280
C          4.53920       -5.74290       -1.52790
C          4.34520       -6.89860       -0.59720
C          3.74980       -5.61980       -2.66630
C          3.99950       -4.63460       -3.59800
C          5.35660       -3.40790       -5.75030
C          5.91140       -4.67080       -5.95250
C          5.89970       -5.24580       -7.20800
C          5.35470       -4.57840       -8.29700
C          5.37510       -5.17860       -9.66670
C          4.76650       -3.33630       -8.07870
C          4.75270       -2.76060       -6.82500
C          4.80760       -0.85500       -3.15600
S          4.02560       -1.39430       -1.71000
C          6.78460       -0.64690       -6.26070
C          7.57020       -1.69160       -6.70870
C          7.88310       -1.79240       -8.14500
O          7.64920       -0.98130       -9.01460
C          8.48820       -3.13740       -8.31460
C          8.87250       -3.77030       -9.47780
C          9.39760       -5.04910       -9.37120
F          9.76420       -5.71030      -10.48000
C          9.54440       -5.65530       -8.12630
F         10.04990       -6.89540       -8.05320
C          9.16900       -5.01370       -6.95450
C          8.62150       -3.74720       -7.05680
C          8.12060       -2.82450       -6.03470
C          8.34050       -2.94060       -4.67650
C          8.17850       -1.87680       -3.77660
N          8.10390       -1.02650       -3.00540
C          8.81110       -4.10830       -4.05310
N          9.13780       -5.05310       -3.48580
H         -8.45840        2.18530        3.54570
H        -10.71130       -3.63350        2.82610
H        -13.64870        0.38110        3.05700
H         -5.02640        5.28150        5.04050
H         -3.82270        7.05700        3.83490
H         -3.86120        8.04520        1.14420
H         -2.30630        7.48950        1.74950
H         -2.92910        6.87820        0.20480
H         -4.12170        4.81550        0.22200
H         -5.36420        3.06650        1.40310
H         -6.71520        1.65470        6.08100
H         -8.40670        2.25070        7.75440
H        -10.02830        3.74200        8.63290
H         -9.74120        5.45320        8.28960
H        -10.93880        4.56260        7.35940
H         -9.17220        5.90050        5.68330
H         -7.50680        5.30070        3.99260
H         -2.28280        0.07090        0.21210
H         -0.67990       -0.25580       -1.59170
H          0.46910       -1.70480       -3.12990
H          1.36900       -2.80470       -2.08260
H          0.10330       -3.43610       -3.13330
H         -0.83440       -4.47110       -0.98650
H         -2.34960       -4.14450        0.91160
H         -4.13600       -2.57440        4.18800
H         -5.88880       -4.22860        4.67360
H         -7.08180       -6.34150        3.69730
H         -8.24480       -5.08410        3.28940
H         -7.67680       -6.19280        2.03540
H         -6.41120       -4.88010        0.49220
H         -4.64890       -3.24920        0.00910
H          0.66640       -3.84830        0.79900
H          2.84420       -5.01090        0.76540
H          6.89630       -5.08260        3.93040
H          6.09030       -3.50130        4.01350
H          5.41020       -4.91440        4.88890
H          3.83100       -3.24420        4.53810
H          1.68460       -2.08760        4.54720
H         -0.98730       -4.58470        3.03890
H         -2.34000       -5.48760        4.89020
H         -4.74610       -2.28150        7.22980
H         -3.54650       -2.38000        8.56040
H         -5.03840       -3.33910        8.62910
H         -2.47580       -1.59560        6.65760
H         -1.13470       -0.71410        4.84700
H          4.72220        0.90970        1.14770
H          7.09760        1.35170        1.06890
H         10.42650        2.44150       -0.04530
H          8.91120        1.65710       -0.54640
H          9.39260        1.68410        1.18140
H          6.32340        5.43290        0.05450
H          3.90880        4.98020        0.11710
H          3.49420        4.10560        2.78710
H          2.10400        5.72130        4.02350
H         -0.43640        4.74620        5.30490
H         -1.94040        5.68290        5.49410
H         -1.79760        4.49410        4.17450
H         -1.07450        5.14150        1.23930
H          0.31410        3.51990       -0.00430
H          1.44520        1.05260       -2.63700
H         -0.85070        1.89610       -2.65170
H         -2.19620        4.18810       -3.33760
H         -2.29510        3.97670       -1.59310
H         -1.74780        5.51980       -2.26510
H          0.58810        5.86360       -2.05660
H          2.87890        5.02790       -1.98670
H          6.20720        2.36340       -1.77790
H          8.02790        3.74150       -2.67580
H          7.50090        6.60530       -5.01320
H          8.44860        5.13510       -5.24380
H          8.56370        6.01670       -3.72460
H          5.23560        5.79430       -5.15750
H          3.42190        4.42060       -4.27230
H          6.60330       -3.10810       -2.07120
H          6.14340       -4.86670       -0.42010
H          4.91820       -7.75200       -0.96160
H          4.69800       -6.66310        0.40290
H          3.29980       -7.19720       -0.55250
H          2.94260       -6.31760       -2.83570
H          3.39480       -4.56160       -4.49030
H          6.35700       -5.19750       -5.12120
H          6.33820       -6.22330       -7.34380
H          6.08650       -5.99830       -9.72260
H          5.64080       -4.42710      -10.40710
H          4.38830       -5.56440       -9.92320
H          4.30970       -2.81190       -8.90450
H          4.27040       -1.80610       -6.67970
H          6.76910        0.21290       -6.92440
H          8.76990       -3.29460      -10.43990
H          9.29870       -5.52350       -6.01370
