
  xtb     02112209573D
 energy: -337.696019478567 gnorm: 0.000658963701 xtb: 6.4.1 (unknown)
196213  0     0  0            999 V2000
   -5.5142   -2.4055    3.0337 C   0  0  0  0  0  0  0  0  0  0  0  0
   -6.1940   -1.2546    3.3392 C   0  0  0  0  0  0  0  0  0  0  0  0
   -5.4897   -0.0006    3.6770 C   0  0  0  0  0  0  0  0  0  0  0  0
   -4.2928    0.1771    3.7378 O   0  0  0  0  0  0  0  0  0  0  0  0
   -6.5515    0.9444    4.0879 C   0  0  0  0  0  0  0  0  0  0  0  0
   -6.4208    2.2665    4.4567 C   0  0  0  0  0  0  0  0  0  0  0  0
   -7.5720    2.9782    4.7694 C   0  0  0  0  0  0  0  0  0  0  0  0
   -7.4822    4.6413    5.1981 Cl  0  0  0  0  0  0  0  0  0  0  0  0
   -8.8101    2.3334    4.7276 C   0  0  0  0  0  0  0  0  0  0  0  0
   -9.9142    3.0254    5.0377 F   0  0  0  0  0  0  0  0  0  0  0  0
   -8.9463    0.9994    4.3756 C   0  0  0  0  0  0  0  0  0  0  0  0
   -7.7979    0.2970    4.0458 C   0  0  0  0  0  0  0  0  0  0  0  0
   -7.6003   -1.0807    3.6011 C   0  0  0  0  0  0  0  0  0  0  0  0
   -8.5846   -2.0054    3.3590 C   0  0  0  0  0  0  0  0  0  0  0  0
   -8.3381   -3.2829    2.8158 C   0  0  0  0  0  0  0  0  0  0  0  0
   -8.1972   -4.3227    2.3493 N   0  0  0  0  0  0  0  0  0  0  0  0
   -9.9547   -1.7833    3.6004 C   0  0  0  0  0  0  0  0  0  0  0  0
  -11.0798   -1.6568    3.7908 N   0  0  0  0  0  0  0  0  0  0  0  0
   -4.2714   -2.3947    2.3638 C   0  0  0  0  0  0  0  0  0  0  0  0
   -3.9599   -1.6431    1.2260 C   0  0  0  0  0  0  0  0  0  0  0  0
   -4.8039   -0.7368    0.5821 N   0  0  0  0  0  0  0  0  0  0  0  0
   -4.8027    0.6219    0.9359 C   0  0  0  0  0  0  0  0  0  0  0  0
   -3.6473    1.2343    1.4147 C   0  0  0  0  0  0  0  0  0  0  0  0
   -3.6690    2.5692    1.7690 C   0  0  0  0  0  0  0  0  0  0  0  0
   -4.8294    3.3257    1.6494 C   0  0  0  0  0  0  0  0  0  0  0  0
   -4.8312    4.7754    2.0248 C   0  0  0  0  0  0  0  0  0  0  0  0
   -5.9760    2.7055    1.1670 C   0  0  0  0  0  0  0  0  0  0  0  0
   -5.9707    1.3687    0.8188 C   0  0  0  0  0  0  0  0  0  0  0  0
   -5.2567   -1.1362   -0.6874 C   0  0  0  0  0  0  0  0  0  0  0  0
   -5.6380   -2.4626   -0.8882 C   0  0  0  0  0  0  0  0  0  0  0  0
   -6.0802   -2.8770   -2.1276 C   0  0  0  0  0  0  0  0  0  0  0  0
   -6.1571   -1.9919   -3.1978 C   0  0  0  0  0  0  0  0  0  0  0  0
   -6.6528   -2.4566   -4.5323 C   0  0  0  0  0  0  0  0  0  0  0  0
   -5.7762   -0.6728   -2.9881 C   0  0  0  0  0  0  0  0  0  0  0  0
   -5.3291   -0.2453   -1.7540 C   0  0  0  0  0  0  0  0  0  0  0  0
   -2.7446   -2.0728    0.6662 C   0  0  0  0  0  0  0  0  0  0  0  0
   -1.8321   -1.5244   -0.6881 S   0  0  0  0  0  0  0  0  0  0  0  0
   -0.5054   -2.5990   -0.2373 C   0  0  0  0  0  0  0  0  0  0  0  0
   -0.8135   -3.4155    0.8473 C   0  0  0  0  0  0  0  0  0  0  0  0
   -0.0519   -4.4386    1.3731 N   0  0  0  0  0  0  0  0  0  0  0  0
    0.6239   -5.3824    0.5965 C   0  0  0  0  0  0  0  0  0  0  0  0
    0.4239   -5.4854   -0.7793 C   0  0  0  0  0  0  0  0  0  0  0  0
    1.0941   -6.4422   -1.5147 C   0  0  0  0  0  0  0  0  0  0  0  0
    1.9645   -7.3415   -0.9122 C   0  0  0  0  0  0  0  0  0  0  0  0
    2.6939   -8.3667   -1.7267 C   0  0  0  0  0  0  0  0  0  0  0  0
    2.1449   -7.2475    0.4611 C   0  0  0  0  0  0  0  0  0  0  0  0
    1.4987   -6.2821    1.2050 C   0  0  0  0  0  0  0  0  0  0  0  0
   -0.1741   -4.6186    2.7729 C   0  0  0  0  0  0  0  0  0  0  0  0
   -0.5960   -5.8266    3.3173 C   0  0  0  0  0  0  0  0  0  0  0  0
   -0.7230   -5.9585    4.6862 C   0  0  0  0  0  0  0  0  0  0  0  0
   -0.4463   -4.8964    5.5388 C   0  0  0  0  0  0  0  0  0  0  0  0
   -0.6120   -5.0355    7.0202 C   0  0  0  0  0  0  0  0  0  0  0  0
   -0.0382   -3.6896    4.9827 C   0  0  0  0  0  0  0  0  0  0  0  0
    0.0987   -3.5465    3.6163 C   0  0  0  0  0  0  0  0  0  0  0  0
   -2.0919   -3.0776    1.3669 C   0  0  0  0  0  0  0  0  0  0  0  0
   -3.0440   -3.6017    2.7119 S   0  0  0  0  0  0  0  0  0  0  0  0
    0.7227   -2.3243   -0.9072 C   0  0  0  0  0  0  0  0  0  0  0  0
    2.0048   -2.2502   -0.3959 C   0  0  0  0  0  0  0  0  0  0  0  0
    2.3602   -2.5419    0.9417 N   0  0  0  0  0  0  0  0  0  0  0  0
    2.4852   -1.3359    1.6813 C   0  0  0  0  0  0  0  0  0  0  0  0
    3.6919   -0.9337    2.2432 C   0  0  0  0  0  0  0  0  0  0  0  0
    3.8162    0.3101    2.8314 C   0  0  0  0  0  0  0  0  0  0  0  0
    2.7373    1.1813    2.8549 C   0  0  0  0  0  0  0  0  0  0  0  0
    2.8298    2.8356    3.4770 S   0  0  0  0  0  0  0  0  0  0  0  0
    4.6139    3.1769    3.4667 C   0  0  0  0  0  0  0  0  0  0  0  0
    1.5130    0.7668    2.3397 C   0  0  0  0  0  0  0  0  0  0  0  0
    1.3899   -0.4755    1.7582 C   0  0  0  0  0  0  0  0  0  0  0  0
    3.2306   -3.6073    1.1850 C   0  0  0  0  0  0  0  0  0  0  0  0
    3.4997   -3.9905    2.5009 C   0  0  0  0  0  0  0  0  0  0  0  0
    4.3181   -5.0658    2.7585 C   0  0  0  0  0  0  0  0  0  0  0  0
    4.8876   -5.7900    1.7130 C   0  0  0  0  0  0  0  0  0  0  0  0
    5.9016   -7.1658    2.1659 S   0  0  0  0  0  0  0  0  0  0  0  0
    6.3317   -7.9292    0.5755 C   0  0  0  0  0  0  0  0  0  0  0  0
    4.6223   -5.4162    0.4056 C   0  0  0  0  0  0  0  0  0  0  0  0
    3.7985   -4.3379    0.1466 C   0  0  0  0  0  0  0  0  0  0  0  0
    2.8562   -1.5269   -1.2596 C   0  0  0  0  0  0  0  0  0  0  0  0
    4.4632   -0.9242   -1.1000 S   0  0  0  0  0  0  0  0  0  0  0  0
    4.1824    0.2360   -2.4080 C   0  0  0  0  0  0  0  0  0  0  0  0
    2.9670   -0.0101   -3.0580 C   0  0  0  0  0  0  0  0  0  0  0  0
    2.4392    0.6680   -4.1369 N   0  0  0  0  0  0  0  0  0  0  0  0
    3.2048    1.0151   -5.2438 C   0  0  0  0  0  0  0  0  0  0  0  0
    4.3928    0.3414   -5.5224 C   0  0  0  0  0  0  0  0  0  0  0  0
    5.1625    0.6748   -6.6192 C   0  0  0  0  0  0  0  0  0  0  0  0
    4.7553    1.6883   -7.4751 C   0  0  0  0  0  0  0  0  0  0  0  0
    5.6490    2.2103   -8.9047 S   0  0  0  0  0  0  0  0  0  0  0  0
    7.1384    1.1735   -8.8957 C   0  0  0  0  0  0  0  0  0  0  0  0
    3.5590    2.3544   -7.2133 C   0  0  0  0  0  0  0  0  0  0  0  0
    2.7965    2.0274   -6.1165 C   0  0  0  0  0  0  0  0  0  0  0  0
    1.1002    1.0838   -3.9789 C   0  0  0  0  0  0  0  0  0  0  0  0
    0.1486    0.9302   -4.9844 C   0  0  0  0  0  0  0  0  0  0  0  0
   -1.1535    1.3281   -4.7668 C   0  0  0  0  0  0  0  0  0  0  0  0
   -1.5362    1.8811   -3.5447 C   0  0  0  0  0  0  0  0  0  0  0  0
   -3.2208    2.3623   -3.3731 S   0  0  0  0  0  0  0  0  0  0  0  0
   -3.2814    3.1450   -1.7367 C   0  0  0  0  0  0  0  0  0  0  0  0
   -0.5919    2.0260   -2.5359 C   0  0  0  0  0  0  0  0  0  0  0  0
    0.7101    1.6296   -2.7572 C   0  0  0  0  0  0  0  0  0  0  0  0
    2.2322   -1.0120   -2.3859 C   0  0  0  0  0  0  0  0  0  0  0  0
    0.5972   -1.5685   -2.4923 S   0  0  0  0  0  0  0  0  0  0  0  0
    4.9060    1.4558   -2.3007 C   0  0  0  0  0  0  0  0  0  0  0  0
    4.3137    2.7080   -2.6093 C   0  0  0  0  0  0  0  0  0  0  0  0
    3.3245    3.0615   -3.4336 N   0  0  0  0  0  0  0  0  0  0  0  0
    3.0731    4.3053   -3.1413 N   0  0  0  0  0  0  0  0  0  0  0  0
    2.0896    5.0640   -3.8580 C   0  0  0  0  0  0  0  0  0  0  0  0
    2.7025    5.6764   -5.1133 C   0  0  0  0  0  0  0  0  0  0  0  0
    3.7825    4.8288   -2.1755 N   0  0  0  0  0  0  0  0  0  0  0  0
    4.6074    3.8476   -1.7994 C   0  0  0  0  0  0  0  0  0  0  0  0
    5.5892    3.8092   -0.7800 C   0  0  0  0  0  0  0  0  0  0  0  0
    6.4047    2.6698   -0.7936 C   0  0  0  0  0  0  0  0  0  0  0  0
    6.0525    1.5332   -1.4926 C   0  0  0  0  0  0  0  0  0  0  0  0
    5.6859    4.7751    0.2512 C   0  0  0  0  0  0  0  0  0  0  0  0
    4.6799    5.5485    0.7644 C   0  0  0  0  0  0  0  0  0  0  0  0
    5.0164    6.7196    1.6077 C   0  0  0  0  0  0  0  0  0  0  0  0
    6.0981    6.9858    2.0811 O   0  0  0  0  0  0  0  0  0  0  0  0
    3.7558    7.4886    1.7247 C   0  0  0  0  0  0  0  0  0  0  0  0
    3.5097    8.7199    2.3114 C   0  0  0  0  0  0  0  0  0  0  0  0
    4.7606    9.6008    3.0832 Cl  0  0  0  0  0  0  0  0  0  0  0  0
    2.2189    9.2435    2.2668 C   0  0  0  0  0  0  0  0  0  0  0  0
    1.2156    8.5239    1.6415 C   0  0  0  0  0  0  0  0  0  0  0  0
   -0.5314    9.2585    1.5826 Br  0  0  0  0  0  0  0  0  0  0  0  0
    1.4342    7.2824    1.0547 C   0  0  0  0  0  0  0  0  0  0  0  0
    2.7169    6.7698    1.1029 C   0  0  0  0  0  0  0  0  0  0  0  0
    3.2495    5.4949    0.6198 C   0  0  0  0  0  0  0  0  0  0  0  0
    2.4704    4.4019    0.3276 C   0  0  0  0  0  0  0  0  0  0  0  0
    1.0691    4.4182    0.1966 C   0  0  0  0  0  0  0  0  0  0  0  0
   -0.0633    4.3417    0.0112 N   0  0  0  0  0  0  0  0  0  0  0  0
    2.9259    3.0789    0.1738 C   0  0  0  0  0  0  0  0  0  0  0  0
    3.1543    1.9555    0.0809 N   0  0  0  0  0  0  0  0  0  0  0  0
   -5.9340   -3.3747    3.2709 H   0  0  0  0  0  0  0  0  0  0  0  0
   -5.4507    2.7347    4.4823 H   0  0  0  0  0  0  0  0  0  0  0  0
   -9.9297    0.5577    4.3687 H   0  0  0  0  0  0  0  0  0  0  0  0
   -2.7381    0.6612    1.5141 H   0  0  0  0  0  0  0  0  0  0  0  0
   -2.7669    3.0337    2.1389 H   0  0  0  0  0  0  0  0  0  0  0  0
   -4.3038    5.3593    1.2702 H   0  0  0  0  0  0  0  0  0  0  0  0
   -5.8460    5.1566    2.1060 H   0  0  0  0  0  0  0  0  0  0  0  0
   -4.3200    4.9292    2.9732 H   0  0  0  0  0  0  0  0  0  0  0  0
   -6.8918    3.2717    1.0752 H   0  0  0  0  0  0  0  0  0  0  0  0
   -6.8696    0.8923    0.4548 H   0  0  0  0  0  0  0  0  0  0  0  0
   -5.5987   -3.1636   -0.0672 H   0  0  0  0  0  0  0  0  0  0  0  0
   -6.3771   -3.9066   -2.2649 H   0  0  0  0  0  0  0  0  0  0  0  0
   -6.4713   -1.7057   -5.2969 H   0  0  0  0  0  0  0  0  0  0  0  0
   -7.7247   -2.6502   -4.4877 H   0  0  0  0  0  0  0  0  0  0  0  0
   -6.1607   -3.3829   -4.8236 H   0  0  0  0  0  0  0  0  0  0  0  0
   -5.8134    0.0349   -3.8033 H   0  0  0  0  0  0  0  0  0  0  0  0
   -5.0260    0.7807   -1.6200 H   0  0  0  0  0  0  0  0  0  0  0  0
   -0.2730   -4.8324   -1.2810 H   0  0  0  0  0  0  0  0  0  0  0  0
    0.9239   -6.4986   -2.5805 H   0  0  0  0  0  0  0  0  0  0  0  0
    2.0482   -8.7767   -2.5006 H   0  0  0  0  0  0  0  0  0  0  0  0
    3.5553   -7.9135   -2.2201 H   0  0  0  0  0  0  0  0  0  0  0  0
    3.0479   -9.1813   -1.0989 H   0  0  0  0  0  0  0  0  0  0  0  0
    2.8031   -7.9394    0.9664 H   0  0  0  0  0  0  0  0  0  0  0  0
    1.6821   -6.2226    2.2656 H   0  0  0  0  0  0  0  0  0  0  0  0
   -0.8267   -6.6553    2.6645 H   0  0  0  0  0  0  0  0  0  0  0  0
   -1.0519   -6.9012    5.0984 H   0  0  0  0  0  0  0  0  0  0  0  0
    0.1429   -4.4591    7.5502 H   0  0  0  0  0  0  0  0  0  0  0  0
   -1.5910   -4.6599    7.3197 H   0  0  0  0  0  0  0  0  0  0  0  0
   -0.5417   -6.0767    7.3245 H   0  0  0  0  0  0  0  0  0  0  0  0
    0.1773   -2.8501    5.6277 H   0  0  0  0  0  0  0  0  0  0  0  0
    0.4172   -2.6045    3.1949 H   0  0  0  0  0  0  0  0  0  0  0  0
    4.5516   -1.5849    2.1910 H   0  0  0  0  0  0  0  0  0  0  0  0
    4.7714    0.5967    3.2411 H   0  0  0  0  0  0  0  0  0  0  0  0
    5.1030    2.6525    4.2827 H   0  0  0  0  0  0  0  0  0  0  0  0
    4.7186    4.2485    3.6083 H   0  0  0  0  0  0  0  0  0  0  0  0
    5.0266    2.8852    2.5048 H   0  0  0  0  0  0  0  0  0  0  0  0
    0.6687    1.4385    2.3746 H   0  0  0  0  0  0  0  0  0  0  0  0
    0.4445   -0.7683    1.3282 H   0  0  0  0  0  0  0  0  0  0  0  0
    3.0504   -3.4451    3.3171 H   0  0  0  0  0  0  0  0  0  0  0  0
    4.5195   -5.3652    3.7758 H   0  0  0  0  0  0  0  0  0  0  0  0
    5.4270   -8.1986    0.0384 H   0  0  0  0  0  0  0  0  0  0  0  0
    6.8963   -8.8228    0.8232 H   0  0  0  0  0  0  0  0  0  0  0  0
    6.9503   -7.2537   -0.0082 H   0  0  0  0  0  0  0  0  0  0  0  0
    5.0481   -5.9513   -0.4273 H   0  0  0  0  0  0  0  0  0  0  0  0
    3.5902   -4.0750   -0.8793 H   0  0  0  0  0  0  0  0  0  0  0  0
    4.7213   -0.4598   -4.8777 H   0  0  0  0  0  0  0  0  0  0  0  0
    6.0749    0.1284   -6.7958 H   0  0  0  0  0  0  0  0  0  0  0  0
    6.8649    0.1277   -9.0019 H   0  0  0  0  0  0  0  0  0  0  0  0
    7.7195    1.4908   -9.7559 H   0  0  0  0  0  0  0  0  0  0  0  0
    7.7043    1.3449   -7.9847 H   0  0  0  0  0  0  0  0  0  0  0  0
    3.2407    3.1378   -7.8850 H   0  0  0  0  0  0  0  0  0  0  0  0
    1.8825    2.5644   -5.9215 H   0  0  0  0  0  0  0  0  0  0  0  0
    0.4311    0.4894   -5.9284 H   0  0  0  0  0  0  0  0  0  0  0  0
   -1.8951    1.2072   -5.5413 H   0  0  0  0  0  0  0  0  0  0  0  0
   -3.0662    2.4150   -0.9615 H   0  0  0  0  0  0  0  0  0  0  0  0
   -4.2978    3.5100   -1.6209 H   0  0  0  0  0  0  0  0  0  0  0  0
   -2.5834    3.9753   -1.6949 H   0  0  0  0  0  0  0  0  0  0  0  0
   -0.8471    2.4508   -1.5791 H   0  0  0  0  0  0  0  0  0  0  0  0
    1.4379    1.7406   -1.9662 H   0  0  0  0  0  0  0  0  0  0  0  0
    1.7254    5.8437   -3.1861 H   0  0  0  0  0  0  0  0  0  0  0  0
    1.2737    4.3846   -4.1148 H   0  0  0  0  0  0  0  0  0  0  0  0
    3.4984    6.3667   -4.8442 H   0  0  0  0  0  0  0  0  0  0  0  0
    3.1147    4.8947   -5.7469 H   0  0  0  0  0  0  0  0  0  0  0  0
    1.9421    6.2178   -5.6684 H   0  0  0  0  0  0  0  0  0  0  0  0
    7.2437    2.6271   -0.1144 H   0  0  0  0  0  0  0  0  0  0  0  0
    6.6101    0.6241   -1.3183 H   0  0  0  0  0  0  0  0  0  0  0  0
    6.6637    4.9278    0.6975 H   0  0  0  0  0  0  0  0  0  0  0  0
    2.0102   10.2005    2.7175 H   0  0  0  0  0  0  0  0  0  0  0  0
    0.6231    6.7572    0.5777 H   0  0  0  0  0  0  0  0  0  0  0  0
  1  2  2  0  0  0  0
  2  3  1  0  0  0  0
  3  4  2  0  0  0  0
  3  5  1  0  0  0  0
  5  6  2  0  0  0  0
  6  7  1  0  0  0  0
  7  8  1  0  0  0  0
  7  9  2  0  0  0  0
  9 10  1  0  0  0  0
  9 11  1  0  0  0  0
 11 12  2  0  0  0  0
 12 13  1  0  0  0  0
 13 14  2  0  0  0  0
 14 15  1  0  0  0  0
 15 16  3  0  0  0  0
 14 17  1  0  0  0  0
 17 18  3  0  0  0  0
  1 19  1  0  0  0  0
 19 20  2  0  0  0  0
 20 21  1  0  0  0  0
 21 22  1  0  0  0  0
 22 23  2  0  0  0  0
 23 24  1  0  0  0  0
 24 25  2  0  0  0  0
 25 26  1  0  0  0  0
 25 27  1  0  0  0  0
 27 28  2  0  0  0  0
 21 29  1  0  0  0  0
 29 30  2  0  0  0  0
 30 31  1  0  0  0  0
 31 32  2  0  0  0  0
 32 33  1  0  0  0  0
 32 34  1  0  0  0  0
 34 35  2  0  0  0  0
 20 36  1  0  0  0  0
 36 37  1  0  0  0  0
 37 38  1  0  0  0  0
 38 39  2  0  0  0  0
 39 40  1  0  0  0  0
 40 41  1  0  0  0  0
 41 42  2  0  0  0  0
 42 43  1  0  0  0  0
 43 44  2  0  0  0  0
 44 45  1  0  0  0  0
 44 46  1  0  0  0  0
 46 47  2  0  0  0  0
 40 48  1  0  0  0  0
 48 49  2  0  0  0  0
 49 50  1  0  0  0  0
 50 51  2  0  0  0  0
 51 52  1  0  0  0  0
 51 53  1  0  0  0  0
 53 54  2  0  0  0  0
 39 55  1  0  0  0  0
 55 56  1  0  0  0  0
 38 57  1  0  0  0  0
 57 58  2  0  0  0  0
 58 59  1  0  0  0  0
 59 60  1  0  0  0  0
 60 61  2  0  0  0  0
 61 62  1  0  0  0  0
 62 63  2  0  0  0  0
 63 64  1  0  0  0  0
 64 65  1  0  0  0  0
 63 66  1  0  0  0  0
 66 67  2  0  0  0  0
 59 68  1  0  0  0  0
 68 69  2  0  0  0  0
 69 70  1  0  0  0  0
 70 71  2  0  0  0  0
 71 72  1  0  0  0  0
 72 73  1  0  0  0  0
 71 74  1  0  0  0  0
 74 75  2  0  0  0  0
 58 76  1  0  0  0  0
 76 77  1  0  0  0  0
 77 78  1  0  0  0  0
 78 79  2  0  0  0  0
 79 80  1  0  0  0  0
 80 81  1  0  0  0  0
 81 82  2  0  0  0  0
 82 83  1  0  0  0  0
 83 84  2  0  0  0  0
 84 85  1  0  0  0  0
 85 86  1  0  0  0  0
 84 87  1  0  0  0  0
 87 88  2  0  0  0  0
 80 89  1  0  0  0  0
 89 90  2  0  0  0  0
 90 91  1  0  0  0  0
 91 92  2  0  0  0  0
 92 93  1  0  0  0  0
 93 94  1  0  0  0  0
 92 95  1  0  0  0  0
 95 96  2  0  0  0  0
 79 97  1  0  0  0  0
 97 98  1  0  0  0  0
 78 99  1  0  0  0  0
 99100  1  0  0  0  0
100101  2  0  0  0  0
101102  1  0  0  0  0
102103  1  0  0  0  0
103104  1  0  0  0  0
102105  1  0  0  0  0
105106  2  0  0  0  0
106107  1  0  0  0  0
107108  2  0  0  0  0
108109  1  0  0  0  0
107110  1  0  0  0  0
110111  2  0  0  0  0
111112  1  0  0  0  0
112113  2  0  0  0  0
112114  1  0  0  0  0
114115  2  0  0  0  0
115116  1  0  0  0  0
115117  1  0  0  0  0
117118  2  0  0  0  0
118119  1  0  0  0  0
118120  1  0  0  0  0
120121  2  0  0  0  0
121122  1  0  0  0  0
122123  2  0  0  0  0
123124  1  0  0  0  0
124125  3  0  0  0  0
123126  1  0  0  0  0
126127  3  0  0  0  0
 13  2  1  0  0  0  0
 56 19  1  0  0  0  0
 98 57  1  0  0  0  0
109 99  2  0  0  0  0
122111  1  0  0  0  0
 12  5  1  0  0  0  0
 28 22  1  0  0  0  0
 35 29  1  0  0  0  0
 55 36  2  0  0  0  0
 67 60  1  0  0  0  0
 75 68  1  0  0  0  0
 97 76  2  0  0  0  0
106100  1  0  0  0  0
121114  1  0  0  0  0
 47 41  1  0  0  0  0
 54 48  1  0  0  0  0
 88 81  1  0  0  0  0
 96 89  1  0  0  0  0
  1128  1  0  0  0  0
  6129  1  0  0  0  0
 11130  1  0  0  0  0
 23131  1  0  0  0  0
 24132  1  0  0  0  0
 26133  1  0  0  0  0
 26134  1  0  0  0  0
 26135  1  0  0  0  0
 27136  1  0  0  0  0
 28137  1  0  0  0  0
 30138  1  0  0  0  0
 31139  1  0  0  0  0
 33140  1  0  0  0  0
 33141  1  0  0  0  0
 33142  1  0  0  0  0
 34143  1  0  0  0  0
 35144  1  0  0  0  0
 42145  1  0  0  0  0
 43146  1  0  0  0  0
 45147  1  0  0  0  0
 45148  1  0  0  0  0
 45149  1  0  0  0  0
 46150  1  0  0  0  0
 47151  1  0  0  0  0
 49152  1  0  0  0  0
 50153  1  0  0  0  0
 52154  1  0  0  0  0
 52155  1  0  0  0  0
 52156  1  0  0  0  0
 53157  1  0  0  0  0
 54158  1  0  0  0  0
 61159  1  0  0  0  0
 62160  1  0  0  0  0
 65161  1  0  0  0  0
 65162  1  0  0  0  0
 65163  1  0  0  0  0
 66164  1  0  0  0  0
 67165  1  0  0  0  0
 69166  1  0  0  0  0
 70167  1  0  0  0  0
 73168  1  0  0  0  0
 73169  1  0  0  0  0
 73170  1  0  0  0  0
 74171  1  0  0  0  0
 75172  1  0  0  0  0
 82173  1  0  0  0  0
 83174  1  0  0  0  0
 86175  1  0  0  0  0
 86176  1  0  0  0  0
 86177  1  0  0  0  0
 87178  1  0  0  0  0
 88179  1  0  0  0  0
 90180  1  0  0  0  0
 91181  1  0  0  0  0
 94182  1  0  0  0  0
 94183  1  0  0  0  0
 94184  1  0  0  0  0
 95185  1  0  0  0  0
 96186  1  0  0  0  0
103187  1  0  0  0  0
103188  1  0  0  0  0
104189  1  0  0  0  0
104190  1  0  0  0  0
104191  1  0  0  0  0
108192  1  0  0  0  0
109193  1  0  0  0  0
110194  1  0  0  0  0
117195  1  0  0  0  0
120196  1  0  0  0  0
M  END
