244

C         -4.90250        0.99110       -8.21180
C         -6.17770        0.54950       -8.51720
C         -6.81310       -0.60750       -7.87720
O         -6.37120       -1.29720       -6.97860
C         -8.05560       -0.84690       -8.65530
C         -9.00990       -1.82330       -8.47190
C        -10.10860       -1.83940       -9.32530
Cl       -11.34450       -3.02370       -9.13660
C        -10.20680       -0.88520      -10.33660
F        -11.26720       -0.90980      -11.15680
C         -9.24600        0.09690      -10.53090
C         -8.15880        0.11350       -9.67590
C         -7.01240        1.01410       -9.58240
C         -6.85710        2.20820      -10.24800
C         -7.75290        2.68810      -11.21900
N         -8.46610        3.12590      -12.00640
C         -5.84330        3.13250       -9.93240
N         -5.07360        3.94500       -9.67070
C         -4.27240        0.88060       -6.97620
C         -4.78870        0.76640       -5.66630
N         -6.09920        0.77870       -5.27930
C         -7.11150        1.43270       -5.98840
C         -6.87770        2.65540       -6.61740
C         -7.88090        3.27150       -7.33490
C         -9.14140        2.69150       -7.45870
C        -10.19750        3.34890       -8.28920
C         -9.37890        1.49420       -6.79660
C         -8.38500        0.87030       -6.06670
C         -6.44740        0.08730       -4.09590
C         -7.26780        0.68440       -3.14670
C         -7.60000       -0.00370       -1.99420
C         -7.12450       -1.28820       -1.76340
C         -7.47060       -2.03970       -0.51760
C         -6.30990       -1.87650       -2.72670
C         -5.97450       -1.20470       -3.88270
C         -3.73250        0.72840       -4.72880
S         -3.69910        0.65960       -3.00290
C         -1.94430        0.77960       -3.01320
C         -1.41220        0.78640       -4.29760
N         -0.06730        0.66870       -4.58400
C          0.77830       -0.04020       -3.71110
C          0.35060       -1.20070       -3.07020
C          1.17640       -1.84680       -2.17200
C          2.45870       -1.38000       -1.90870
C          3.33530       -2.04930       -0.89510
C          2.90200       -0.26210       -2.60550
C          2.07500        0.41020       -3.48570
C          0.44450        1.09620       -5.82160
C          1.40070        0.33450       -6.48940
C          1.90520        0.76270       -7.70050
C          1.47230        1.94820       -8.28480
C          2.00480        2.39060       -9.61250
C          0.51550        2.69860       -7.61510
C          0.00680        2.28270       -6.40000
C         -2.45230        0.81770       -5.26160
S         -2.50130        0.98000       -6.97910
C         -1.27600        0.73810       -1.74880
C         -0.24700        1.50710       -1.22010
N          0.24150        2.69230       -1.71950
C          1.29390        3.36650       -1.04470
C          1.02810        4.59360       -0.44690
C          2.02850        5.30010        0.19060
C          3.31900        4.78620        0.23690
S          4.67860        5.61490        0.99050
C          3.89670        6.92580        1.97220
C          3.58920        3.56190       -0.36920
C          2.58880        2.85790       -1.00670
C         -0.40740        3.46330       -2.69910
C          0.38220        4.20270       -3.58190
C         -0.19840        4.95100       -4.58050
C         -1.58280        4.95430       -4.74220
S         -2.24360        5.80790       -6.14320
C         -3.72490        4.82160       -6.51380
C         -2.37540        4.28590       -3.81850
C         -1.79240        3.56460       -2.79310
C          0.20960        0.93280       -0.00170
S          1.54230        1.22210        1.05670
C          1.07370       -0.12830        2.09390
C         -0.05930       -0.76650        1.62180
N         -0.76670       -1.79030        2.24890
C         -0.14300       -3.00710        2.54750
C         -0.43570       -3.68250        3.73000
C          0.18860       -4.87590        4.02840
C          1.11840       -5.41600        3.14800
S          1.93700       -6.95490        3.42380
C          1.70470       -7.25320        5.20070
C          1.40960       -4.74850        1.96170
C          0.78480       -3.55730        1.66210
C         -2.14680       -1.62650        2.39180
C         -2.68120       -0.34740        2.54490
C         -4.04190       -0.15790        2.66850
C         -4.90130       -1.24670        2.64460
S         -6.65500       -1.09930        2.82530
C         -6.97550        0.59520        2.24940
C         -4.37490       -2.52760        2.50270
C         -3.01680       -2.71780        2.37180
C         -0.52020       -0.16060        0.42800
S         -1.79830       -0.54870       -0.65390
C          1.95030       -0.40420        3.18710
C          2.62420        0.56180        3.93020
N          2.36690        1.92100        3.87290
C          3.45760        2.80370        3.92130
C          4.63680        2.48680        3.25070
C          5.72480        3.33010        3.32510
C          5.66730        4.51270        4.05440
C          6.85590        5.42120        4.10650
C          4.48390        4.82650        4.70920
C          3.38930        3.98490        4.65160
C          1.05180        2.39520        3.82310
C          0.74570        3.54290        3.09320
C         -0.55680        3.98860        3.01320
C         -1.58920        3.31510        3.65810
C         -3.00450        3.79300        3.53640
C         -1.27400        2.18170        4.39650
C          0.02580        1.72020        4.47820
C          3.60220       -0.02480        4.76290
S          4.78310        0.56490        5.87550
C          5.32320       -1.07750        6.23320
C          4.61310       -2.03360        5.48960
N          4.95470       -3.36480        5.31080
C          4.76270       -4.32850        6.32110
C          3.55410       -4.39190        7.00400
C          3.36380       -5.35770        7.97670
C          4.36240       -6.27170        8.28350
C          4.15350       -7.32950        9.32290
C          5.56770       -6.19720        7.59080
C          5.77010       -5.23980        6.61790
C          5.15210       -3.80170        3.99130
C          5.70290       -2.94020        3.04330
C          5.87450       -3.35780        1.73920
C          5.52340       -4.64220        1.34220
C          5.72860       -5.10290       -0.06820
C          5.00370       -5.50450        2.30000
C          4.81610       -5.09600        3.60420
C          3.65610       -1.40640        4.66750
S          2.48070       -2.03390        3.56840
C          6.50220       -1.24090        6.98190
C          6.73100       -2.25160        7.88560
C          5.65400       -2.84670        8.69370
O          4.46610       -2.60570        8.63850
C          6.34100       -3.69380        9.69590
C          5.78010       -4.47640       10.68240
C          6.62900       -5.21810       11.49510
Cl         5.99060       -6.23970       12.72620
C          8.00870       -5.13540       11.30460
F          8.81900       -5.85300       12.09470
C          8.58020       -4.33650       10.32550
C          7.73080       -3.60750        9.50960
C          7.99870       -2.70480        8.39230
C          9.22960       -2.42510        7.85100
C         10.44630       -2.91450        8.36360
N         11.46360       -3.28350        8.74780
C          9.41370       -1.63670        6.69710
N          9.62380       -1.02750        5.74640
H         -4.30900        1.43270       -9.00400
H         -8.91110       -2.55110       -7.68250
H         -9.37320        0.80310      -11.33540
H         -5.90560        3.11890       -6.54850
H         -7.68020        4.21630       -7.81880
H         -9.85910        3.45470       -9.31970
H        -11.11540        2.76740       -8.28420
H        -10.41320        4.34730       -7.91120
H        -10.35210        1.03050       -6.86440
H         -8.58200       -0.06650       -5.56800
H         -7.64180        1.68400       -3.31530
H         -8.23970        0.46920       -1.26270
H         -8.20600       -1.50490        0.07680
H         -6.57870       -2.18970        0.08960
H         -7.86930       -3.02220       -0.76410
H         -5.94350       -2.88000       -2.56830
H         -5.37270       -1.67530       -4.64440
H         -0.63170       -1.59780       -3.27920
H          0.81770       -2.73860       -1.67770
H          3.13910       -3.11790       -0.84810
H          4.38530       -1.89310       -1.12990
H          3.15070       -1.63210        0.09660
H          3.91240        0.09090       -2.45100
H          2.42640        1.28990       -4.00520
H          1.74340       -0.59400       -6.05670
H          2.64520        0.15920       -8.20620
H          2.00650        3.47550       -9.68690
H          1.37540        2.00070      -10.41320
H          3.01580        2.02210       -9.76950
H          0.16150        3.62460       -8.04330
H         -0.71840        2.88710       -5.88280
H          0.02700        4.99760       -0.48810
H          1.79120        6.24950        0.64300
H          4.69720        7.36880        2.55580
H          3.45840        7.67710        1.32160
H          3.15700        6.48920        2.63650
H          4.59500        3.17340       -0.33640
H          2.80110        1.91390       -1.48050
H          1.45690        4.16970       -3.48780
H          0.41330        5.50550       -5.27450
H         -3.48630        3.77110       -6.37510
H         -4.55080        5.12740       -5.87670
H         -3.97070        5.00820       -7.55530
H         -3.45180        4.33040       -3.88230
H         -2.42200        3.09680       -2.05280
H         -1.15300       -3.26180        4.41900
H         -0.05660       -5.37680        4.95100
H          0.67300       -7.52200        5.40820
H          2.35440       -8.08810        5.44500
H          2.00840       -6.37440        5.76280
H          2.13140       -5.17420        1.28240
H          1.01070       -3.03670        0.74440
H         -2.02350        0.50820        2.58000
H         -4.41880        0.84430        2.79490
H         -8.04910        0.66070        2.10330
H         -6.45760        0.75830        1.30890
H         -6.66800        1.31710        3.00060
H         -5.04560       -3.37310        2.48610
H         -2.62510       -3.71460        2.23780
H          4.68610        1.58050        2.66460
H          6.63340        3.07620        2.79990
H          7.72330        4.88930        4.49410
H          7.10220        5.77090        3.10410
H          6.66440        6.28250        4.74170
H          4.41710        5.73920        5.28480
H          2.47950        4.23490        5.17800
H          1.53520        4.06280        2.57190
H         -0.77960        4.87150        2.43120
H         -3.64090        3.31080        4.27450
H         -3.06130        4.87100        3.67570
H         -3.39330        3.56570        2.54260
H         -2.05520        1.65000        4.92100
H          0.24930        0.83520        5.05560
H          2.77320       -3.68370        6.77100
H          2.42330       -5.39490        8.50740
H          3.98100       -8.29460        8.84560
H          5.03300       -7.42640        9.95590
H          3.29340       -7.10060        9.94680
H          6.35820       -6.89560        7.82460
H          6.70650       -5.18600        6.08170
H          6.00310       -1.94340        3.33200
H          6.29930       -2.67310        1.01950
H          5.78310       -4.25940       -0.75170
H          4.92160       -5.76250       -0.38100
H          6.66190       -5.66170       -0.14510
H          4.72430       -6.51010        2.02180
H          4.39810       -5.78090        4.32450
H          7.26500       -0.48590        6.83000
H          4.71070       -4.51850       10.80840
H          9.65390       -4.30820       10.23370
