244

C          2.32870        4.50750       -8.44370
C          2.12460        5.79110       -8.91500
C          1.20560        6.74980       -8.29150
O          0.54170        6.59960       -7.28350
C          1.15250        7.90430       -9.22360
C          0.42690        9.06980       -9.10690
C          0.55410       10.02780      -10.10740
Cl        -0.31340       11.51250      -10.01250
C          1.39500        9.78010      -11.19130
F          1.51120       10.70780      -12.15260
C          2.12260        8.60540      -11.31820
C          1.99800        7.65770      -10.31780
C          2.63140        6.35350      -10.13220
C          3.65250        5.83900      -10.89440
C          4.33700        4.64690      -10.58690
N          4.95860        3.70400      -10.37680
C          4.19340        6.48180      -12.02250
N          4.68310        6.96970      -12.94040
C          2.17980        4.07960       -7.12600
C          2.24600        4.77940       -5.89720
N          2.63710        6.07500       -5.72570
C          3.49680        6.71730       -6.63080
C          3.27620        8.04650       -6.98590
C          4.10090        8.66800       -7.90580
C          5.16190        7.99150       -8.49120
C          6.03340        8.64470       -9.51650
C          5.40010        6.67520       -8.09900
C          4.58540        6.04380       -7.18410
C          2.17250        6.81050       -4.61700
C          3.02090        7.70290       -3.97190
C          2.54940        8.46690       -2.92190
C          1.24340        8.33730       -2.46950
C          0.73210        9.14870       -1.31750
C          0.40570        7.43530       -3.11820
C          0.85330        6.68880       -4.18820
C          1.95880        3.90750       -4.82080
S          1.91600        4.09340       -3.09450
C          1.56620        2.38610       -2.89750
C          1.52790        1.71570       -4.10690
N          1.35000        0.33920       -4.20590
C          2.23580       -0.50530       -3.52900
C          1.82160       -1.76110       -3.09280
C          2.72310       -2.62740       -2.50570
C          4.05230       -2.26650       -2.32190
C          5.05080       -3.23250       -1.76150
C          4.44310       -0.98780       -2.70170
C          3.55440       -0.11600       -3.29650
C          0.42220       -0.14490       -5.13840
C          0.66770       -1.30040       -5.87680
C         -0.25160       -1.73430       -6.80810
C         -1.42790       -1.03080       -7.04480
C         -2.38830       -1.50560       -8.09150
C         -1.66710        0.11570       -6.30120
C         -0.76070        0.55540       -5.35550
C          1.74970        2.58610       -5.19320
S          1.89660        2.34670       -6.88910
C          1.12920        1.75660       -1.67880
C          1.76110        1.46370       -0.48640
N          3.07530        1.78700       -0.19490
C          3.90250        0.87200        0.45930
C          3.65350       -0.49620        0.39080
C          4.44300       -1.39670        1.07820
C          5.52970       -0.95070        1.81310
S          6.61130       -2.00560        2.73310
C          5.98560       -3.67620        2.39800
C          5.80820        0.41340        1.85530
C          4.99650        1.31460        1.20570
C          3.55470        3.06400       -0.53090
C          4.76110        3.21370       -1.21220
C          5.25180        4.47280       -1.47860
C          4.55000        5.60240       -1.06530
S          5.28640        7.17780       -1.37360
C          4.63660        8.17580        0.00040
C          3.32570        5.45800       -0.42760
C          2.83360        4.19580       -0.16060
C          0.91610        0.70110        0.36450
S          1.07500        0.02330        1.95430
C         -0.50960       -0.72460        1.81800
C         -1.14710       -0.37660        0.63350
N         -2.46090       -0.71810        0.31550
C         -3.44650       -0.52750        1.29190
C         -3.39290        0.59830        2.11290
C         -4.30110        0.75940        3.13630
C         -5.26970       -0.21080        3.37390
S         -6.36060        0.03440        4.74940
C         -6.49940       -1.65020        5.42170
C         -5.35460       -1.31340        2.53390
C         -4.45530       -1.46820        1.49820
C         -2.74030       -1.25980       -0.93780
C         -3.98180       -1.06650       -1.53810
C         -4.25620       -1.60360       -2.77980
C         -3.28220       -2.32310       -3.45760
S         -3.54140       -3.09510       -5.02540
C         -5.02270       -2.26230       -5.66310
C         -2.03330       -2.50220       -2.87100
C         -1.76680       -1.98980       -1.62220
C         -0.32080        0.41630       -0.18690
S         -0.50840        1.10290       -1.75210
C         -1.06220       -1.69940        2.70890
C         -1.20840       -1.76960        4.08770
N         -0.66330       -0.90150        5.00990
C         -1.40360       -0.63270        6.18090
C         -0.81920       -0.71660        7.43980
C         -1.57750       -0.47440        8.56820
C         -2.92440       -0.14660        8.47470
C         -3.75360        0.07330        9.70070
C         -3.49570       -0.05440        7.21180
C         -2.74840       -0.29330        6.07690
C          0.68520       -0.52510        4.96020
C          1.66600       -1.39090        4.48320
C          2.99690       -1.01530        4.51450
C          3.38290        0.21940        5.01410
C          4.82210        0.62340        5.08470
C          2.39280        1.08540        5.47030
C          1.06330        0.72480        5.44780
C         -2.06060       -2.84740        4.45300
S         -2.76100       -3.34620        5.95090
C         -3.61310       -4.66350        5.12610
C         -3.42640       -4.61220        3.71440
N         -4.07690       -5.37060        2.79090
C         -5.36400       -5.91470        2.98500
C         -5.65760       -7.17540        2.47370
C         -6.91690       -7.71270        2.64920
C         -7.90820       -7.01640        3.33160
C         -9.25690       -7.63120        3.54010
C         -7.61020       -5.74850        3.81790
C         -6.35770       -5.19550        3.64210
C         -3.53320       -5.49470        1.49010
C         -4.30620       -5.16960        0.38030
C         -3.77920       -5.29470       -0.88990
C         -2.48380       -5.75890       -1.08400
C         -1.92930       -5.94420       -2.46090
C         -1.72340       -6.08780        0.03300
C         -2.23420       -5.95790        1.30940
C         -2.49880       -3.61340        3.38070
S         -1.82170       -3.06650        1.88990
C         -4.27300       -5.70210        5.76490
C         -4.58310       -5.89120        7.09880
C         -4.37080       -4.93340        8.17290
O         -3.83510       -3.84120        8.11440
C         -5.00020       -5.52990        9.37580
C         -5.12840       -4.98780       10.64030
Cl        -4.37190       -3.51750       11.05780
C         -5.90180       -5.67790       11.58420
Cl        -6.05350       -5.06940       13.17560
C         -6.58450       -6.83240       11.21010
Cl        -7.61120       -7.60000       12.34400
C         -6.45900       -7.37130        9.91820
Cl        -7.48220       -8.67950        9.48880
C         -5.59280       -6.75930        9.02180
C         -5.19920       -7.07550        7.64730
C         -5.23450       -8.31510        7.05210
C         -4.86350       -8.58180        5.71830
N         -4.60200       -8.89760        4.64380
C         -5.46650       -9.54430        7.70370
N         -5.52770      -10.60310        8.14420
H          2.58650        3.73540       -9.15890
H         -0.21740        9.23640       -8.25840
H          2.75060        8.47020      -12.18360
H          2.45360        8.58660       -6.54250
H          3.90400        9.69420       -8.18010
H          7.08080        8.57250       -9.22830
H          5.92340        8.14850      -10.48080
H          5.77360        9.69280       -9.63840
H          6.23560        6.13770       -8.52270
H          4.78890        5.02340       -6.89590
H          4.04670        7.80180       -4.29340
H          3.21540        9.17700       -2.45440
H          1.46050        9.89500       -1.00850
H         -0.19070        9.65800       -1.59030
H          0.51080        8.50320       -0.46690
H         -0.61910        7.33400       -2.79210
H          0.18020        6.03860       -4.72400
H          0.79250       -2.05250       -3.23490
H          2.38660       -3.60490       -2.18890
H          5.58820       -3.72200       -2.57500
H          5.78140       -2.71490       -1.14310
H          4.56000       -4.00480       -1.17290
H          5.46670       -0.67830       -2.54640
H          3.88610        0.86380       -3.60830
H          1.58770       -1.84560       -5.72750
H         -0.04770       -2.62980       -7.37690
H         -3.27760       -0.88070       -8.11920
H         -2.68360       -2.53500       -7.89380
H         -1.91710       -1.47770       -9.07360
H         -2.57520        0.67990       -6.46150
H         -0.96670        1.44580       -4.77900
H          2.84140       -0.86880       -0.21280
H          4.19660       -2.44360        1.02010
H          4.96770       -3.77630        2.76380
H          6.04550       -3.88900        1.33470
H          6.64030       -4.34720        2.94560
H          6.66300        0.75790        2.41680
H          5.20850        2.37080        1.27410
H          5.31200        2.33490       -1.51240
H          6.18980        4.59730       -1.99770
H          4.76610        7.62960        0.92960
H          3.59200        8.42040       -0.16540
H          5.23120        9.08380        0.01660
H          2.75190        6.32140       -0.13260
H          1.88860        4.07990        0.34940
H         -2.62620        1.34080        1.94940
H         -4.26340        1.63370        3.76820
H         -7.16480       -2.24990        4.80730
H         -5.50910       -2.09150        5.49210
H         -6.92250       -1.54240        6.41540
H         -6.11960       -2.05950        2.68560
H         -4.51340       -2.33350        0.85460
H         -4.73820       -0.48960       -1.02720
H         -5.23280       -1.44710       -3.20910
H         -5.12790       -2.58770       -6.69310
H         -4.87290       -1.18780       -5.62420
H         -5.89970       -2.56040       -5.09570
H         -1.28380       -3.06090       -3.40970
H         -0.80430       -2.15760       -1.16250
H          0.22430       -0.98150        7.52880
H         -1.11520       -0.55460        9.54130
H         -3.13320        0.34680       10.55080
H         -4.49440        0.85270        9.53490
H         -4.28340       -0.84630        9.94900
H         -4.53790        0.21150        7.11390
H         -3.19600       -0.22040        5.09710
H          1.38270       -2.36500        4.11100
H          3.75000       -1.70150        4.15780
H          5.47310       -0.19240        4.78360
H          5.00560        1.47300        4.42800
H          5.08210        0.92280        6.09920
H          2.67420        2.05520        5.85470
H          0.30430        1.39890        5.81640
H         -4.89230       -7.73350        1.95790
H         -7.12940       -8.69790        2.26300
H         -9.17610       -8.49190        4.20360
H         -9.66800       -7.98110        2.59470
H         -9.94890       -6.91890        3.98190
H         -8.37050       -5.18320        4.33790
H         -6.13410       -4.21290        4.02850
H         -5.31910       -4.82050        0.52180
H         -4.38200       -5.02750       -1.74520
H         -0.89270       -5.61800       -2.50570
H         -2.50800       -5.38990       -3.19480
H         -1.95720       -7.00020       -2.73110
H         -0.71810       -6.45980       -0.09960
H         -1.64060       -6.22630        2.17080
H         -4.59880       -6.49080        5.10080
