198

C          3.49240       -4.63110       -6.14690
C          4.19190       -5.76070       -5.75770
C          4.78250       -5.93180       -4.42940
O          4.71470       -5.17540       -3.47520
C          5.59220       -7.17010       -4.51140
C          6.35630       -7.76380       -3.53030
C          7.02010       -8.94670       -3.83840
Cl         7.97940       -9.74620       -2.65260
C          6.90130       -9.48580       -5.11860
F          7.54560      -10.62450       -5.40870
C          6.13790       -8.88930       -6.11240
C          5.47430       -7.71620       -5.80020
C          4.58530       -6.86280       -6.58680
C          4.08720       -7.15250       -7.83380
C          4.42260       -8.30620       -8.56540
N          4.64910       -9.23980       -9.19530
C          3.11600       -6.37170       -8.49080
N          2.30100       -5.80070       -9.06440
C          2.81720       -3.76540       -5.29280
C          2.28530       -3.96280       -3.99530
N          2.06950       -5.16120       -3.39110
C          1.98630       -6.36710       -4.10940
C          2.60410       -7.51030       -3.60890
C          2.56030       -8.69350       -4.32350
C          1.89700       -8.77220       -5.54040
C          1.88450      -10.03620       -6.33940
C          1.24190       -7.63460       -6.00920
C          1.28200       -6.44770       -5.30950
C          1.88180       -5.23790       -1.99230
C          0.83200       -5.99500       -1.48100
C          0.64570       -6.08000       -0.11640
C          1.48840       -5.41100        0.76600
C          1.26080       -5.51390        2.24100
C          2.54460       -4.67500        0.24410
C          2.74910       -4.59090       -1.12020
C          1.87520       -2.72560       -3.44870
S          1.19410       -2.26150       -1.93100
C          1.12790       -0.58820       -2.44670
C          1.54210       -0.40930       -3.75170
N          1.37680        0.79880       -4.45120
C          2.47440        1.59680       -4.82110
C          3.70400        1.06620       -5.19010
C          4.74000        1.90120       -5.56990
C          4.59750        3.28010       -5.56050
C          5.71960        4.18750       -5.96250
C          3.37210        3.80750       -5.16330
C          2.32610        2.98460       -4.80690
C          0.10920        1.05830       -4.99890
C         -1.05920        0.60670       -4.39060
C         -2.29470        0.86770       -4.95470
C         -2.41350        1.57880       -6.13880
C         -3.74930        1.85750       -6.75770
C         -1.24330        2.00730       -6.75640
C         -0.00550        1.74820       -6.20780
C          1.98200       -1.63540       -4.30640
S          2.57650       -2.10350       -5.85560
C          0.65810        0.36250       -1.47910
C          1.26290        1.51080       -1.00290
N          2.50050        2.00280       -1.37810
C          2.66050        3.39620       -1.37260
C          3.81770        3.99900       -0.87900
C          3.93670        5.36980       -0.87580
C          2.90360        6.17530       -1.35310
S          3.17290        7.91880       -1.28360
C          1.68750        8.62480       -2.05320
C          1.74450        5.58170       -1.83130
C          1.62830        4.20560       -1.84000
C          3.58490        1.14150       -1.59590
C          3.63990       -0.11940       -1.00560
C          4.67800       -0.98990       -1.27950
C          5.71010       -0.60130       -2.12140
S          7.08880       -1.61000       -2.56100
C          6.74360       -3.22420       -1.80800
C          5.69410        0.68500       -2.65700
C          4.64490        1.53990       -2.41020
C          0.49370        2.07990        0.04790
S          0.66250        3.49010        1.02660
C         -0.73730        3.01910        1.99950
C         -1.33260        1.85000        1.53090
N         -2.46700        1.21620        2.00280
C         -2.48930       -0.18640        1.90070
C         -1.36810       -0.92540        2.27570
C         -1.32600       -2.28650        2.05270
C         -2.41060       -2.91960        1.46630
S         -2.31030       -4.65310        1.07120
C         -2.38790       -4.51130       -0.74110
C         -3.56120       -2.20380        1.16620
C         -3.60140       -0.84120        1.37630
C         -3.56070        1.89390        2.54530
C         -4.30120        1.30620        3.57390
C         -5.28490        2.02160        4.21420
C         -5.54840        3.34170        3.85330
S         -6.71570        4.21250        4.85090
C         -6.50830        5.94280        4.34420
C         -4.88150        3.89770        2.76990
C         -3.90440        3.17350        2.11520
C         -0.61190        1.33800        0.41940
S         -0.79190       -0.06260       -0.57640
C         -1.09110        3.86640        3.08120
C         -0.79490        5.22110        3.15060
C         -1.36230        5.83680        4.25920
O         -1.35340        7.13490        4.59220
C         -0.64190        8.05260        3.77710
C          0.86290        7.99630        4.01330
C         -2.10630        4.94210        5.07010
S         -1.94750        3.30810        4.48000
C         -2.98520        5.39300        6.05000
C         -3.87200        4.66690        6.81580
C         -3.86910        3.21130        6.93430
O         -3.11010        2.42230        6.39070
C         -4.94430        2.87320        7.88050
C         -5.34910        1.64590        8.31560
C         -6.42090        1.56070        9.23280
C         -6.88210        0.31960        9.71520
C         -7.91700        0.25020       10.60640
C         -8.51930        1.43910       11.03750
F         -9.53680        1.35170       11.91540
C         -8.11140        2.66870       10.60000
C         -7.04770        2.75850        9.68200
C         -6.60660        4.01740        9.20820
C         -5.57080        4.07440        8.31670
C         -4.92650        5.20070        7.64280
C         -5.33020        6.51090        7.73140
C         -6.38950        6.95800        8.54540
N         -7.23960        7.39490        9.18270
C         -4.79260        7.58250        6.99200
N         -4.44170        8.50350        6.39980
H          3.51160       -4.34770       -7.19220
H          6.43220       -7.32680       -2.54740
H          6.09220       -9.35210       -7.08470
H          3.12270       -7.46360       -2.66310
H          3.05990       -9.56610       -3.92910
H          2.22740      -10.87800       -5.74380
H          0.88320      -10.24710       -6.70930
H          2.54110       -9.94150       -7.20510
H          0.69630       -7.68090       -6.94010
H          0.76790       -5.57900       -5.69290
H          0.16750       -6.51020       -2.15960
H         -0.17260       -6.66390        0.27720
H          0.19920       -5.42880        2.46570
H          1.59850       -6.48450        2.60420
H          1.80690       -4.74190        2.77760
H          3.22260       -4.16640        0.91430
H          3.58900       -4.05050       -1.52640
H          3.86470        0.00150       -5.19080
H          5.67830        1.46200       -5.87570
H          5.47410        4.70540       -6.88950
H          6.63760        3.62620       -6.11530
H          5.89290        4.94250       -5.19670
H          3.23860        4.87960       -5.13180
H          1.37700        3.41140       -4.52120
H         -1.01800        0.04160       -3.47310
H         -3.18280        0.50750       -4.45460
H         -4.55540        1.61180       -6.07080
H         -3.87600        1.26310       -7.66270
H         -3.83260        2.90680       -7.03610
H         -1.30220        2.54330       -7.69280
H          0.88520        2.07210       -6.72420
H          4.61670        3.38730       -0.48910
H          4.83020        5.83750       -0.49180
H          0.80880        8.38430       -1.46170
H          1.58940        8.26250       -3.07220
H          1.84450        9.69890       -2.05800
H          0.92430        6.17440       -2.20290
H          0.72240        3.75020       -2.21270
H          2.87050       -0.42870       -0.31390
H          4.67230       -1.96390       -0.81750
H          5.88090       -3.68380       -2.28200
H          7.62680       -3.82430       -2.00620
H          6.61010       -3.11660       -0.73580
H          6.51070        1.00030       -3.28700
H          4.63760        2.52130       -2.85610
H         -0.52360       -0.41870        2.71910
H         -0.44980       -2.85900        2.31280
H         -2.37460       -5.52210       -1.13380
H         -1.51780       -3.96070       -1.08870
H         -3.30470       -4.00870       -1.03240
H         -4.41810       -2.71100        0.74900
H         -4.48200       -0.27240        1.11770
H         -4.06230        0.30630        3.90010
H         -5.83390        1.58240        5.03280
H         -5.46260        6.22790        4.42470
H         -7.10520        6.52740        5.03790
H         -6.88140        6.08710        3.33450
H         -5.10320        4.89770        2.43350
H         -3.37690        3.62010        1.28530
H         -0.23130        5.71950        2.38180
H         -1.03360        9.02920        4.07210
H         -0.87880        7.88130        2.72040
H          1.07820        8.18160        5.06240
H          1.35400        8.75650        3.41270
H          1.26490        7.02240        3.74440
H         -2.98160        6.47110        6.16100
H         -4.85880        0.74980        7.96470
H         -6.40100       -0.58290        9.36860
H         -8.28130       -0.69130       10.98600
H         -8.60000        3.56350       10.95280
H         -7.10330        4.90410        9.56770
