
  xtb     02112212493D
 energy: -320.963824152400 gnorm: 0.000790260137 xtb: 6.4.1 (unknown)
188205  0     0  0            999 V2000
   -3.5809   -7.7702    1.0727 C   0  0  0  0  0  0  0  0  0  0  0  0
   -3.4777   -8.7727    0.1353 C   0  0  0  0  0  0  0  0  0  0  0  0
   -4.2271  -10.0308    0.3090 C   0  0  0  0  0  0  0  0  0  0  0  0
   -4.8358  -10.3982    1.2908 O   0  0  0  0  0  0  0  0  0  0  0  0
   -4.1168  -10.7272   -0.9987 C   0  0  0  0  0  0  0  0  0  0  0  0
   -4.7161  -11.8998   -1.4075 C   0  0  0  0  0  0  0  0  0  0  0  0
   -4.4739  -12.3480   -2.7017 C   0  0  0  0  0  0  0  0  0  0  0  0
   -5.1965  -13.8024   -3.2733 Cl  0  0  0  0  0  0  0  0  0  0  0  0
   -3.6381  -11.6101   -3.5401 C   0  0  0  0  0  0  0  0  0  0  0  0
   -3.4179  -12.0451   -4.7886 F   0  0  0  0  0  0  0  0  0  0  0  0
   -3.0224  -10.4358   -3.1331 C   0  0  0  0  0  0  0  0  0  0  0  0
   -3.2699   -9.9906   -1.8463 C   0  0  0  0  0  0  0  0  0  0  0  0
   -2.7612   -8.8350   -1.1098 C   0  0  0  0  0  0  0  0  0  0  0  0
   -1.6275   -8.1264   -1.4372 C   0  0  0  0  0  0  0  0  0  0  0  0
   -0.9714   -7.2676   -0.5367 C   0  0  0  0  0  0  0  0  0  0  0  0
   -0.3658   -6.6076    0.1847 N   0  0  0  0  0  0  0  0  0  0  0  0
   -0.9404   -8.2388   -2.6592 C   0  0  0  0  0  0  0  0  0  0  0  0
   -0.3471   -8.2623   -3.6429 N   0  0  0  0  0  0  0  0  0  0  0  0
   -3.3301   -6.4085    0.8741 C   0  0  0  0  0  0  0  0  0  0  0  0
   -2.8883   -5.4491    1.8102 C   0  0  0  0  0  0  0  0  0  0  0  0
   -2.6878   -5.6537    3.1415 N   0  0  0  0  0  0  0  0  0  0  0  0
   -1.6483   -4.9431    3.7833 C   0  0  0  0  0  0  0  0  0  0  0  0
   -1.8896   -4.2768    4.9779 C   0  0  0  0  0  0  0  0  0  0  0  0
   -0.8752   -3.5567    5.5801 C   0  0  0  0  0  0  0  0  0  0  0  0
    0.3895   -3.4891    5.0107 C   0  0  0  0  0  0  0  0  0  0  0  0
    1.4857   -2.6871    5.6420 C   0  0  0  0  0  0  0  0  0  0  0  0
    0.6240   -4.1832    3.8277 C   0  0  0  0  0  0  0  0  0  0  0  0
   -0.3778   -4.9067    3.2143 C   0  0  0  0  0  0  0  0  0  0  0  0
   -3.4932   -6.5078    3.9083 C   0  0  0  0  0  0  0  0  0  0  0  0
   -4.8678   -6.5772    3.6877 C   0  0  0  0  0  0  0  0  0  0  0  0
   -5.6483   -7.4235    4.4486 C   0  0  0  0  0  0  0  0  0  0  0  0
   -5.0883   -8.2114    5.4489 C   0  0  0  0  0  0  0  0  0  0  0  0
   -5.9402   -9.1537    6.2389 C   0  0  0  0  0  0  0  0  0  0  0  0
   -3.7200   -8.1184    5.6752 C   0  0  0  0  0  0  0  0  0  0  0  0
   -2.9261   -7.2794    4.9185 C   0  0  0  0  0  0  0  0  0  0  0  0
   -2.5447   -4.2389    1.1635 C   0  0  0  0  0  0  0  0  0  0  0  0
   -1.8543   -2.7299    1.6782 S   0  0  0  0  0  0  0  0  0  0  0  0
   -1.8454   -2.1414    0.0295 C   0  0  0  0  0  0  0  0  0  0  0  0
   -2.3937   -3.0582   -0.8573 C   0  0  0  0  0  0  0  0  0  0  0  0
   -2.5426   -2.8939   -2.2480 N   0  0  0  0  0  0  0  0  0  0  0  0
   -3.8680   -2.8459   -2.7047 C   0  0  0  0  0  0  0  0  0  0  0  0
   -4.2873   -3.5198   -3.8498 C   0  0  0  0  0  0  0  0  0  0  0  0
   -5.6028   -3.4403   -4.2576 C   0  0  0  0  0  0  0  0  0  0  0  0
   -6.5409   -2.7059   -3.5400 C   0  0  0  0  0  0  0  0  0  0  0  0
   -7.9632   -2.6306   -4.0054 C   0  0  0  0  0  0  0  0  0  0  0  0
   -6.1185   -2.0479   -2.3931 C   0  0  0  0  0  0  0  0  0  0  0  0
   -4.8029   -2.1113   -1.9777 C   0  0  0  0  0  0  0  0  0  0  0  0
   -1.5010   -3.3349   -3.0835 C   0  0  0  0  0  0  0  0  0  0  0  0
   -1.3532   -2.7797   -4.3527 C   0  0  0  0  0  0  0  0  0  0  0  0
   -0.3435   -3.2131   -5.1895 C   0  0  0  0  0  0  0  0  0  0  0  0
    0.5475   -4.2012   -4.7894 C   0  0  0  0  0  0  0  0  0  0  0  0
    1.6380   -4.6863   -5.6933 C   0  0  0  0  0  0  0  0  0  0  0  0
    0.4088   -4.7320   -3.5121 C   0  0  0  0  0  0  0  0  0  0  0  0
   -0.5955   -4.3057   -2.6653 C   0  0  0  0  0  0  0  0  0  0  0  0
   -2.8044   -4.2296   -0.1959 C   0  0  0  0  0  0  0  0  0  0  0  0
   -3.4660   -5.7235   -0.7524 S   0  0  0  0  0  0  0  0  0  0  0  0
   -1.2830   -0.8492   -0.2399 C   0  0  0  0  0  0  0  0  0  0  0  0
   -1.0789   -0.3335   -1.5113 C   0  0  0  0  0  0  0  0  0  0  0  0
   -0.4192    0.8739   -1.7107 C   0  0  0  0  0  0  0  0  0  0  0  0
    0.0320    1.6544   -0.6597 C   0  0  0  0  0  0  0  0  0  0  0  0
   -0.2647    1.2249    0.6618 C   0  0  0  0  0  0  0  0  0  0  0  0
    0.0960    1.9752    1.7148 N   0  0  0  0  0  0  0  0  0  0  0  0
   -0.1074    1.4974    2.9145 C   0  0  0  0  0  0  0  0  0  0  0  0
   -0.6769    0.2297    3.1180 C   0  0  0  0  0  0  0  0  0  0  0  0
   -1.0575   -0.5035    2.1044 N   0  0  0  0  0  0  0  0  0  0  0  0
   -0.8772   -0.0419    0.8616 C   0  0  0  0  0  0  0  0  0  0  0  0
    0.8863    2.7997   -0.8605 C   0  0  0  0  0  0  0  0  0  0  0  0
    2.0085    2.8440   -1.6764 C   0  0  0  0  0  0  0  0  0  0  0  0
    2.5163    1.7585   -2.3690 N   0  0  0  0  0  0  0  0  0  0  0  0
    3.1424    1.9522   -3.6046 C   0  0  0  0  0  0  0  0  0  0  0  0
    2.6934    2.9462   -4.4715 C   0  0  0  0  0  0  0  0  0  0  0  0
    3.3244    3.1502   -5.6828 C   0  0  0  0  0  0  0  0  0  0  0  0
    4.4035    2.3670   -6.0706 C   0  0  0  0  0  0  0  0  0  0  0  0
    5.1004    2.6059   -7.3746 C   0  0  0  0  0  0  0  0  0  0  0  0
    4.8353    1.3669   -5.2059 C   0  0  0  0  0  0  0  0  0  0  0  0
    4.2222    1.1596   -3.9876 C   0  0  0  0  0  0  0  0  0  0  0  0
    2.4362    0.4842   -1.7801 C   0  0  0  0  0  0  0  0  0  0  0  0
    2.1039   -0.6338   -2.5374 C   0  0  0  0  0  0  0  0  0  0  0  0
    1.9201   -1.8594   -1.9242 C   0  0  0  0  0  0  0  0  0  0  0  0
    2.0442   -2.0006   -0.5492 C   0  0  0  0  0  0  0  0  0  0  0  0
    1.7825   -3.3055    0.1355 C   0  0  0  0  0  0  0  0  0  0  0  0
    2.4253   -0.8867    0.1938 C   0  0  0  0  0  0  0  0  0  0  0  0
    2.6310    0.3363   -0.4074 C   0  0  0  0  0  0  0  0  0  0  0  0
    2.6402    4.1063   -1.5859 C   0  0  0  0  0  0  0  0  0  0  0  0
    4.0116    4.8076   -2.3495 S   0  0  0  0  0  0  0  0  0  0  0  0
    3.8428    6.2715   -1.3694 C   0  0  0  0  0  0  0  0  0  0  0  0
    2.6872    6.2291   -0.5577 C   0  0  0  0  0  0  0  0  0  0  0  0
    2.1796    7.2533    0.1990 N   0  0  0  0  0  0  0  0  0  0  0  0
    1.2573    6.9390    1.2329 C   0  0  0  0  0  0  0  0  0  0  0  0
    0.0074    7.5475    1.2563 C   0  0  0  0  0  0  0  0  0  0  0  0
   -0.8872    7.2513    2.2658 C   0  0  0  0  0  0  0  0  0  0  0  0
   -0.5606    6.3487    3.2702 C   0  0  0  0  0  0  0  0  0  0  0  0
   -1.5379    6.0062    4.3510 C   0  0  0  0  0  0  0  0  0  0  0  0
    0.6932    5.7502    3.2390 C   0  0  0  0  0  0  0  0  0  0  0  0
    1.5963    6.0354    2.2349 C   0  0  0  0  0  0  0  0  0  0  0  0
    2.3022    8.6084   -0.1472 C   0  0  0  0  0  0  0  0  0  0  0  0
    2.4370    9.0251   -1.4696 C   0  0  0  0  0  0  0  0  0  0  0  0
    2.5883   10.3647   -1.7651 C   0  0  0  0  0  0  0  0  0  0  0  0
    2.5869   11.3300   -0.7639 C   0  0  0  0  0  0  0  0  0  0  0  0
    2.7712   12.7765   -1.0970 C   0  0  0  0  0  0  0  0  0  0  0  0
    2.3907   10.9132    0.5471 C   0  0  0  0  0  0  0  0  0  0  0  0
    2.2596    9.5751    0.8582 C   0  0  0  0  0  0  0  0  0  0  0  0
    2.0409    4.9771   -0.6830 C   0  0  0  0  0  0  0  0  0  0  0  0
    0.6653    4.2497    0.0796 S   0  0  0  0  0  0  0  0  0  0  0  0
    4.8438    7.2303   -1.5496 C   0  0  0  0  0  0  0  0  0  0  0  0
    5.2136    8.2971   -0.7618 C   0  0  0  0  0  0  0  0  0  0  0  0
    5.8750    9.4657   -1.3759 C   0  0  0  0  0  0  0  0  0  0  0  0
    6.2891    9.5718   -2.5086 O   0  0  0  0  0  0  0  0  0  0  0  0
    5.8594   10.5124   -0.3228 C   0  0  0  0  0  0  0  0  0  0  0  0
    6.2575   11.8293   -0.4107 C   0  0  0  0  0  0  0  0  0  0  0  0
    6.1263   12.6338    0.7154 C   0  0  0  0  0  0  0  0  0  0  0  0
    6.5741   14.2963    0.6618 Cl  0  0  0  0  0  0  0  0  0  0  0  0
    5.6246   12.0856    1.8956 C   0  0  0  0  0  0  0  0  0  0  0  0
    5.4979   12.8694    2.9763 F   0  0  0  0  0  0  0  0  0  0  0  0
    5.2357   10.7586    1.9956 C   0  0  0  0  0  0  0  0  0  0  0  0
    5.3395    9.9694    0.8637 C   0  0  0  0  0  0  0  0  0  0  0  0
    5.0058    8.5657    0.6300 C   0  0  0  0  0  0  0  0  0  0  0  0
    4.7611    7.6222    1.6048 C   0  0  0  0  0  0  0  0  0  0  0  0
    4.4939    7.9299    2.9494 C   0  0  0  0  0  0  0  0  0  0  0  0
    4.2140    8.1312    4.0457 N   0  0  0  0  0  0  0  0  0  0  0  0
    4.8235    6.2418    1.3562 C   0  0  0  0  0  0  0  0  0  0  0  0
    4.9091    5.1050    1.2070 N   0  0  0  0  0  0  0  0  0  0  0  0
   -3.9468   -8.0868    2.0434 H   0  0  0  0  0  0  0  0  0  0  0  0
   -5.3547  -12.4548   -0.7392 H   0  0  0  0  0  0  0  0  0  0  0  0
   -2.3870   -9.9066   -3.8250 H   0  0  0  0  0  0  0  0  0  0  0  0
   -2.8727   -4.3169    5.4235 H   0  0  0  0  0  0  0  0  0  0  0  0
   -1.0751   -3.0337    6.5043 H   0  0  0  0  0  0  0  0  0  0  0  0
    1.1713   -2.2768    6.5982 H   0  0  0  0  0  0  0  0  0  0  0  0
    1.7726   -1.8636    4.9880 H   0  0  0  0  0  0  0  0  0  0  0  0
    2.3681   -3.3051    5.8008 H   0  0  0  0  0  0  0  0  0  0  0  0
    1.6086   -4.1581    3.3846 H   0  0  0  0  0  0  0  0  0  0  0  0
   -0.1869   -5.4450    2.2979 H   0  0  0  0  0  0  0  0  0  0  0  0
   -5.3156   -5.9645    2.9187 H   0  0  0  0  0  0  0  0  0  0  0  0
   -6.7111   -7.4743    4.2637 H   0  0  0  0  0  0  0  0  0  0  0  0
   -6.9090   -8.7100    6.4583 H   0  0  0  0  0  0  0  0  0  0  0  0
   -5.4562   -9.4301    7.1722 H   0  0  0  0  0  0  0  0  0  0  0  0
   -6.1121  -10.0624    5.6614 H   0  0  0  0  0  0  0  0  0  0  0  0
   -3.2659   -8.7199    6.4489 H   0  0  0  0  0  0  0  0  0  0  0  0
   -1.8624   -7.2240    5.0957 H   0  0  0  0  0  0  0  0  0  0  0  0
   -3.5835   -4.1169   -4.4097 H   0  0  0  0  0  0  0  0  0  0  0  0
   -5.9128   -3.9717   -5.1460 H   0  0  0  0  0  0  0  0  0  0  0  0
   -8.0328   -2.0281   -4.9113 H   0  0  0  0  0  0  0  0  0  0  0  0
   -8.3428   -3.6242   -4.2377 H   0  0  0  0  0  0  0  0  0  0  0  0
   -8.5982   -2.1815   -3.2459 H   0  0  0  0  0  0  0  0  0  0  0  0
   -6.8270   -1.4718   -1.8149 H   0  0  0  0  0  0  0  0  0  0  0  0
   -4.4907   -1.5878   -1.0853 H   0  0  0  0  0  0  0  0  0  0  0  0
   -2.0442   -2.0172   -4.6832 H   0  0  0  0  0  0  0  0  0  0  0  0
   -0.2498   -2.7761   -6.1734 H   0  0  0  0  0  0  0  0  0  0  0  0
    1.5087   -4.3025   -6.7021 H   0  0  0  0  0  0  0  0  0  0  0  0
    2.6102   -4.3608   -5.3221 H   0  0  0  0  0  0  0  0  0  0  0  0
    1.6416   -5.7742   -5.7269 H   0  0  0  0  0  0  0  0  0  0  0  0
    1.0878   -5.5043   -3.1801 H   0  0  0  0  0  0  0  0  0  0  0  0
   -0.6832   -4.7392   -1.6810 H   0  0  0  0  0  0  0  0  0  0  0  0
   -1.3970   -0.8934   -2.3727 H   0  0  0  0  0  0  0  0  0  0  0  0
   -0.2415    1.2064   -2.7224 H   0  0  0  0  0  0  0  0  0  0  0  0
    0.1877    2.1275    3.7421 H   0  0  0  0  0  0  0  0  0  0  0  0
   -0.8283   -0.1878    4.1036 H   0  0  0  0  0  0  0  0  0  0  0  0
    1.8410    3.5506   -4.1965 H   0  0  0  0  0  0  0  0  0  0  0  0
    2.9655    3.9279   -6.3414 H   0  0  0  0  0  0  0  0  0  0  0  0
    5.9525    3.2696   -7.2241 H   0  0  0  0  0  0  0  0  0  0  0  0
    5.4723    1.6732   -7.7926 H   0  0  0  0  0  0  0  0  0  0  0  0
    4.4318    3.0741   -8.0930 H   0  0  0  0  0  0  0  0  0  0  0  0
    5.6731    0.7460   -5.4883 H   0  0  0  0  0  0  0  0  0  0  0  0
    4.5777    0.3879   -3.3214 H   0  0  0  0  0  0  0  0  0  0  0  0
    1.9714   -0.5381   -3.6051 H   0  0  0  0  0  0  0  0  0  0  0  0
    1.6468   -2.7122   -2.5264 H   0  0  0  0  0  0  0  0  0  0  0  0
    2.6932   -3.6789    0.6032 H   0  0  0  0  0  0  0  0  0  0  0  0
    1.4257   -4.0520   -0.5677 H   0  0  0  0  0  0  0  0  0  0  0  0
    1.0353   -3.1770    0.9183 H   0  0  0  0  0  0  0  0  0  0  0  0
    2.5606   -0.9824    1.2622 H   0  0  0  0  0  0  0  0  0  0  0  0
    2.9258    1.1899    0.1855 H   0  0  0  0  0  0  0  0  0  0  0  0
   -0.2597    8.2488    0.4793 H   0  0  0  0  0  0  0  0  0  0  0  0
   -1.8567    7.7276    2.2686 H   0  0  0  0  0  0  0  0  0  0  0  0
   -1.0405    5.9545    5.3172 H   0  0  0  0  0  0  0  0  0  0  0  0
   -2.3363    6.7417    4.4038 H   0  0  0  0  0  0  0  0  0  0  0  0
   -1.9834    5.0314    4.1505 H   0  0  0  0  0  0  0  0  0  0  0  0
    0.9721    5.0532    4.0145 H   0  0  0  0  0  0  0  0  0  0  0  0
    2.5619    5.5555    2.2259 H   0  0  0  0  0  0  0  0  0  0  0  0
    2.4201    8.2998   -2.2685 H   0  0  0  0  0  0  0  0  0  0  0  0
    2.7109   10.6657   -2.7948 H   0  0  0  0  0  0  0  0  0  0  0  0
    1.8272   13.2086   -1.4301 H   0  0  0  0  0  0  0  0  0  0  0  0
    3.4949   12.8944   -1.9002 H   0  0  0  0  0  0  0  0  0  0  0  0
    3.1118   13.3343   -0.2284 H   0  0  0  0  0  0  0  0  0  0  0  0
    2.3603   11.6444    1.3412 H   0  0  0  0  0  0  0  0  0  0  0  0
    2.1358    9.2695    1.8868 H   0  0  0  0  0  0  0  0  0  0  0  0
    5.3868    7.1567   -2.4876 H   0  0  0  0  0  0  0  0  0  0  0  0
    6.6571   12.2244   -1.3309 H   0  0  0  0  0  0  0  0  0  0  0  0
    4.8515   10.3920    2.9338 H   0  0  0  0  0  0  0  0  0  0  0  0
  1  2  2  0  0  0  0
  2  3  1  0  0  0  0
  3  4  2  0  0  0  0
  3  5  1  0  0  0  0
  5  6  2  0  0  0  0
  6  7  1  0  0  0  0
  7  8  1  0  0  0  0
  7  9  2  0  0  0  0
  9 10  1  0  0  0  0
  9 11  1  0  0  0  0
 11 12  2  0  0  0  0
 12 13  1  0  0  0  0
 13 14  2  0  0  0  0
 14 15  1  0  0  0  0
 15 16  3  0  0  0  0
 14 17  1  0  0  0  0
 17 18  3  0  0  0  0
  1 19  1  0  0  0  0
 19 20  2  0  0  0  0
 20 21  1  0  0  0  0
 21 22  1  0  0  0  0
 22 23  2  0  0  0  0
 23 24  1  0  0  0  0
 24 25  2  0  0  0  0
 25 26  1  0  0  0  0
 25 27  1  0  0  0  0
 27 28  2  0  0  0  0
 21 29  1  0  0  0  0
 29 30  2  0  0  0  0
 30 31  1  0  0  0  0
 31 32  2  0  0  0  0
 32 33  1  0  0  0  0
 32 34  1  0  0  0  0
 34 35  2  0  0  0  0
 20 36  1  0  0  0  0
 36 37  1  0  0  0  0
 37 38  1  0  0  0  0
 38 39  2  0  0  0  0
 39 40  1  0  0  0  0
 40 41  1  0  0  0  0
 41 42  2  0  0  0  0
 42 43  1  0  0  0  0
 43 44  2  0  0  0  0
 44 45  1  0  0  0  0
 44 46  1  0  0  0  0
 46 47  2  0  0  0  0
 40 48  1  0  0  0  0
 48 49  2  0  0  0  0
 49 50  1  0  0  0  0
 50 51  2  0  0  0  0
 51 52  1  0  0  0  0
 51 53  1  0  0  0  0
 53 54  2  0  0  0  0
 39 55  1  0  0  0  0
 55 56  1  0  0  0  0
 38 57  1  0  0  0  0
 57 58  2  0  0  0  0
 58 59  1  0  0  0  0
 59 60  2  0  0  0  0
 60 61  1  0  0  0  0
 61 62  2  0  0  0  0
 62 63  1  0  0  0  0
 63 64  2  0  0  0  0
 64 65  1  0  0  0  0
 65 66  2  0  0  0  0
 60 67  1  0  0  0  0
 67 68  2  0  0  0  0
 68 69  1  0  0  0  0
 69 70  1  0  0  0  0
 70 71  2  0  0  0  0
 71 72  1  0  0  0  0
 72 73  2  0  0  0  0
 73 74  1  0  0  0  0
 73 75  1  0  0  0  0
 75 76  2  0  0  0  0
 69 77  1  0  0  0  0
 77 78  2  0  0  0  0
 78 79  1  0  0  0  0
 79 80  2  0  0  0  0
 80 81  1  0  0  0  0
 80 82  1  0  0  0  0
 82 83  2  0  0  0  0
 68 84  1  0  0  0  0
 84 85  1  0  0  0  0
 85 86  1  0  0  0  0
 86 87  2  0  0  0  0
 87 88  1  0  0  0  0
 88 89  1  0  0  0  0
 89 90  2  0  0  0  0
 90 91  1  0  0  0  0
 91 92  2  0  0  0  0
 92 93  1  0  0  0  0
 92 94  1  0  0  0  0
 94 95  2  0  0  0  0
 88 96  1  0  0  0  0
 96 97  2  0  0  0  0
 97 98  1  0  0  0  0
 98 99  2  0  0  0  0
 99100  1  0  0  0  0
 99101  1  0  0  0  0
101102  2  0  0  0  0
 87103  1  0  0  0  0
103104  1  0  0  0  0
 86105  1  0  0  0  0
105106  2  0  0  0  0
106107  1  0  0  0  0
107108  2  0  0  0  0
107109  1  0  0  0  0
109110  2  0  0  0  0
110111  1  0  0  0  0
111112  1  0  0  0  0
111113  2  0  0  0  0
113114  1  0  0  0  0
113115  1  0  0  0  0
115116  2  0  0  0  0
116117  1  0  0  0  0
117118  2  0  0  0  0
118119  1  0  0  0  0
119120  3  0  0  0  0
118121  1  0  0  0  0
121122  3  0  0  0  0
 13  2  1  0  0  0  0
 56 19  1  0  0  0  0
 66 57  1  0  0  0  0
104 67  1  0  0  0  0
117106  1  0  0  0  0
 12  5  1  0  0  0  0
 28 22  1  0  0  0  0
 35 29  1  0  0  0  0
 55 36  2  0  0  0  0
 66 61  1  0  0  0  0
 76 70  1  0  0  0  0
 83 77  1  0  0  0  0
103 84  2  0  0  0  0
116109  1  0  0  0  0
 47 41  1  0  0  0  0
 54 48  1  0  0  0  0
 95 89  1  0  0  0  0
102 96  1  0  0  0  0
  1123  1  0  0  0  0
  6124  1  0  0  0  0
 11125  1  0  0  0  0
 23126  1  0  0  0  0
 24127  1  0  0  0  0
 26128  1  0  0  0  0
 26129  1  0  0  0  0
 26130  1  0  0  0  0
 27131  1  0  0  0  0
 28132  1  0  0  0  0
 30133  1  0  0  0  0
 31134  1  0  0  0  0
 33135  1  0  0  0  0
 33136  1  0  0  0  0
 33137  1  0  0  0  0
 34138  1  0  0  0  0
 35139  1  0  0  0  0
 42140  1  0  0  0  0
 43141  1  0  0  0  0
 45142  1  0  0  0  0
 45143  1  0  0  0  0
 45144  1  0  0  0  0
 46145  1  0  0  0  0
 47146  1  0  0  0  0
 49147  1  0  0  0  0
 50148  1  0  0  0  0
 52149  1  0  0  0  0
 52150  1  0  0  0  0
 52151  1  0  0  0  0
 53152  1  0  0  0  0
 54153  1  0  0  0  0
 58154  1  0  0  0  0
 59155  1  0  0  0  0
 63156  1  0  0  0  0
 64157  1  0  0  0  0
 71158  1  0  0  0  0
 72159  1  0  0  0  0
 74160  1  0  0  0  0
 74161  1  0  0  0  0
 74162  1  0  0  0  0
 75163  1  0  0  0  0
 76164  1  0  0  0  0
 78165  1  0  0  0  0
 79166  1  0  0  0  0
 81167  1  0  0  0  0
 81168  1  0  0  0  0
 81169  1  0  0  0  0
 82170  1  0  0  0  0
 83171  1  0  0  0  0
 90172  1  0  0  0  0
 91173  1  0  0  0  0
 93174  1  0  0  0  0
 93175  1  0  0  0  0
 93176  1  0  0  0  0
 94177  1  0  0  0  0
 95178  1  0  0  0  0
 97179  1  0  0  0  0
 98180  1  0  0  0  0
100181  1  0  0  0  0
100182  1  0  0  0  0
100183  1  0  0  0  0
101184  1  0  0  0  0
102185  1  0  0  0  0
105186  1  0  0  0  0
110187  1  0  0  0  0
115188  1  0  0  0  0
M  END
