241

C          8.58210        3.19200        1.91960
C          9.31160        3.84690        0.93490
C          9.08010        3.66630       -0.49520
O          8.23930        2.96510       -1.03780
C         10.17060        4.40810       -1.17220
C         10.40430        4.55630       -2.52160
C         11.49130        5.32720       -2.92140
Cl        11.82660        5.56400       -4.59470
C         12.30850        5.91220       -1.95670
F         13.35580        6.65210       -2.34910
C         12.08210        5.76110       -0.59540
C         10.99660        5.00010       -0.20210
C         10.46640        4.67160        1.12080
C         10.90150        5.19900        2.31400
C         11.97700        6.09660        2.43100
N         12.83480        6.84650        2.58090
C         10.26520        4.97130        3.54940
N          9.77410        4.85530        4.58160
C          7.27150        2.75720        1.79760
C          6.23170        3.16200        0.91850
N          6.20410        4.28930        0.16810
C          7.02530        5.40620        0.39290
C          7.56660        6.08540       -0.69530
C          8.40290        7.16800       -0.49330
C          8.70750        7.60950        0.78670
C          9.64470        8.75210        1.01590
C          8.11560        6.95730        1.86730
C          7.28750        5.87150        1.68080
C          5.23570        4.43680       -0.86430
C          4.22260        5.37650       -0.72130
C          3.30340        5.55080       -1.73730
C          3.38580        4.81210       -2.91270
C          2.41400        5.04570       -4.02620
C          4.41380        3.88690       -3.04580
C          5.33390        3.69370       -2.03180
C          5.13250        2.28480        1.03490
S          3.60690        2.15580        0.23280
C          3.16340        0.76340        1.22180
C          4.11140        0.50340        2.20640
N          4.01830       -0.44950        3.20850
C          5.17360       -1.16290        3.56790
C          5.44800       -1.47710        4.89680
C          6.59120       -2.17970        5.21800
C          7.49550       -2.57870        4.23900
C          8.74000       -3.32330        4.61370
C          7.21890       -2.25360        2.91820
C          6.07350       -1.55910        2.58320
C          2.88080       -0.48890        4.03000
C          2.20700        0.68460        4.36700
C          1.06940        0.63230        5.14860
C          0.57810       -0.57910        5.61940
C         -0.67060       -0.61480        6.44580
C          1.27250       -1.74130        5.30210
C          2.40970       -1.70430        4.52120
C          5.24310        1.33920        2.04510
S          6.74390        1.45730        2.88410
C          1.93290        0.12340        0.87660
C          1.46860       -0.03310       -0.42860
N          2.26030        0.11610       -1.55800
C          1.73880        0.72290       -2.70000
C          0.78750        1.73350       -2.58870
C          0.26840        2.33800       -3.71570
C          0.68870        1.94180       -4.97680
S          0.11250        2.67310       -6.48070
C         -1.37270        3.58340       -5.96860
C          1.64280        0.93310       -5.09380
C          2.15980        0.32800       -3.97150
C          3.58470       -0.35120       -1.52390
C          3.90760       -1.52780       -0.84950
C          5.22290       -1.92010       -0.73140
C          6.24700       -1.13510       -1.26120
S          7.90270       -1.64610       -0.93040
C          8.90690       -0.25360       -1.51500
C          5.92340        0.00050       -1.99070
C          4.60370        0.38100       -2.12550
C          0.12790       -0.48240       -0.44830
S         -1.04800       -0.80570       -1.67390
C         -2.22350       -1.27790       -0.45410
C         -1.71070       -1.21350        0.82060
N         -2.36360       -1.70810        1.97020
C         -2.00250       -3.02340        2.32440
C         -2.00480       -4.03250        1.36680
C         -1.64530       -5.32650        1.69670
C         -1.27190       -5.63520        2.99580
S         -0.80350       -7.24850        3.54510
C         -0.91690       -8.27170        2.05050
C         -1.24840       -4.62390        3.95430
C         -1.60080       -3.33550        3.62430
C         -2.85030       -0.83210        2.94200
C         -3.80540       -1.29240        3.85030
C         -4.36480       -0.44780        4.78470
C         -3.98270        0.88640        4.83220
S         -4.66090        2.05150        5.97760
C         -6.26300        1.30640        6.39720
C         -3.00940        1.34490        3.95280
C         -2.45280        0.50080        3.01370
C         -0.38110       -0.73920        0.81400
S          0.76220       -0.42700        2.06420
C         -3.54920       -1.69240       -0.82710
C         -4.74200       -1.12720       -0.41740
N         -4.86400        0.05720        0.29440
C         -5.91550        0.15640        1.21560
C         -6.25570       -0.95470        1.98420
C         -7.29760       -0.88810        2.88710
C         -8.02700        0.28160        3.05480
C         -9.17780        0.34480        4.01400
C         -7.68630        1.38450        2.27960
C         -6.65320        1.32820        1.36660
C         -4.11060        1.17380       -0.09850
C         -3.65850        1.30660       -1.41010
C         -2.90230        2.39940       -1.78150
C         -2.57480        3.39580       -0.87070
C         -1.73780        4.57160       -1.27700
C         -3.05050        3.26970        0.42820
C         -3.81070        2.18310        0.81250
C         -5.84310       -1.84560       -0.94180
S         -7.54980       -1.67210       -0.79310
C         -7.80890       -2.99160       -1.94100
C         -6.59840       -3.58030       -2.34440
N         -6.45790       -4.60960       -3.23040
C         -7.37150       -5.67360       -3.27690
C         -7.77490       -6.20390       -4.49860
C         -8.68070       -7.24580       -4.53290
C         -9.20530       -7.78230       -3.36260
C        -10.22380       -8.87710       -3.40370
C         -8.78280       -7.25660       -2.14630
C         -7.87480       -6.21870       -2.09670
C         -5.37570       -4.58870       -4.13460
C         -5.02080       -3.40040       -4.76950
C         -3.95280       -3.38410       -5.64250
C         -3.22600       -4.53950       -5.91330
C         -2.06460       -4.49430       -6.85700
C         -3.60300       -5.72100       -5.28790
C         -4.66450       -5.75220       -4.40350
C         -5.49690       -2.88490       -1.78700
S         -3.78070       -3.03940       -1.92980
C         -9.11360       -3.30950       -2.35170
C        -10.19870       -2.47340       -2.38920
C        -11.56690       -3.05180       -2.37860
O        -11.86430       -4.21800       -2.52120
C        -12.44980       -1.90440       -2.10750
C        -13.76900       -1.68560       -1.88500
S        -14.07700       -0.00600       -1.62540
C        -12.41230        0.40650       -1.82920
C        -11.66710       -0.70250       -2.07540
C        -10.28630       -1.03250       -2.37540
C         -9.34770       -0.12770       -2.81280
C         -8.12530       -0.48790       -3.40550
N         -7.14890       -0.75070       -3.95310
C         -9.59150        1.25730       -2.78280
N         -9.76930        2.39130       -2.74500
H          9.08010        2.94450        2.84920
H          9.75820        4.09430       -3.25080
H         12.75470        6.23380        0.10150
H          7.34120        5.75080       -1.69660
H          8.83290        7.66860       -1.34840
H          9.96280        9.19080        0.07400
H         10.52920        8.41430        1.55580
H          9.16690        9.52220        1.61940
H          8.31500        7.30370        2.87080
H          6.84480        5.37930        2.53350
H          4.16030        5.96130        0.18470
H          2.51300        6.27780       -1.61980
H          2.34330        4.17470       -4.67210
H          1.42760        5.27930       -3.63230
H          2.74170        5.89170       -4.63140
H          4.49960        3.32270       -3.96380
H          6.14910        2.99440       -2.13050
H          4.76840       -1.16230        5.67460
H          6.79250       -2.41490        6.25330
H          8.50660       -4.15190        5.28010
H          9.43020       -2.66090        5.13620
H          9.24000       -3.71210        3.73040
H          7.90090       -2.54700        2.13350
H          5.86990       -1.31850        1.55130
H          2.57840        1.63420        4.00930
H          0.55030        1.54660        5.39610
H         -1.52520       -0.28970        5.85170
H         -0.58610        0.06200        7.29450
H         -0.86510       -1.61750        6.81890
H          0.91480       -2.69430        5.66360
H          2.93260       -2.61560        4.27260
H          0.46330        2.05630       -1.61050
H         -0.45050        3.13060       -3.59590
H         -2.03610        2.92040       -5.42140
H         -1.85080        3.90660       -6.88810
H         -1.09910        4.45130       -5.37520
H          1.96570        0.62670       -6.07710
H          2.88760       -0.46310       -4.07050
H          3.12500       -2.12690       -0.40790
H          5.47270       -2.83640       -0.21820
H          8.53980        0.67820       -1.09320
H          9.91410       -0.44980       -1.15960
H          8.90250       -0.22160       -2.60110
H          6.69140        0.60650       -2.44170
H          4.35350        1.27480       -2.67320
H         -2.28840       -3.81260        0.34950
H         -1.66540       -6.07950        0.92540
H         -0.62640       -9.27120        2.35900
H         -0.22830       -7.90400        1.29530
H         -1.93880       -8.28220        1.68280
H         -0.93870       -4.86430        4.96010
H         -1.55420       -2.55660        4.36890
H         -4.11090       -2.32740        3.81970
H         -5.10140       -0.83820        5.46800
H         -6.84170        2.09220        6.87240
H         -6.12770        0.48200        7.09170
H         -6.75040        0.97890        5.48400
H         -2.69480        2.37610        4.00690
H         -1.71790        0.88950        2.32770
H         -5.69560       -1.87060        1.86890
H         -7.54580       -1.76130        3.47370
H        -10.10730        0.11470        3.49180
H         -9.05850       -0.37830        4.81820
H         -9.27510        1.34020        4.44240
H         -8.24910        2.30100        2.38250
H         -6.42600        2.18890        0.75610
H         -3.91620        0.56480       -2.15110
H         -2.57290        2.47700       -2.80680
H         -1.98330        4.88770       -2.28950
H         -1.89740        5.40970       -0.60290
H         -0.67800        4.31260       -1.24790
H         -2.82640        4.03650        1.15590
H         -4.17740        2.11290        1.82350
H         -7.38470       -5.78590       -5.41450
H         -8.99550       -7.64080       -5.48750
H        -11.22190       -8.44910       -3.30650
H        -10.07790       -9.57490       -2.58200
H        -10.17730       -9.42000       -4.34440
H         -9.17210       -7.66550       -1.22560
H         -7.55130       -5.81910       -1.14630
H         -5.59110       -2.50210       -4.58360
H         -3.68150       -2.45960       -6.13040
H         -2.36130       -4.05050       -7.80600
H         -1.67290       -5.49080       -7.04390
H         -1.26680       -3.88060       -6.43950
H         -3.05540       -6.63050       -5.48800
H         -4.94490       -6.67450       -3.91610
H         -9.32380       -4.33960       -2.61880
H        -14.57750       -2.38810       -1.86020
H        -12.10670        1.43000       -1.74340
