
  xtb     02112205503D
 energy: -344.022408008484 gnorm: 0.000544336896 xtb: 6.4.1 (unknown)
198216  0     0  0            999 V2000
    6.5817   -3.8903   -2.0787 C   0  0  0  0  0  0  0  0  0  0  0  0
    7.6192   -4.6634   -1.5872 C   0  0  0  0  0  0  0  0  0  0  0  0
    8.1112   -4.6799   -0.2147 C   0  0  0  0  0  0  0  0  0  0  0  0
    7.6721   -4.0883    0.7578 O   0  0  0  0  0  0  0  0  0  0  0  0
    9.2926   -5.5732   -0.2182 C   0  0  0  0  0  0  0  0  0  0  0  0
   10.1139   -5.9151    0.8348 C   0  0  0  0  0  0  0  0  0  0  0  0
   11.1785   -6.7743    0.5871 C   0  0  0  0  0  0  0  0  0  0  0  0
   12.2429   -7.2404    1.8577 Cl  0  0  0  0  0  0  0  0  0  0  0  0
   11.3793   -7.2589   -0.7051 C   0  0  0  0  0  0  0  0  0  0  0  0
   12.4078   -8.0859   -0.9377 F   0  0  0  0  0  0  0  0  0  0  0  0
   10.5537   -6.9212   -1.7678 C   0  0  0  0  0  0  0  0  0  0  0  0
    9.4947   -6.0643   -1.5188 C   0  0  0  0  0  0  0  0  0  0  0  0
    8.4440   -5.5314   -2.3881 C   0  0  0  0  0  0  0  0  0  0  0  0
    8.2873   -5.8499   -3.7173 C   0  0  0  0  0  0  0  0  0  0  0  0
    7.2126   -5.4573   -4.5374 C   0  0  0  0  0  0  0  0  0  0  0  0
    6.3578   -5.2179   -5.2689 N   0  0  0  0  0  0  0  0  0  0  0  0
    9.1833   -6.6594   -4.4430 C   0  0  0  0  0  0  0  0  0  0  0  0
    9.8806   -7.2974   -5.0959 N   0  0  0  0  0  0  0  0  0  0  0  0
    5.6937   -3.0498   -1.4272 C   0  0  0  0  0  0  0  0  0  0  0  0
    4.6281   -2.3895   -2.1007 C   0  0  0  0  0  0  0  0  0  0  0  0
    4.5182   -2.2438   -3.4489 N   0  0  0  0  0  0  0  0  0  0  0  0
    5.6179   -2.0486   -4.3026 C   0  0  0  0  0  0  0  0  0  0  0  0
    5.5604   -2.5137   -5.6141 C   0  0  0  0  0  0  0  0  0  0  0  0
    6.6266   -2.3079   -6.4663 C   0  0  0  0  0  0  0  0  0  0  0  0
    7.7721   -1.6468   -6.0391 C   0  0  0  0  0  0  0  0  0  0  0  0
    8.9326   -1.4663   -6.9674 C   0  0  0  0  0  0  0  0  0  0  0  0
    7.8115   -1.1712   -4.7331 C   0  0  0  0  0  0  0  0  0  0  0  0
    6.7487   -1.3577   -3.8728 C   0  0  0  0  0  0  0  0  0  0  0  0
    3.2224   -2.1550   -4.0120 C   0  0  0  0  0  0  0  0  0  0  0  0
    2.8493   -1.0459   -4.7619 C   0  0  0  0  0  0  0  0  0  0  0  0
    1.5767   -0.9769   -5.2917 C   0  0  0  0  0  0  0  0  0  0  0  0
    0.6599   -2.0045   -5.0934 C   0  0  0  0  0  0  0  0  0  0  0  0
   -0.7257   -1.8995   -5.6499 C   0  0  0  0  0  0  0  0  0  0  0  0
    1.0559   -3.1170   -4.3613 C   0  0  0  0  0  0  0  0  0  0  0  0
    2.3262   -3.1994   -3.8243 C   0  0  0  0  0  0  0  0  0  0  0  0
    3.6940   -1.8903   -1.1775 C   0  0  0  0  0  0  0  0  0  0  0  0
    2.1786   -1.0744   -1.3421 S   0  0  0  0  0  0  0  0  0  0  0  0
    2.0436   -0.9524    0.4102 C   0  0  0  0  0  0  0  0  0  0  0  0
    3.1765   -1.4139    1.0707 C   0  0  0  0  0  0  0  0  0  0  0  0
    3.4212   -1.2407    2.4136 N   0  0  0  0  0  0  0  0  0  0  0  0
    2.8222   -0.1829    3.1289 C   0  0  0  0  0  0  0  0  0  0  0  0
    2.6488    1.0833    2.5759 C   0  0  0  0  0  0  0  0  0  0  0  0
    2.0742    2.0925    3.3217 C   0  0  0  0  0  0  0  0  0  0  0  0
    1.6687    1.8769    4.6351 C   0  0  0  0  0  0  0  0  0  0  0  0
    1.0221    2.9745    5.4224 C   0  0  0  0  0  0  0  0  0  0  0  0
    1.8809    0.6217    5.1900 C   0  0  0  0  0  0  0  0  0  0  0  0
    2.4489   -0.3990    4.4503 C   0  0  0  0  0  0  0  0  0  0  0  0
    4.5414   -1.8441    3.0328 C   0  0  0  0  0  0  0  0  0  0  0  0
    5.4688   -1.0535    3.7051 C   0  0  0  0  0  0  0  0  0  0  0  0
    6.5735   -1.6323    4.2967 C   0  0  0  0  0  0  0  0  0  0  0  0
    6.7852   -3.0046    4.2375 C   0  0  0  0  0  0  0  0  0  0  0  0
    8.0161   -3.6206    4.8253 C   0  0  0  0  0  0  0  0  0  0  0  0
    5.8422   -3.7880    3.5873 C   0  0  0  0  0  0  0  0  0  0  0  0
    4.7315   -3.2201    2.9935 C   0  0  0  0  0  0  0  0  0  0  0  0
    4.0824   -2.0074    0.1528 C   0  0  0  0  0  0  0  0  0  0  0  0
    5.5976   -2.8247    0.3235 S   0  0  0  0  0  0  0  0  0  0  0  0
    0.8156   -0.4325    0.9433 C   0  0  0  0  0  0  0  0  0  0  0  0
   -0.0732   -1.0325    1.8228 C   0  0  0  0  0  0  0  0  0  0  0  0
    0.0694   -2.3061    2.3497 N   0  0  0  0  0  0  0  0  0  0  0  0
   -0.5139   -2.6358    3.5775 C   0  0  0  0  0  0  0  0  0  0  0  0
   -0.5896   -1.6981    4.6084 C   0  0  0  0  0  0  0  0  0  0  0  0
   -1.1737   -2.0303    5.8099 C   0  0  0  0  0  0  0  0  0  0  0  0
   -1.6954   -3.3047    6.0181 C   0  0  0  0  0  0  0  0  0  0  0  0
   -2.4184   -3.6083    7.6005 S   0  0  0  0  0  0  0  0  0  0  0  0
   -2.9652   -5.3368    7.5106 C   0  0  0  0  0  0  0  0  0  0  0  0
   -1.6219   -4.2422    4.9968 C   0  0  0  0  0  0  0  0  0  0  0  0
   -1.0416   -3.9076    3.7892 C   0  0  0  0  0  0  0  0  0  0  0  0
    0.6896   -3.2935    1.5678 C   0  0  0  0  0  0  0  0  0  0  0  0
    0.4582   -3.3530    0.1933 C   0  0  0  0  0  0  0  0  0  0  0  0
    1.1823   -4.2139   -0.5983 C   0  0  0  0  0  0  0  0  0  0  0  0
    2.1479   -5.0445   -0.0353 C   0  0  0  0  0  0  0  0  0  0  0  0
    3.1549   -5.9811   -1.1466 S   0  0  0  0  0  0  0  0  0  0  0  0
    4.5745   -6.4622   -0.1243 C   0  0  0  0  0  0  0  0  0  0  0  0
    2.2811   -5.0873    1.3455 C   0  0  0  0  0  0  0  0  0  0  0  0
    1.5625   -4.2121    2.1400 C   0  0  0  0  0  0  0  0  0  0  0  0
   -1.2148   -0.2157    2.0196 C   0  0  0  0  0  0  0  0  0  0  0  0
   -2.6897   -0.3881    2.9043 S   0  0  0  0  0  0  0  0  0  0  0  0
   -3.2848    1.1323    2.2730 C   0  0  0  0  0  0  0  0  0  0  0  0
   -2.3787    1.7363    1.4214 C   0  0  0  0  0  0  0  0  0  0  0  0
   -2.5895    2.9523    0.7360 N   0  0  0  0  0  0  0  0  0  0  0  0
   -2.1289    4.1242    1.3524 C   0  0  0  0  0  0  0  0  0  0  0  0
   -2.8484    5.3182    1.2713 C   0  0  0  0  0  0  0  0  0  0  0  0
   -2.4090    6.4585    1.9134 C   0  0  0  0  0  0  0  0  0  0  0  0
   -1.2397    6.4325    2.6612 C   0  0  0  0  0  0  0  0  0  0  0  0
   -0.5755    7.8207    3.5270 S   0  0  0  0  0  0  0  0  0  0  0  0
   -1.7671    9.1492    3.2030 C   0  0  0  0  0  0  0  0  0  0  0  0
   -0.5269    5.2407    2.7618 C   0  0  0  0  0  0  0  0  0  0  0  0
   -0.9658    4.1015    2.1248 C   0  0  0  0  0  0  0  0  0  0  0  0
   -3.3311    2.9627   -0.4451 C   0  0  0  0  0  0  0  0  0  0  0  0
   -4.2266    1.9352   -0.7544 C   0  0  0  0  0  0  0  0  0  0  0  0
   -4.9717    1.9782   -1.9115 C   0  0  0  0  0  0  0  0  0  0  0  0
   -4.8388    3.0363   -2.8065 C   0  0  0  0  0  0  0  0  0  0  0  0
   -5.8560    2.9852   -4.2464 S   0  0  0  0  0  0  0  0  0  0  0  0
   -5.2779    4.3897   -5.2408 C   0  0  0  0  0  0  0  0  0  0  0  0
   -3.9184    4.0389   -2.5309 C   0  0  0  0  0  0  0  0  0  0  0  0
   -3.1697    3.9936   -1.3729 C   0  0  0  0  0  0  0  0  0  0  0  0
   -1.2115    0.9552    1.2773 C   0  0  0  0  0  0  0  0  0  0  0  0
    0.2078    1.0922    0.3070 S   0  0  0  0  0  0  0  0  0  0  0  0
   -4.6665    1.5255    2.4581 C   0  0  0  0  0  0  0  0  0  0  0  0
   -5.0362    2.8757    2.3598 C   0  0  0  0  0  0  0  0  0  0  0  0
   -6.3625    3.1798    2.1793 C   0  0  0  0  0  0  0  0  0  0  0  0
   -6.9598    4.4900    1.8231 C   0  0  0  0  0  0  0  0  0  0  0  0
   -6.4153    5.5671    1.7584 O   0  0  0  0  0  0  0  0  0  0  0  0
   -8.3681    4.1598    1.4816 C   0  0  0  0  0  0  0  0  0  0  0  0
   -8.6057    2.7902    1.7212 C   0  0  0  0  0  0  0  0  0  0  0  0
   -7.3564    2.1816    2.1542 C   0  0  0  0  0  0  0  0  0  0  0  0
   -7.0090    0.8683    2.4127 C   0  0  0  0  0  0  0  0  0  0  0  0
   -5.6661    0.5523    2.5528 C   0  0  0  0  0  0  0  0  0  0  0  0
   -9.8454    2.2479    1.4369 C   0  0  0  0  0  0  0  0  0  0  0  0
  -10.7988    3.0499    0.8283 C   0  0  0  0  0  0  0  0  0  0  0  0
  -10.5244    4.3748    0.4771 C   0  0  0  0  0  0  0  0  0  0  0  0
   -9.3058    4.9528    0.8727 C   0  0  0  0  0  0  0  0  0  0  0  0
  -11.4655    5.1252   -0.3162 C   0  0  0  0  0  0  0  0  0  0  0  0
  -11.1697    6.0430   -1.2670 C   0  0  0  0  0  0  0  0  0  0  0  0
  -12.2317    6.9676   -1.7552 C   0  0  0  0  0  0  0  0  0  0  0  0
  -13.4224    6.8604   -1.5865 O   0  0  0  0  0  0  0  0  0  0  0  0
  -11.5032    8.0632   -2.4302 C   0  0  0  0  0  0  0  0  0  0  0  0
  -12.0096    9.2357   -2.9566 C   0  0  0  0  0  0  0  0  0  0  0  0
  -11.1134   10.1298   -3.5189 C   0  0  0  0  0  0  0  0  0  0  0  0
  -11.5598   11.2794   -4.0392 F   0  0  0  0  0  0  0  0  0  0  0  0
   -9.7464    9.8458   -3.5452 C   0  0  0  0  0  0  0  0  0  0  0  0
   -8.9030   10.7347   -4.0821 F   0  0  0  0  0  0  0  0  0  0  0  0
   -9.2375    8.6661   -3.0269 C   0  0  0  0  0  0  0  0  0  0  0  0
  -10.1282    7.7623   -2.4651 C   0  0  0  0  0  0  0  0  0  0  0  0
   -9.9127    6.4420   -1.8816 C   0  0  0  0  0  0  0  0  0  0  0  0
   -8.8041    5.6604   -2.0895 C   0  0  0  0  0  0  0  0  0  0  0  0
   -8.7128    4.2866   -1.7781 C   0  0  0  0  0  0  0  0  0  0  0  0
   -8.5860    3.1563   -1.6230 N   0  0  0  0  0  0  0  0  0  0  0  0
   -7.6278    6.1191   -2.7120 C   0  0  0  0  0  0  0  0  0  0  0  0
   -6.6345    6.4556   -3.1814 N   0  0  0  0  0  0  0  0  0  0  0  0
    6.4154   -3.9624   -3.1456 H   0  0  0  0  0  0  0  0  0  0  0  0
    9.9333   -5.5256    1.8238 H   0  0  0  0  0  0  0  0  0  0  0  0
   10.7645   -7.3320   -2.7415 H   0  0  0  0  0  0  0  0  0  0  0  0
    4.6862   -3.0456   -5.9544 H   0  0  0  0  0  0  0  0  0  0  0  0
    6.5746   -2.6836   -7.4768 H   0  0  0  0  0  0  0  0  0  0  0  0
    9.6732   -0.7932   -6.5429 H   0  0  0  0  0  0  0  0  0  0  0  0
    8.5999   -1.0663   -7.9235 H   0  0  0  0  0  0  0  0  0  0  0  0
    9.4095   -2.4275   -7.1589 H   0  0  0  0  0  0  0  0  0  0  0  0
    8.6841   -0.6377   -4.3845 H   0  0  0  0  0  0  0  0  0  0  0  0
    6.7923   -0.9709   -2.8651 H   0  0  0  0  0  0  0  0  0  0  0  0
    3.5565   -0.2447   -4.9180 H   0  0  0  0  0  0  0  0  0  0  0  0
    1.2859   -0.1095   -5.8658 H   0  0  0  0  0  0  0  0  0  0  0  0
   -1.3248   -1.2322   -5.0295 H   0  0  0  0  0  0  0  0  0  0  0  0
   -1.2122   -2.8712   -5.6734 H   0  0  0  0  0  0  0  0  0  0  0  0
   -0.7073   -1.4890   -6.6572 H   0  0  0  0  0  0  0  0  0  0  0  0
    0.3642   -3.9351   -4.2192 H   0  0  0  0  0  0  0  0  0  0  0  0
    2.6442   -4.0732   -3.2743 H   0  0  0  0  0  0  0  0  0  0  0  0
    2.9834    1.2812    1.5683 H   0  0  0  0  0  0  0  0  0  0  0  0
    1.9552    3.0715    2.8806 H   0  0  0  0  0  0  0  0  0  0  0  0
    0.0236    3.1797    5.0351 H   0  0  0  0  0  0  0  0  0  0  0  0
    0.9337    2.7008    6.4706 H   0  0  0  0  0  0  0  0  0  0  0  0
    1.6015    3.8931    5.3491 H   0  0  0  0  0  0  0  0  0  0  0  0
    1.5931    0.4336    6.2144 H   0  0  0  0  0  0  0  0  0  0  0  0
    2.6063   -1.3715    4.8928 H   0  0  0  0  0  0  0  0  0  0  0  0
    5.3261    0.0165    3.7509 H   0  0  0  0  0  0  0  0  0  0  0  0
    7.2920   -1.0030    4.8019 H   0  0  0  0  0  0  0  0  0  0  0  0
    8.7775   -3.7092    4.0501 H   0  0  0  0  0  0  0  0  0  0  0  0
    7.8089   -4.6171    5.2089 H   0  0  0  0  0  0  0  0  0  0  0  0
    8.4182   -3.0067    5.6276 H   0  0  0  0  0  0  0  0  0  0  0  0
    5.9823   -4.8577    3.5365 H   0  0  0  0  0  0  0  0  0  0  0  0
    4.0052   -3.8351    2.4913 H   0  0  0  0  0  0  0  0  0  0  0  0
   -0.1733   -0.7133    4.4684 H   0  0  0  0  0  0  0  0  0  0  0  0
   -1.2299   -1.3036    6.6056 H   0  0  0  0  0  0  0  0  0  0  0  0
   -2.1134   -5.9882    7.3385 H   0  0  0  0  0  0  0  0  0  0  0  0
   -3.4045   -5.5539    8.4792 H   0  0  0  0  0  0  0  0  0  0  0  0
   -3.7146   -5.4503    6.7326 H   0  0  0  0  0  0  0  0  0  0  0  0
   -2.0210   -5.2358    5.1209 H   0  0  0  0  0  0  0  0  0  0  0  0
   -1.0035   -4.6407    2.9969 H   0  0  0  0  0  0  0  0  0  0  0  0
   -0.2743   -2.6996   -0.2565 H   0  0  0  0  0  0  0  0  0  0  0  0
    1.0168   -4.2333   -1.6625 H   0  0  0  0  0  0  0  0  0  0  0  0
    4.9782   -5.5889    0.3810 H   0  0  0  0  0  0  0  0  0  0  0  0
    4.2862   -7.2339    0.5840 H   0  0  0  0  0  0  0  0  0  0  0  0
    5.3099   -6.8608   -0.8171 H   0  0  0  0  0  0  0  0  0  0  0  0
    2.9570   -5.7874    1.8114 H   0  0  0  0  0  0  0  0  0  0  0  0
    1.6972   -4.2206    3.2117 H   0  0  0  0  0  0  0  0  0  0  0  0
   -3.7759    5.3568    0.7200 H   0  0  0  0  0  0  0  0  0  0  0  0
   -3.0038    7.3530    1.8306 H   0  0  0  0  0  0  0  0  0  0  0  0
   -1.8096    9.3584    2.1381 H   0  0  0  0  0  0  0  0  0  0  0  0
   -1.3891   10.0171    3.7346 H   0  0  0  0  0  0  0  0  0  0  0  0
   -2.7435    8.8743    3.5913 H   0  0  0  0  0  0  0  0  0  0  0  0
    0.3790    5.2233    3.3478 H   0  0  0  0  0  0  0  0  0  0  0  0
   -0.3992    3.1892    2.2218 H   0  0  0  0  0  0  0  0  0  0  0  0
   -4.3481    1.0964   -0.0884 H   0  0  0  0  0  0  0  0  0  0  0  0
   -5.6759    1.1908   -2.1307 H   0  0  0  0  0  0  0  0  0  0  0  0
   -5.4978    5.3192   -4.7219 H   0  0  0  0  0  0  0  0  0  0  0  0
   -4.2169    4.2834   -5.4451 H   0  0  0  0  0  0  0  0  0  0  0  0
   -5.8404    4.3415   -6.1681 H   0  0  0  0  0  0  0  0  0  0  0  0
   -3.7737    4.8636   -3.2092 H   0  0  0  0  0  0  0  0  0  0  0  0
   -2.4400    4.7674   -1.1897 H   0  0  0  0  0  0  0  0  0  0  0  0
   -4.3034    3.6636    2.3958 H   0  0  0  0  0  0  0  0  0  0  0  0
   -7.7546    0.0889    2.4463 H   0  0  0  0  0  0  0  0  0  0  0  0
   -5.3729   -0.4804    2.6781 H   0  0  0  0  0  0  0  0  0  0  0  0
  -10.0604    1.2110    1.6440 H   0  0  0  0  0  0  0  0  0  0  0  0
  -11.7529    2.6267    0.5505 H   0  0  0  0  0  0  0  0  0  0  0  0
   -9.1043    5.9986    0.6923 H   0  0  0  0  0  0  0  0  0  0  0  0
  -12.5215    4.9665   -0.1250 H   0  0  0  0  0  0  0  0  0  0  0  0
  -13.0655    9.4532   -2.9332 H   0  0  0  0  0  0  0  0  0  0  0  0
   -8.1744    8.4940   -3.0647 H   0  0  0  0  0  0  0  0  0  0  0  0
  1  2  2  0  0  0  0
  2  3  1  0  0  0  0
  3  4  2  0  0  0  0
  3  5  1  0  0  0  0
  5  6  2  0  0  0  0
  6  7  1  0  0  0  0
  7  8  1  0  0  0  0
  7  9  2  0  0  0  0
  9 10  1  0  0  0  0
  9 11  1  0  0  0  0
 11 12  2  0  0  0  0
 12 13  1  0  0  0  0
 13 14  2  0  0  0  0
 14 15  1  0  0  0  0
 15 16  3  0  0  0  0
 14 17  1  0  0  0  0
 17 18  3  0  0  0  0
  1 19  1  0  0  0  0
 19 20  2  0  0  0  0
 20 21  1  0  0  0  0
 21 22  1  0  0  0  0
 22 23  2  0  0  0  0
 23 24  1  0  0  0  0
 24 25  2  0  0  0  0
 25 26  1  0  0  0  0
 25 27  1  0  0  0  0
 27 28  2  0  0  0  0
 21 29  1  0  0  0  0
 29 30  2  0  0  0  0
 30 31  1  0  0  0  0
 31 32  2  0  0  0  0
 32 33  1  0  0  0  0
 32 34  1  0  0  0  0
 34 35  2  0  0  0  0
 20 36  1  0  0  0  0
 36 37  1  0  0  0  0
 37 38  1  0  0  0  0
 38 39  2  0  0  0  0
 39 40  1  0  0  0  0
 40 41  1  0  0  0  0
 41 42  2  0  0  0  0
 42 43  1  0  0  0  0
 43 44  2  0  0  0  0
 44 45  1  0  0  0  0
 44 46  1  0  0  0  0
 46 47  2  0  0  0  0
 40 48  1  0  0  0  0
 48 49  2  0  0  0  0
 49 50  1  0  0  0  0
 50 51  2  0  0  0  0
 51 52  1  0  0  0  0
 51 53  1  0  0  0  0
 53 54  2  0  0  0  0
 39 55  1  0  0  0  0
 55 56  1  0  0  0  0
 38 57  1  0  0  0  0
 57 58  2  0  0  0  0
 58 59  1  0  0  0  0
 59 60  1  0  0  0  0
 60 61  2  0  0  0  0
 61 62  1  0  0  0  0
 62 63  2  0  0  0  0
 63 64  1  0  0  0  0
 64 65  1  0  0  0  0
 63 66  1  0  0  0  0
 66 67  2  0  0  0  0
 59 68  1  0  0  0  0
 68 69  2  0  0  0  0
 69 70  1  0  0  0  0
 70 71  2  0  0  0  0
 71 72  1  0  0  0  0
 72 73  1  0  0  0  0
 71 74  1  0  0  0  0
 74 75  2  0  0  0  0
 58 76  1  0  0  0  0
 76 77  1  0  0  0  0
 77 78  1  0  0  0  0
 78 79  2  0  0  0  0
 79 80  1  0  0  0  0
 80 81  1  0  0  0  0
 81 82  2  0  0  0  0
 82 83  1  0  0  0  0
 83 84  2  0  0  0  0
 84 85  1  0  0  0  0
 85 86  1  0  0  0  0
 84 87  1  0  0  0  0
 87 88  2  0  0  0  0
 80 89  1  0  0  0  0
 89 90  2  0  0  0  0
 90 91  1  0  0  0  0
 91 92  2  0  0  0  0
 92 93  1  0  0  0  0
 93 94  1  0  0  0  0
 92 95  1  0  0  0  0
 95 96  2  0  0  0  0
 79 97  1  0  0  0  0
 97 98  1  0  0  0  0
 78 99  1  0  0  0  0
 99100  2  0  0  0  0
100101  1  0  0  0  0
101102  1  0  0  0  0
102103  2  0  0  0  0
102104  1  0  0  0  0
104105  2  0  0  0  0
105106  1  0  0  0  0
106107  1  0  0  0  0
107108  2  0  0  0  0
105109  1  0  0  0  0
109110  2  0  0  0  0
110111  1  0  0  0  0
111112  2  0  0  0  0
111113  1  0  0  0  0
113114  2  0  0  0  0
114115  1  0  0  0  0
115116  2  0  0  0  0
115117  1  0  0  0  0
117118  2  0  0  0  0
118119  1  0  0  0  0
119120  1  0  0  0  0
119121  2  0  0  0  0
121122  1  0  0  0  0
121123  1  0  0  0  0
123124  2  0  0  0  0
124125  1  0  0  0  0
125126  2  0  0  0  0
126127  1  0  0  0  0
127128  3  0  0  0  0
126129  1  0  0  0  0
129130  3  0  0  0  0
 13  2  1  0  0  0  0
 56 19  1  0  0  0  0
 98 57  1  0  0  0  0
108 99  1  0  0  0  0
125114  1  0  0  0  0
 12  5  1  0  0  0  0
 28 22  1  0  0  0  0
 35 29  1  0  0  0  0
 55 36  2  0  0  0  0
 67 60  1  0  0  0  0
 75 68  1  0  0  0  0
 97 76  2  0  0  0  0
106101  2  0  0  0  0
124117  1  0  0  0  0
 47 41  1  0  0  0  0
 54 48  1  0  0  0  0
 88 81  1  0  0  0  0
 96 89  1  0  0  0  0
112104  1  0  0  0  0
  1131  1  0  0  0  0
  6132  1  0  0  0  0
 11133  1  0  0  0  0
 23134  1  0  0  0  0
 24135  1  0  0  0  0
 26136  1  0  0  0  0
 26137  1  0  0  0  0
 26138  1  0  0  0  0
 27139  1  0  0  0  0
 28140  1  0  0  0  0
 30141  1  0  0  0  0
 31142  1  0  0  0  0
 33143  1  0  0  0  0
 33144  1  0  0  0  0
 33145  1  0  0  0  0
 34146  1  0  0  0  0
 35147  1  0  0  0  0
 42148  1  0  0  0  0
 43149  1  0  0  0  0
 45150  1  0  0  0  0
 45151  1  0  0  0  0
 45152  1  0  0  0  0
 46153  1  0  0  0  0
 47154  1  0  0  0  0
 49155  1  0  0  0  0
 50156  1  0  0  0  0
 52157  1  0  0  0  0
 52158  1  0  0  0  0
 52159  1  0  0  0  0
 53160  1  0  0  0  0
 54161  1  0  0  0  0
 61162  1  0  0  0  0
 62163  1  0  0  0  0
 65164  1  0  0  0  0
 65165  1  0  0  0  0
 65166  1  0  0  0  0
 66167  1  0  0  0  0
 67168  1  0  0  0  0
 69169  1  0  0  0  0
 70170  1  0  0  0  0
 73171  1  0  0  0  0
 73172  1  0  0  0  0
 73173  1  0  0  0  0
 74174  1  0  0  0  0
 75175  1  0  0  0  0
 82176  1  0  0  0  0
 83177  1  0  0  0  0
 86178  1  0  0  0  0
 86179  1  0  0  0  0
 86180  1  0  0  0  0
 87181  1  0  0  0  0
 88182  1  0  0  0  0
 90183  1  0  0  0  0
 91184  1  0  0  0  0
 94185  1  0  0  0  0
 94186  1  0  0  0  0
 94187  1  0  0  0  0
 95188  1  0  0  0  0
 96189  1  0  0  0  0
100190  1  0  0  0  0
107191  1  0  0  0  0
108192  1  0  0  0  0
109193  1  0  0  0  0
110194  1  0  0  0  0
112195  1  0  0  0  0
113196  1  0  0  0  0
118197  1  0  0  0  0
123198  1  0  0  0  0
M  END
