247

C         -6.70010        0.79110       -6.02780
C         -8.06770        0.85400       -6.22240
C         -9.09570        0.59280       -5.22080
O         -8.95980        0.39490       -4.02480
C        -10.38040        0.56860       -5.95920
C        -11.65050        0.35380       -5.46820
C        -12.71570        0.37950       -6.36140
Cl       -14.32670        0.12000       -5.81140
C        -12.46950        0.61970       -7.71280
F        -13.50040        0.64280       -8.56860
C        -11.19380        0.83800       -8.21290
C        -10.13470        0.80990       -7.32140
C         -8.69760        1.01340       -7.50790
C         -8.09180        1.31810       -8.70430
C         -6.73510        1.65320       -8.87450
N         -5.65410        1.97310       -9.10230
C         -8.76630        1.36120       -9.94000
N         -9.24920        1.39000      -10.98190
C         -5.96330        0.63500       -4.86370
C         -4.55690        0.41640       -4.83510
N         -3.76960        0.10120       -5.89750
C         -4.23100       -0.51190       -7.08520
C         -5.15960       -1.54760       -7.05510
C         -5.59230       -2.11640       -8.23580
C         -5.10270       -1.68560       -9.46450
C         -5.60910       -2.26980      -10.74610
C         -4.14340       -0.68050       -9.47790
C         -3.70890       -0.09430       -8.30510
C         -2.36570        0.22320       -5.76990
C         -1.78910        1.42940       -5.38730
C         -0.41930        1.51550       -5.21910
C          0.39810        0.41190       -5.42370
C          1.87840        0.49030       -5.21610
C         -0.18660       -0.77710       -5.84830
C         -1.55030       -0.87370       -6.03080
C         -4.07580        0.52380       -3.51910
S         -2.51670        0.32760       -2.80250
C         -3.21700        0.44330       -1.18960
C         -4.55480        0.81220       -1.22790
N         -5.32250        1.16300       -0.13420
C         -4.85520        2.09420        0.80450
C         -3.91750        3.06840        0.47180
C         -3.52040        4.00140        1.41230
C         -4.04770        3.99260        2.69480
C         -3.64880        5.01860        3.70920
C         -4.97440        3.00770        3.02350
C         -5.37500        2.06910        2.09780
C         -6.71000        0.91160       -0.19750
C         -7.63820        1.93190       -0.02210
C         -8.98710        1.66290       -0.14110
C         -9.44240        0.38350       -0.43370
C        -10.89940        0.10680       -0.63200
C         -8.50840       -0.63400       -0.57900
C         -7.15730       -0.37760       -0.46300
C         -5.04730        0.78290       -2.56030
S         -6.63430        0.83600       -3.23710
C         -2.34980        0.03530       -0.12750
C         -1.50590       -1.06290       -0.23800
N         -1.43400       -1.96870       -1.29470
C         -2.56370       -2.45790       -1.94480
C         -2.50600       -2.79480       -3.30030
C         -3.64620       -3.16400       -3.97630
C         -4.87110       -3.21950       -3.31670
S         -6.29700       -3.64570       -4.27420
C         -7.66920       -2.91620       -3.33590
C         -4.92040       -2.96170       -1.95470
C         -3.78150       -2.57320       -1.27700
C         -0.13430       -2.29590       -1.71340
C          0.23090       -3.60890       -2.00310
C          1.55330       -3.92000       -2.23570
C          2.53310       -2.93340       -2.17180
S          4.22550       -3.42370       -2.32800
C          5.07170       -2.16440       -1.32370
C          2.16010       -1.61030       -1.97770
C          0.83580       -1.29640       -1.75930
C         -0.61730       -1.13700        0.85700
S          0.69510       -2.19280        1.23400
C          1.12630       -1.17870        2.59860
C          0.23910       -0.13430        2.78210
N          0.36820        0.77300        3.82680
C          0.70890        0.27800        5.09430
C          0.15420       -0.91700        5.54590
C          0.44970       -1.40720        6.80200
C          1.30540       -0.70390        7.63860
S          1.71250       -1.19880        9.28210
C          0.84730       -2.77820        9.49640
C          1.88860        0.47620        7.17950
C          1.60170        0.95900        5.92180
C          0.23270        2.13780        3.57570
C         -0.20190        3.00870        4.57240
C         -0.32850        4.36060        4.32430
C         -0.05100        4.86540        3.06210
S         -0.21390        6.57170        2.62150
C         -0.38000        7.41810        4.21930
C          0.36770        3.99880        2.05730
C          0.52340        2.65550        2.31210
C         -0.76980       -0.12430        1.78820
S         -2.09690        0.91370        1.37980
C          2.44990       -1.22270        3.16450
C          3.16770       -2.20130        3.82080
N          2.64080       -3.40320        4.26720
C          2.98220       -3.89270        5.52830
C          2.91710       -5.25690        5.80710
C          3.25500       -5.72870        7.05970
C          3.68700       -4.86980        8.06340
C          4.08400       -5.39360        9.40970
C          3.75790       -3.51280        7.77600
C          3.39640       -3.02370        6.53670
C          1.92070       -4.18780        3.34420
C          0.66320       -4.69050        3.66170
C         -0.03450       -5.43200        2.73040
C          0.50010       -5.69540        1.47220
C         -0.28660       -6.48420        0.47140
C          1.76490       -5.20870        1.17320
C          2.47040       -4.45890        2.09530
C          4.52050       -1.80810        3.99470
S          5.90090       -2.58480        4.67130
C          6.94200       -1.25920        4.11940
C          6.19470       -0.19860        3.56220
N          6.64490        1.04130        3.23120
C          7.83360        1.59990        3.72220
C          8.21470        1.44940        5.05480
C          9.40890        1.97790        5.49620
C         10.25850        2.66580        4.63160
C         11.57540        3.18170        5.11850
C          9.84880        2.85090        3.31840
C          8.65010        2.33270        2.86440
C          5.86980        1.84190        2.35410
C          5.54100        1.38010        1.08370
C          4.76500        2.16290        0.25250
C          4.30180        3.40850        0.66390
C          3.46010        4.24350       -0.25040
C          4.65750        3.86570        1.92640
C          5.43950        3.09640        2.76710
C          4.83000       -0.56240        3.47090
S          3.43370        0.19090        2.78690
C          8.31830       -1.42500        4.27450
C          9.28580       -0.81820        3.49760
C          9.06110       -0.38570        2.11120
O          8.02770       -0.44790        1.46850
C         10.39070        0.01640        1.60230
C         10.72880        0.48850        0.35150
C         12.05190        0.82540        0.08200
C         12.48830        1.34740       -1.24870
C         12.98100        0.65650        1.10770
F         14.26580        0.97900        0.85560
C         12.66830        0.17780        2.37070
C         11.34620       -0.14660        2.61780
C         10.67470       -0.64860        3.81470
C         11.23900       -0.77710        5.06030
C         10.51700       -1.13340        6.21610
N          9.98080       -1.38550        7.20030
C         12.58560       -0.48950        5.34700
N         13.67010       -0.24750        5.63950
H         -6.10180        0.85940       -6.92620
H        -11.81360        0.17340       -4.41790
H        -11.07210        1.01890       -9.26830
H         -5.54810       -1.89860       -6.11200
H         -6.31850       -2.91510       -8.19710
H         -6.10460       -3.22190      -10.57340
H         -4.79520       -2.41570      -11.45300
H         -6.32770       -1.58860      -11.20350
H         -3.74470       -0.33630      -10.41990
H         -2.97890        0.69990       -8.33000
H         -2.41730        2.29200       -5.22060
H          0.01720        2.45620       -4.91690
H          2.14290        1.36490       -4.62740
H          2.23720       -0.40320       -4.70860
H          2.38910        0.55760       -6.17700
H          0.43780       -1.64060       -6.02680
H         -1.99720       -1.80010       -6.35870
H         -3.51420        3.10660       -0.52950
H         -2.79650        4.75440        1.13690
H         -3.00690        5.76980        3.25780
H         -3.11310        4.54330        4.53040
H         -4.52940        5.50980        4.12170
H         -5.38910        2.98110        4.02100
H         -6.10110        1.31420        2.36110
H         -7.29640        2.93430        0.19040
H         -9.69840        2.46710       -0.02110
H        -11.11440        0.09330       -1.70050
H        -11.51300        0.87530       -0.16870
H        -11.17320       -0.86300       -0.22160
H         -8.84830       -1.63720       -0.79140
H         -6.42800       -1.16380       -0.58080
H         -1.56670       -2.71640       -3.82560
H         -3.60560       -3.39860       -5.02910
H         -7.86270       -3.49930       -2.44010
H         -8.53170       -2.96390       -3.99370
H         -7.44970       -1.87950       -3.09680
H         -5.84710       -3.07100       -1.41420
H         -3.83350       -2.35480       -0.22010
H         -0.51960       -4.38430       -2.00700
H          1.84720       -4.93880       -2.43760
H          4.49150       -1.97750       -0.42500
H          5.21190       -1.25130       -1.89530
H          6.03940       -2.58160       -1.06330
H          2.89620       -0.82200       -1.98360
H          0.54520       -0.26850       -1.59850
H         -0.52450       -1.46300        4.90720
H         -0.00190       -2.33300        7.11950
H          1.10020       -3.11470       10.49710
H          1.20680       -3.49590        8.76410
H         -0.22580       -2.62810        9.42060
H          2.57330        1.00660        7.82380
H          2.06660        1.86800        5.56980
H         -0.44390        2.62280        5.55150
H         -0.65370        5.00750        5.12340
H         -1.33670        7.18190        4.67670
H          0.44580        7.13970        4.86720
H         -0.33380        8.47930        3.99500
H          0.58110        4.39520        1.07690
H          0.88970        2.00100        1.53590
H          2.60750       -5.94680        5.03650
H          3.19380       -6.78960        7.25680
H          3.98620       -4.62170       10.16960
H          5.12500       -5.71740        9.39110
H          3.47270       -6.24880        9.69070
H          4.08760       -2.82170        8.53770
H          3.42580       -1.96010        6.35360
H          0.24260       -4.48750        4.63570
H         -1.01650       -5.80950        2.97770
H         -0.59590       -7.43930        0.89350
H          0.30070       -6.67100       -0.42340
H         -1.18710       -5.93910        0.18900
H          2.20390       -5.40950        0.20770
H          3.45290       -4.07970        1.85410
H          7.57640        0.91340        5.74100
H          9.69510        1.84700        6.52960
H         12.08680        3.74180        4.34020
H         11.43600        3.82830        5.98350
H         12.21620        2.35550        5.42650
H         10.48130        3.39570        2.63280
H          8.34690        2.47620        1.83810
H          5.91610        0.41980        0.76480
H          4.51250        1.80380       -0.73490
H          4.07310        4.65670       -1.05180
H          3.00190        5.06820        0.28870
H          2.67760        3.64080       -0.70740
H          4.31190        4.83300        2.26000
H          5.71080        3.45620        3.74890
H          8.62910       -2.13270        5.03350
H          9.96840        0.59950       -0.40680
H         12.99420        2.30500       -1.13240
H         11.63820        1.47000       -1.91350
H         13.19950        0.65950       -1.70540
H         13.44980        0.06890        3.10450
