
  xtb     02112213533D
 energy: -419.599904839003 gnorm: 0.000566833989 xtb: 6.4.1 (unknown)
239261  0     0  0            999 V2000
    0.7727    8.7677   -3.3870 C   0  0  0  0  0  0  0  0  0  0  0  0
    1.5411    9.3699   -4.3667 C   0  0  0  0  0  0  0  0  0  0  0  0
    2.8861    8.9738   -4.7748 C   0  0  0  0  0  0  0  0  0  0  0  0
    3.5334    8.0067   -4.4137 O   0  0  0  0  0  0  0  0  0  0  0  0
    3.3464   10.0162   -5.7206 C   0  0  0  0  0  0  0  0  0  0  0  0
    4.5547   10.1045   -6.3785 C   0  0  0  0  0  0  0  0  0  0  0  0
    4.7653   11.1886   -7.2232 C   0  0  0  0  0  0  0  0  0  0  0  0
    6.2510   11.3606   -8.0756 Cl  0  0  0  0  0  0  0  0  0  0  0  0
    3.7587   12.1418   -7.3770 C   0  0  0  0  0  0  0  0  0  0  0  0
    3.9689   13.1855   -8.1908 F   0  0  0  0  0  0  0  0  0  0  0  0
    2.5397   12.0556   -6.7202 C   0  0  0  0  0  0  0  0  0  0  0  0
    2.3325   10.9755   -5.8785 C   0  0  0  0  0  0  0  0  0  0  0  0
    1.1811   10.5761   -5.0681 C   0  0  0  0  0  0  0  0  0  0  0  0
   -0.0258   11.2350   -5.0404 C   0  0  0  0  0  0  0  0  0  0  0  0
   -1.1884   10.7863   -4.3874 C   0  0  0  0  0  0  0  0  0  0  0  0
   -2.1912   10.4796   -3.9153 N   0  0  0  0  0  0  0  0  0  0  0  0
   -0.2749   12.4527   -5.7035 C   0  0  0  0  0  0  0  0  0  0  0  0
   -0.5405   13.4538   -6.2001 N   0  0  0  0  0  0  0  0  0  0  0  0
    0.9809    7.5951   -2.6731 C   0  0  0  0  0  0  0  0  0  0  0  0
    0.0771    7.1116   -1.6812 C   0  0  0  0  0  0  0  0  0  0  0  0
   -0.9418    7.8418   -1.1347 N   0  0  0  0  0  0  0  0  0  0  0  0
   -0.8113    9.2279   -0.9081 C   0  0  0  0  0  0  0  0  0  0  0  0
   -1.8960   10.0795   -1.1053 C   0  0  0  0  0  0  0  0  0  0  0  0
   -1.7556   11.4352   -0.8874 C   0  0  0  0  0  0  0  0  0  0  0  0
   -0.5426   11.9778   -0.4778 C   0  0  0  0  0  0  0  0  0  0  0  0
   -0.4042   13.4556   -0.2816 C   0  0  0  0  0  0  0  0  0  0  0  0
    0.5270   11.1162   -0.2636 C   0  0  0  0  0  0  0  0  0  0  0  0
    0.3987    9.7563   -0.4654 C   0  0  0  0  0  0  0  0  0  0  0  0
   -2.1341    7.2058   -0.7426 C   0  0  0  0  0  0  0  0  0  0  0  0
   -2.6661    6.1710   -1.5054 C   0  0  0  0  0  0  0  0  0  0  0  0
   -3.8515    5.5701   -1.1286 C   0  0  0  0  0  0  0  0  0  0  0  0
   -4.5520    6.0033   -0.0113 C   0  0  0  0  0  0  0  0  0  0  0  0
   -5.8557    5.3842    0.3842 C   0  0  0  0  0  0  0  0  0  0  0  0
   -4.0234    7.0535    0.7322 C   0  0  0  0  0  0  0  0  0  0  0  0
   -2.8217    7.6359    0.3898 C   0  0  0  0  0  0  0  0  0  0  0  0
    0.3731    5.7806   -1.3460 C   0  0  0  0  0  0  0  0  0  0  0  0
   -0.3253    4.6023   -0.2685 S   0  0  0  0  0  0  0  0  0  0  0  0
    0.8796    3.4191   -0.7611 C   0  0  0  0  0  0  0  0  0  0  0  0
    1.8206    3.9609   -1.6283 C   0  0  0  0  0  0  0  0  0  0  0  0
    2.9535    3.2901   -2.0504 N   0  0  0  0  0  0  0  0  0  0  0  0
    3.3902    3.4849   -3.3710 C   0  0  0  0  0  0  0  0  0  0  0  0
    4.7338    3.6996   -3.6561 C   0  0  0  0  0  0  0  0  0  0  0  0
    5.1355    3.9200   -4.9596 C   0  0  0  0  0  0  0  0  0  0  0  0
    4.2174    3.9349   -6.0014 C   0  0  0  0  0  0  0  0  0  0  0  0
    4.6448    4.1777   -7.4154 C   0  0  0  0  0  0  0  0  0  0  0  0
    2.8773    3.7109   -5.7057 C   0  0  0  0  0  0  0  0  0  0  0  0
    2.4633    3.4854   -4.4100 C   0  0  0  0  0  0  0  0  0  0  0  0
    3.7001    2.5261   -1.1480 C   0  0  0  0  0  0  0  0  0  0  0  0
    3.7753    2.8667    0.1999 C   0  0  0  0  0  0  0  0  0  0  0  0
    4.5165    2.0931    1.0719 C   0  0  0  0  0  0  0  0  0  0  0  0
    5.1937    0.9613    0.6350 C   0  0  0  0  0  0  0  0  0  0  0  0
    5.9933    0.1189    1.5812 C   0  0  0  0  0  0  0  0  0  0  0  0
    5.1136    0.6284   -0.7131 C   0  0  0  0  0  0  0  0  0  0  0  0
    4.3816    1.3964   -1.5941 C   0  0  0  0  0  0  0  0  0  0  0  0
    1.5078    5.2884   -1.9828 C   0  0  0  0  0  0  0  0  0  0  0  0
    2.2647    6.4331   -3.0237 S   0  0  0  0  0  0  0  0  0  0  0  0
    0.8019    2.0160   -0.4952 C   0  0  0  0  0  0  0  0  0  0  0  0
    0.5882    1.2763    0.6539 C   0  0  0  0  0  0  0  0  0  0  0  0
    0.4625    1.7741    1.9435 N   0  0  0  0  0  0  0  0  0  0  0  0
    1.0151    1.0258    2.9936 C   0  0  0  0  0  0  0  0  0  0  0  0
    0.3732    0.9221    4.2244 C   0  0  0  0  0  0  0  0  0  0  0  0
    0.9085    0.1634    5.2461 C   0  0  0  0  0  0  0  0  0  0  0  0
    2.0989   -0.5218    5.0531 C   0  0  0  0  0  0  0  0  0  0  0  0
    2.8485   -1.5580    6.2695 S   0  0  0  0  0  0  0  0  0  0  0  0
    1.9885   -1.1181    7.8079 C   0  0  0  0  0  0  0  0  0  0  0  0
    2.7516   -0.4166    3.8269 C   0  0  0  0  0  0  0  0  0  0  0  0
    2.2241    0.3506    2.8138 C   0  0  0  0  0  0  0  0  0  0  0  0
   -0.5040    2.7476    2.2407 C   0  0  0  0  0  0  0  0  0  0  0  0
   -0.2194    3.7346    3.1804 C   0  0  0  0  0  0  0  0  0  0  0  0
   -1.1951    4.6231    3.5815 C   0  0  0  0  0  0  0  0  0  0  0  0
   -2.4722    4.5384    3.0416 C   0  0  0  0  0  0  0  0  0  0  0  0
   -3.8186    5.5275    3.6120 S   0  0  0  0  0  0  0  0  0  0  0  0
   -2.9946    6.9836    4.3209 C   0  0  0  0  0  0  0  0  0  0  0  0
   -2.7475    3.5878    2.0641 C   0  0  0  0  0  0  0  0  0  0  0  0
   -1.7724    2.6995    1.6645 C   0  0  0  0  0  0  0  0  0  0  0  0
    0.6008   -0.1133    0.3794 C   0  0  0  0  0  0  0  0  0  0  0  0
    0.2271   -1.4970    1.3520 S   0  0  0  0  0  0  0  0  0  0  0  0
    0.4719   -2.5444   -0.0418 C   0  0  0  0  0  0  0  0  0  0  0  0
    0.6862   -1.8245   -1.2272 C   0  0  0  0  0  0  0  0  0  0  0  0
    0.6723   -2.3136   -2.5083 N   0  0  0  0  0  0  0  0  0  0  0  0
   -0.1386   -3.3757   -2.9294 C   0  0  0  0  0  0  0  0  0  0  0  0
   -1.3419   -3.6761   -2.2966 C   0  0  0  0  0  0  0  0  0  0  0  0
   -2.1338   -4.7158   -2.7424 C   0  0  0  0  0  0  0  0  0  0  0  0
   -1.7375   -5.4777   -3.8325 C   0  0  0  0  0  0  0  0  0  0  0  0
   -2.6899   -6.7967   -4.5023 S   0  0  0  0  0  0  0  0  0  0  0  0
   -3.8427   -7.2081   -3.1634 C   0  0  0  0  0  0  0  0  0  0  0  0
   -0.5366   -5.1788   -4.4724 C   0  0  0  0  0  0  0  0  0  0  0  0
    0.2538   -4.1457   -4.0272 C   0  0  0  0  0  0  0  0  0  0  0  0
    1.4254   -1.6234   -3.4820 C   0  0  0  0  0  0  0  0  0  0  0  0
    2.7808   -1.3942   -3.2780 C   0  0  0  0  0  0  0  0  0  0  0  0
    3.5367   -0.7567   -4.2434 C   0  0  0  0  0  0  0  0  0  0  0  0
    2.9379   -0.3103   -5.4140 C   0  0  0  0  0  0  0  0  0  0  0  0
    3.7956    0.5084   -6.7148 S   0  0  0  0  0  0  0  0  0  0  0  0
    5.4999    0.6426   -6.1091 C   0  0  0  0  0  0  0  0  0  0  0  0
    1.5738   -0.5270   -5.6116 C   0  0  0  0  0  0  0  0  0  0  0  0
    0.8263   -1.1855   -4.6630 C   0  0  0  0  0  0  0  0  0  0  0  0
    0.7984   -0.4397   -0.9477 C   0  0  0  0  0  0  0  0  0  0  0  0
    1.0008    0.9765   -1.9172 S   0  0  0  0  0  0  0  0  0  0  0  0
    0.4554   -3.9450    0.1865 C   0  0  0  0  0  0  0  0  0  0  0  0
    1.0726   -4.9113   -0.6107 C   0  0  0  0  0  0  0  0  0  0  0  0
    1.9111   -4.5331   -1.5951 F   0  0  0  0  0  0  0  0  0  0  0  0
    0.9317   -6.2723   -0.3673 C   0  0  0  0  0  0  0  0  0  0  0  0
    1.6016   -7.1137   -1.1669 F   0  0  0  0  0  0  0  0  0  0  0  0
    0.2224   -6.7763    0.7226 C   0  0  0  0  0  0  0  0  0  0  0  0
   -0.2637   -5.8228    1.6581 C   0  0  0  0  0  0  0  0  0  0  0  0
   -0.8835   -6.2282    2.7753 N   0  0  0  0  0  0  0  0  0  0  0  0
   -1.3545   -5.3367    3.6234 C   0  0  0  0  0  0  0  0  0  0  0  0
   -2.0890   -5.8685    4.7745 C   0  0  0  0  0  0  0  0  0  0  0  0
   -1.6696   -7.0513    5.3713 C   0  0  0  0  0  0  0  0  0  0  0  0
   -2.3560   -7.5797    6.4472 C   0  0  0  0  0  0  0  0  0  0  0  0
   -3.5110   -6.9867    6.9705 C   0  0  0  0  0  0  0  0  0  0  0  0
   -4.2701   -7.3645    8.0126 O   0  0  0  0  0  0  0  0  0  0  0  0
   -4.1234   -8.6371    8.6291 C   0  0  0  0  0  0  0  0  0  0  0  0
   -4.6533   -9.7680    7.7564 C   0  0  0  0  0  0  0  0  0  0  0  0
   -3.9158   -5.8076    6.3172 C   0  0  0  0  0  0  0  0  0  0  0  0
   -3.2411   -5.2495    5.2587 C   0  0  0  0  0  0  0  0  0  0  0  0
   -5.0337   -5.2019    6.7590 F   0  0  0  0  0  0  0  0  0  0  0  0
   -1.8620   -8.7166    6.9865 F   0  0  0  0  0  0  0  0  0  0  0  0
   -1.1839   -3.9425    3.3787 C   0  0  0  0  0  0  0  0  0  0  0  0
   -0.6219   -3.5505    2.2556 N   0  0  0  0  0  0  0  0  0  0  0  0
   -0.1591   -4.4379    1.3782 C   0  0  0  0  0  0  0  0  0  0  0  0
   -1.5933   -2.8655    4.2855 C   0  0  0  0  0  0  0  0  0  0  0  0
   -1.3554   -2.9085    5.6575 C   0  0  0  0  0  0  0  0  0  0  0  0
   -1.7590   -1.8539    6.4409 C   0  0  0  0  0  0  0  0  0  0  0  0
   -1.5085   -1.9013    7.7647 F   0  0  0  0  0  0  0  0  0  0  0  0
   -2.4181   -0.7110    5.9493 C   0  0  0  0  0  0  0  0  0  0  0  0
   -2.7606    0.2086    6.8687 O   0  0  0  0  0  0  0  0  0  0  0  0
   -3.6330    1.2920    6.5697 C   0  0  0  0  0  0  0  0  0  0  0  0
   -2.8976    2.5236    6.0570 C   0  0  0  0  0  0  0  0  0  0  0  0
   -2.6102   -0.6989    4.5652 C   0  0  0  0  0  0  0  0  0  0  0  0
   -3.2100    0.3514    3.9557 F   0  0  0  0  0  0  0  0  0  0  0  0
   -2.2021   -1.7371    3.7521 C   0  0  0  0  0  0  0  0  0  0  0  0
    0.0088   -8.1738    0.9602 C   0  0  0  0  0  0  0  0  0  0  0  0
   -0.2773   -9.0772   -0.0123 C   0  0  0  0  0  0  0  0  0  0  0  0
   -0.7195   -8.7054   -1.3819 C   0  0  0  0  0  0  0  0  0  0  0  0
   -0.9493   -7.5882   -1.7994 O   0  0  0  0  0  0  0  0  0  0  0  0
   -0.9840   -9.9730   -2.0783 C   0  0  0  0  0  0  0  0  0  0  0  0
   -1.3817  -10.1266   -3.4054 C   0  0  0  0  0  0  0  0  0  0  0  0
   -1.5672  -11.4343   -3.7823 C   0  0  0  0  0  0  0  0  0  0  0  0
   -1.3804  -12.5110   -2.9039 C   0  0  0  0  0  0  0  0  0  0  0  0
   -0.9900  -12.3728   -1.5933 C   0  0  0  0  0  0  0  0  0  0  0  0
   -0.7911  -11.0490   -1.1864 C   0  0  0  0  0  0  0  0  0  0  0  0
   -0.3825  -10.5195    0.1116 C   0  0  0  0  0  0  0  0  0  0  0  0
   -0.1219  -11.2577    1.2362 C   0  0  0  0  0  0  0  0  0  0  0  0
    0.2788  -10.7237    2.4793 C   0  0  0  0  0  0  0  0  0  0  0  0
    0.6044  -10.3662    3.5211 N   0  0  0  0  0  0  0  0  0  0  0  0
   -0.2341  -12.6614    1.3160 C   0  0  0  0  0  0  0  0  0  0  0  0
   -0.3105  -13.7983    1.4578 N   0  0  0  0  0  0  0  0  0  0  0  0
   -1.7598  -13.5316   -3.9480 C   0  0  0  0  0  0  0  0  0  0  0  0
   -3.1790  -14.1297   -3.8428 C   0  0  0  0  0  0  0  0  0  0  0  0
   -3.4342  -14.6996   -5.2196 C   0  0  0  0  0  0  0  0  0  0  0  0
   -3.6059  -13.6811   -6.0526 C   0  0  0  0  0  0  0  0  0  0  0  0
   -3.4699  -12.4055   -5.2531 C   0  0  0  0  0  0  0  0  0  0  0  0
   -4.0539  -12.8712   -3.9130 C   0  0  0  0  0  0  0  0  0  0  0  0
   -1.9629  -12.3316   -4.9279 C   0  0  0  0  0  0  0  0  0  0  0  0
   -0.1455    9.2833   -3.1374 H   0  0  0  0  0  0  0  0  0  0  0  0
    5.3131    9.3505   -6.2401 H   0  0  0  0  0  0  0  0  0  0  0  0
    1.8044   12.8260   -6.8849 H   0  0  0  0  0  0  0  0  0  0  0  0
   -2.8376    9.6785   -1.4447 H   0  0  0  0  0  0  0  0  0  0  0  0
   -2.5995   12.0864   -1.0580 H   0  0  0  0  0  0  0  0  0  0  0  0
   -1.1641   13.8224    0.4067 H   0  0  0  0  0  0  0  0  0  0  0  0
   -0.5408   13.9738   -1.2305 H   0  0  0  0  0  0  0  0  0  0  0  0
    0.5767   13.7084    0.1125 H   0  0  0  0  0  0  0  0  0  0  0  0
    1.4743   11.5125    0.0724 H   0  0  0  0  0  0  0  0  0  0  0  0
    1.2379    9.0990   -0.2899 H   0  0  0  0  0  0  0  0  0  0  0  0
   -2.1582    5.8519   -2.4034 H   0  0  0  0  0  0  0  0  0  0  0  0
   -4.2470    4.7638   -1.7290 H   0  0  0  0  0  0  0  0  0  0  0  0
   -5.8823    5.2109    1.4587 H   0  0  0  0  0  0  0  0  0  0  0  0
   -6.0148    4.4420   -0.1343 H   0  0  0  0  0  0  0  0  0  0  0  0
   -6.6786    6.0542    0.1353 H   0  0  0  0  0  0  0  0  0  0  0  0
   -4.5642    7.4139    1.5937 H   0  0  0  0  0  0  0  0  0  0  0  0
   -2.4149    8.4386    0.9875 H   0  0  0  0  0  0  0  0  0  0  0  0
    5.4557    3.7031   -2.8524 H   0  0  0  0  0  0  0  0  0  0  0  0
    6.1817    4.0957   -5.1667 H   0  0  0  0  0  0  0  0  0  0  0  0
    4.2011    5.1003   -7.7879 H   0  0  0  0  0  0  0  0  0  0  0  0
    5.7262    4.2616   -7.4891 H   0  0  0  0  0  0  0  0  0  0  0  0
    4.3086    3.3635   -8.0565 H   0  0  0  0  0  0  0  0  0  0  0  0
    2.1523    3.7048   -6.5061 H   0  0  0  0  0  0  0  0  0  0  0  0
    1.4218    3.2996   -4.1901 H   0  0  0  0  0  0  0  0  0  0  0  0
    3.2586    3.7430    0.5629 H   0  0  0  0  0  0  0  0  0  0  0  0
    4.5698    2.3768    2.1134 H   0  0  0  0  0  0  0  0  0  0  0  0
    5.8347    0.4330    2.6098 H   0  0  0  0  0  0  0  0  0  0  0  0
    7.0567    0.2021    1.3553 H   0  0  0  0  0  0  0  0  0  0  0  0
    5.7167   -0.9305    1.4875 H   0  0  0  0  0  0  0  0  0  0  0  0
    5.6290   -0.2509   -1.0734 H   0  0  0  0  0  0  0  0  0  0  0  0
    4.3120    1.1275   -2.6360 H   0  0  0  0  0  0  0  0  0  0  0  0
   -0.5632    1.4326    4.3831 H   0  0  0  0  0  0  0  0  0  0  0  0
    0.3791    0.1044    6.1833 H   0  0  0  0  0  0  0  0  0  0  0  0
    0.9668   -1.4832    7.7948 H   0  0  0  0  0  0  0  0  0  0  0  0
    2.0218   -0.0418    7.9474 H   0  0  0  0  0  0  0  0  0  0  0  0
    2.5411   -1.6112    8.6017 H   0  0  0  0  0  0  0  0  0  0  0  0
    3.6812   -0.9447    3.6811 H   0  0  0  0  0  0  0  0  0  0  0  0
    2.7481    0.4326    1.8741 H   0  0  0  0  0  0  0  0  0  0  0  0
    0.7674    3.7798    3.6168 H   0  0  0  0  0  0  0  0  0  0  0  0
   -0.9568    5.3615    4.3301 H   0  0  0  0  0  0  0  0  0  0  0  0
   -2.2552    7.3520    3.6167 H   0  0  0  0  0  0  0  0  0  0  0  0
   -2.5421    6.7377    5.2773 H   0  0  0  0  0  0  0  0  0  0  0  0
   -3.7728    7.7259    4.4681 H   0  0  0  0  0  0  0  0  0  0  0  0
   -3.7382    3.5349    1.6429 H   0  0  0  0  0  0  0  0  0  0  0  0
   -1.9945    1.9438    0.9265 H   0  0  0  0  0  0  0  0  0  0  0  0
   -1.6754   -3.0820   -1.4586 H   0  0  0  0  0  0  0  0  0  0  0  0
   -3.0623   -4.9152   -2.2324 H   0  0  0  0  0  0  0  0  0  0  0  0
   -3.2749   -7.3156   -2.2443 H   0  0  0  0  0  0  0  0  0  0  0  0
   -4.2992   -8.1544   -3.4375 H   0  0  0  0  0  0  0  0  0  0  0  0
   -4.6086   -6.4430   -3.0734 H   0  0  0  0  0  0  0  0  0  0  0  0
   -0.2256   -5.7766   -5.3150 H   0  0  0  0  0  0  0  0  0  0  0  0
    1.1949   -3.9394   -4.5127 H   0  0  0  0  0  0  0  0  0  0  0  0
    3.2462   -1.7404   -2.3673 H   0  0  0  0  0  0  0  0  0  0  0  0
    4.5952   -0.6339   -4.0802 H   0  0  0  0  0  0  0  0  0  0  0  0
    5.9207   -0.3471   -5.9570 H   0  0  0  0  0  0  0  0  0  0  0  0
    6.0464    1.1572   -6.8930 H   0  0  0  0  0  0  0  0  0  0  0  0
    5.5219    1.2365   -5.2000 H   0  0  0  0  0  0  0  0  0  0  0  0
    1.1154   -0.1762   -6.5232 H   0  0  0  0  0  0  0  0  0  0  0  0
   -0.2260   -1.3645   -4.8247 H   0  0  0  0  0  0  0  0  0  0  0  0
   -0.7955   -7.5677    5.0079 H   0  0  0  0  0  0  0  0  0  0  0  0
   -4.7280   -8.5482    9.5353 H   0  0  0  0  0  0  0  0  0  0  0  0
   -3.0844   -8.8182    8.9178 H   0  0  0  0  0  0  0  0  0  0  0  0
   -4.0431   -9.8964    6.8662 H   0  0  0  0  0  0  0  0  0  0  0  0
   -4.6369  -10.6952    8.3213 H   0  0  0  0  0  0  0  0  0  0  0  0
   -5.6761   -9.5551    7.4539 H   0  0  0  0  0  0  0  0  0  0  0  0
   -3.6369   -4.3563    4.8039 H   0  0  0  0  0  0  0  0  0  0  0  0
   -0.8522   -3.7441    6.1165 H   0  0  0  0  0  0  0  0  0  0  0  0
   -4.4127    0.9837    5.8682 H   0  0  0  0  0  0  0  0  0  0  0  0
   -4.0998    1.5178    7.5329 H   0  0  0  0  0  0  0  0  0  0  0  0
   -2.5002    2.3616    5.0590 H   0  0  0  0  0  0  0  0  0  0  0  0
   -2.0805    2.7756    6.7291 H   0  0  0  0  0  0  0  0  0  0  0  0
   -3.5914    3.3580    6.0106 H   0  0  0  0  0  0  0  0  0  0  0  0
   -2.3722   -1.6611    2.6910 H   0  0  0  0  0  0  0  0  0  0  0  0
    0.0275   -8.4687    1.9997 H   0  0  0  0  0  0  0  0  0  0  0  0
   -1.5117   -9.2710   -4.0499 H   0  0  0  0  0  0  0  0  0  0  0  0
   -0.8480  -13.2110   -0.9318 H   0  0  0  0  0  0  0  0  0  0  0  0
   -1.0012  -14.2756   -4.1831 H   0  0  0  0  0  0  0  0  0  0  0  0
   -3.3296  -14.7988   -3.0001 H   0  0  0  0  0  0  0  0  0  0  0  0
   -3.4086  -15.7487   -5.4484 H   0  0  0  0  0  0  0  0  0  0  0  0
   -3.7522  -13.7094   -7.1164 H   0  0  0  0  0  0  0  0  0  0  0  0
   -3.8839  -11.5034   -5.6957 H   0  0  0  0  0  0  0  0  0  0  0  0
   -3.8942  -12.1738   -3.0924 H   0  0  0  0  0  0  0  0  0  0  0  0
   -5.1135  -13.1108   -3.9863 H   0  0  0  0  0  0  0  0  0  0  0  0
   -1.3377  -12.2720   -5.8165 H   0  0  0  0  0  0  0  0  0  0  0  0
  1  2  2  0  0  0  0
  2  3  1  0  0  0  0
  3  4  2  0  0  0  0
  3  5  1  0  0  0  0
  5  6  2  0  0  0  0
  6  7  1  0  0  0  0
  7  8  1  0  0  0  0
  7  9  2  0  0  0  0
  9 10  1  0  0  0  0
  9 11  1  0  0  0  0
 11 12  2  0  0  0  0
 12 13  1  0  0  0  0
 13 14  2  0  0  0  0
 14 15  1  0  0  0  0
 15 16  3  0  0  0  0
 14 17  1  0  0  0  0
 17 18  3  0  0  0  0
  1 19  1  0  0  0  0
 19 20  2  0  0  0  0
 20 21  1  0  0  0  0
 21 22  1  0  0  0  0
 22 23  2  0  0  0  0
 23 24  1  0  0  0  0
 24 25  2  0  0  0  0
 25 26  1  0  0  0  0
 25 27  1  0  0  0  0
 27 28  2  0  0  0  0
 21 29  1  0  0  0  0
 29 30  2  0  0  0  0
 30 31  1  0  0  0  0
 31 32  2  0  0  0  0
 32 33  1  0  0  0  0
 32 34  1  0  0  0  0
 34 35  2  0  0  0  0
 20 36  1  0  0  0  0
 36 37  1  0  0  0  0
 37 38  1  0  0  0  0
 38 39  2  0  0  0  0
 39 40  1  0  0  0  0
 40 41  1  0  0  0  0
 41 42  2  0  0  0  0
 42 43  1  0  0  0  0
 43 44  2  0  0  0  0
 44 45  1  0  0  0  0
 44 46  1  0  0  0  0
 46 47  2  0  0  0  0
 40 48  1  0  0  0  0
 48 49  2  0  0  0  0
 49 50  1  0  0  0  0
 50 51  2  0  0  0  0
 51 52  1  0  0  0  0
 51 53  1  0  0  0  0
 53 54  2  0  0  0  0
 39 55  1  0  0  0  0
 55 56  1  0  0  0  0
 38 57  1  0  0  0  0
 57 58  2  0  0  0  0
 58 59  1  0  0  0  0
 59 60  1  0  0  0  0
 60 61  2  0  0  0  0
 61 62  1  0  0  0  0
 62 63  2  0  0  0  0
 63 64  1  0  0  0  0
 64 65  1  0  0  0  0
 63 66  1  0  0  0  0
 66 67  2  0  0  0  0
 59 68  1  0  0  0  0
 68 69  2  0  0  0  0
 69 70  1  0  0  0  0
 70 71  2  0  0  0  0
 71 72  1  0  0  0  0
 72 73  1  0  0  0  0
 71 74  1  0  0  0  0
 74 75  2  0  0  0  0
 58 76  1  0  0  0  0
 76 77  1  0  0  0  0
 77 78  1  0  0  0  0
 78 79  2  0  0  0  0
 79 80  1  0  0  0  0
 80 81  1  0  0  0  0
 81 82  2  0  0  0  0
 82 83  1  0  0  0  0
 83 84  2  0  0  0  0
 84 85  1  0  0  0  0
 85 86  1  0  0  0  0
 84 87  1  0  0  0  0
 87 88  2  0  0  0  0
 80 89  1  0  0  0  0
 89 90  2  0  0  0  0
 90 91  1  0  0  0  0
 91 92  2  0  0  0  0
 92 93  1  0  0  0  0
 93 94  1  0  0  0  0
 92 95  1  0  0  0  0
 95 96  2  0  0  0  0
 79 97  1  0  0  0  0
 97 98  1  0  0  0  0
 78 99  1  0  0  0  0
 99100  2  0  0  0  0
100101  1  0  0  0  0
100102  1  0  0  0  0
102103  1  0  0  0  0
102104  2  0  0  0  0
104105  1  0  0  0  0
105106  2  0  0  0  0
106107  1  0  0  0  0
107108  1  0  0  0  0
108109  2  0  0  0  0
109110  1  0  0  0  0
110111  2  0  0  0  0
111112  1  0  0  0  0
112113  1  0  0  0  0
113114  1  0  0  0  0
111115  1  0  0  0  0
115116  2  0  0  0  0
115117  1  0  0  0  0
110118  1  0  0  0  0
107119  2  0  0  0  0
119120  1  0  0  0  0
120121  2  0  0  0  0
119122  1  0  0  0  0
122123  2  0  0  0  0
123124  1  0  0  0  0
124125  1  0  0  0  0
124126  2  0  0  0  0
126127  1  0  0  0  0
127128  1  0  0  0  0
128129  1  0  0  0  0
126130  1  0  0  0  0
130131  1  0  0  0  0
130132  2  0  0  0  0
104133  1  0  0  0  0
133134  2  0  0  0  0
134135  1  0  0  0  0
135136  2  0  0  0  0
135137  1  0  0  0  0
137138  2  0  0  0  0
138139  1  0  0  0  0
139140  2  0  0  0  0
140141  1  0  0  0  0
141142  2  0  0  0  0
142143  1  0  0  0  0
143144  2  0  0  0  0
144145  1  0  0  0  0
145146  3  0  0  0  0
144147  1  0  0  0  0
147148  3  0  0  0  0
140149  1  0  0  0  0
149150  1  0  0  0  0
150151  1  0  0  0  0
151152  2  0  0  0  0
152153  1  0  0  0  0
153154  1  0  0  0  0
153155  1  0  0  0  0
 13  2  1  0  0  0  0
 56 19  1  0  0  0  0
 98 57  1  0  0  0  0
121 99  1  0  0  0  0
132122  1  0  0  0  0
143134  1  0  0  0  0
155149  1  0  0  0  0
 12  5  1  0  0  0  0
 28 22  1  0  0  0  0
 35 29  1  0  0  0  0
 55 36  2  0  0  0  0
 67 60  1  0  0  0  0
 75 68  1  0  0  0  0
 97 76  2  0  0  0  0
121105  1  0  0  0  0
142137  1  0  0  0  0
154150  1  0  0  0  0
 47 41  1  0  0  0  0
 54 48  1  0  0  0  0
 88 81  1  0  0  0  0
 96 89  1  0  0  0  0
116108  1  0  0  0  0
155139  1  0  0  0  0
  1156  1  0  0  0  0
  6157  1  0  0  0  0
 11158  1  0  0  0  0
 23159  1  0  0  0  0
 24160  1  0  0  0  0
 26161  1  0  0  0  0
 26162  1  0  0  0  0
 26163  1  0  0  0  0
 27164  1  0  0  0  0
 28165  1  0  0  0  0
 30166  1  0  0  0  0
 31167  1  0  0  0  0
 33168  1  0  0  0  0
 33169  1  0  0  0  0
 33170  1  0  0  0  0
 34171  1  0  0  0  0
 35172  1  0  0  0  0
 42173  1  0  0  0  0
 43174  1  0  0  0  0
 45175  1  0  0  0  0
 45176  1  0  0  0  0
 45177  1  0  0  0  0
 46178  1  0  0  0  0
 47179  1  0  0  0  0
 49180  1  0  0  0  0
 50181  1  0  0  0  0
 52182  1  0  0  0  0
 52183  1  0  0  0  0
 52184  1  0  0  0  0
 53185  1  0  0  0  0
 54186  1  0  0  0  0
 61187  1  0  0  0  0
 62188  1  0  0  0  0
 65189  1  0  0  0  0
 65190  1  0  0  0  0
 65191  1  0  0  0  0
 66192  1  0  0  0  0
 67193  1  0  0  0  0
 69194  1  0  0  0  0
 70195  1  0  0  0  0
 73196  1  0  0  0  0
 73197  1  0  0  0  0
 73198  1  0  0  0  0
 74199  1  0  0  0  0
 75200  1  0  0  0  0
 82201  1  0  0  0  0
 83202  1  0  0  0  0
 86203  1  0  0  0  0
 86204  1  0  0  0  0
 86205  1  0  0  0  0
 87206  1  0  0  0  0
 88207  1  0  0  0  0
 90208  1  0  0  0  0
 91209  1  0  0  0  0
 94210  1  0  0  0  0
 94211  1  0  0  0  0
 94212  1  0  0  0  0
 95213  1  0  0  0  0
 96214  1  0  0  0  0
109215  1  0  0  0  0
113216  1  0  0  0  0
113217  1  0  0  0  0
114218  1  0  0  0  0
114219  1  0  0  0  0
114220  1  0  0  0  0
116221  1  0  0  0  0
123222  1  0  0  0  0
128223  1  0  0  0  0
128224  1  0  0  0  0
129225  1  0  0  0  0
129226  1  0  0  0  0
129227  1  0  0  0  0
132228  1  0  0  0  0
133229  1  0  0  0  0
138230  1  0  0  0  0
141231  1  0  0  0  0
149232  1  0  0  0  0
150233  1  0  0  0  0
151234  1  0  0  0  0
152235  1  0  0  0  0
153236  1  0  0  0  0
154237  1  0  0  0  0
154238  1  0  0  0  0
155239  1  0  0  0  0
M  END
