244

C          5.92010       -6.83310       -0.18100
C          6.40170       -7.93650        0.49910
C          5.72500       -8.64790        1.57990
O          4.68460       -8.35930        2.14490
C          6.54980       -9.84830        1.85130
C          6.33360      -10.84540        2.77840
C          7.25280      -11.88600        2.85140
Cl         7.04240      -13.16340        3.98640
C          8.35340      -11.88760        1.99490
F          9.23530      -12.89400        2.06970
C          8.57770      -10.88480        1.06250
C          7.65950       -9.85060        0.99000
C          7.60290       -8.65200        0.15160
C          8.55600       -8.29100       -0.77230
C          9.66760       -9.08820       -1.10850
N         10.58380       -9.69540       -1.44260
C          8.58650       -7.08030       -1.48950
N          8.71240       -6.10730       -2.08980
C          4.79970       -6.04830        0.05360
C          4.41180       -4.96960       -0.78870
N          4.95110       -4.66470       -2.00640
C          4.92890       -3.31360       -2.41670
C          4.45650       -2.96000       -3.67550
C          4.40010       -1.62940       -4.04050
C          4.80970       -0.62680       -3.16900
C          4.69240        0.81650       -3.54670
C          5.30730       -0.99420       -1.92400
C          5.37180       -2.32030       -1.54770
C          5.40350       -5.63360       -2.91980
C          4.76240       -6.86500       -3.03410
C          5.22790       -7.80430       -3.93220
C          6.32150       -7.53830       -4.74860
C          6.84630       -8.56580       -5.70270
C          6.93240       -6.29380       -4.64960
C          6.48820       -5.34990       -3.74570
C          3.38520       -4.22250       -0.19130
S          2.50740       -2.80420       -0.64630
C          1.58650       -2.84460        0.86140
C          1.94560       -3.92680        1.65960
N          1.45980       -4.25830        2.91930
C          1.42920       -5.64700        3.19030
C          0.87860       -6.50250        2.24010
C          0.87450       -7.86650        2.44350
C          1.42750       -8.41850        3.59160
C          1.47370       -9.90260        3.77760
C          1.98140       -7.56050        4.53220
C          1.98960       -6.19330        4.34010
C          1.46500       -3.35490        3.98580
C          0.72640       -3.64720        5.13470
C          0.83640       -2.86080        6.25970
C          1.67360       -1.74920        6.28230
C          1.86440       -0.98170        7.55540
C          2.33980       -1.41390        5.11170
C          2.24070       -2.19870        3.97540
C          2.95610       -4.70650        1.03710
S          3.78690       -6.15030        1.49910
C          0.70990       -1.73320        1.02510
C         -0.43330       -1.51170        1.78440
N         -1.12480       -2.45550        2.53200
C         -1.42450       -3.71830        2.00420
C         -1.80390       -4.75460        2.86170
C         -2.15730       -5.98620        2.36350
C         -2.13330       -6.22950        0.99090
S         -2.58760       -7.85460        0.47280
C         -2.22950       -7.85980       -1.30760
C         -1.75200       -5.20910        0.13220
C         -1.40520       -3.96780        0.63460
C         -1.85870       -1.97130        3.62960
C         -3.19200       -2.31860        3.82960
C         -3.89710       -1.82750        4.91050
C         -3.27640       -0.97520        5.81270
S         -4.06220       -0.27530        7.23020
C         -5.74020       -0.96350        7.19060
C         -1.94680       -0.61620        5.60910
C         -1.24730       -1.09650        4.52680
C         -0.94130       -0.20060        1.56630
S         -2.30700        0.68590        2.16370
C         -2.02140        1.95960        0.99450
C         -0.93210        1.70150        0.19040
N         -0.62270        2.43880       -0.97590
C         -1.30200        2.11870       -2.14950
C         -0.99520        2.77690       -3.34580
C         -1.72410        2.53940       -4.48870
C         -2.76750        1.61900       -4.48590
S         -3.72170        1.48250       -5.97270
C         -4.50490       -0.15030       -5.81010
C         -3.01610        0.88980       -3.33470
C         -2.28170        1.12580       -2.18810
C         -0.01440        3.70320       -0.83050
C          1.22300        3.81040       -0.20200
C          1.81170        5.04870       -0.03690
C          1.17470        6.20300       -0.48800
S          1.97390        7.74450       -0.17690
C          0.77050        8.98110       -0.73470
C         -0.04660        6.09710       -1.13960
C         -0.62800        4.85820       -1.30640
C         -0.29000        0.50280        0.56640
S          1.07590       -0.35820       -0.02860
C         -2.91620        3.07080        0.74360
C         -2.68170        4.41350        0.98900
N         -1.76640        4.89520        1.87940
C         -1.23140        4.05310        2.89860
C         -2.06050        3.56630        3.90080
C         -1.52340        2.87070        4.96750
C         -0.15470        2.65360        5.05530
C          0.45760        1.96360        6.23300
C          0.65760        3.10120        4.02100
C          0.13050        3.79960        2.95330
C         -1.73630        6.28000        2.19610
C         -0.52020        6.94420        2.26690
C         -0.48350        8.29630        2.54850
C         -1.65050        9.01340        2.77610
C         -1.61790       10.48980        3.02360
C         -2.85920        8.32910        2.75670
C         -2.90670        6.97700        2.48010
C         -3.43300        5.22780        0.09470
S         -3.26270        6.87640       -0.39800
C         -4.32090        6.59240       -1.78480
C         -4.74720        5.23860       -1.85080
N         -5.47850        4.67920       -2.85940
C         -6.32210        3.59530       -2.56030
C         -6.40190        2.49580       -3.40910
C         -7.24960        1.44980       -3.10150
C         -8.02680        1.46500       -1.95020
C         -8.95510        0.33680       -1.62190
C         -7.94010        2.56990       -1.10990
C         -7.10520        3.62620       -1.40800
C         -5.25240        5.00870       -4.21200
C         -3.96100        5.25060       -4.67030
C         -3.74770        5.54620       -6.00110
C         -4.80420        5.59870       -6.90280
C         -4.56840        5.89440       -8.35110
C         -6.08750        5.34200       -6.43520
C         -6.31810        5.05120       -5.10570
C         -4.24710        4.50350       -0.76510
S         -4.19780        2.80470       -0.44450
C         -4.76980        7.57890       -2.65210
C         -4.42540        8.91530       -2.73930
C         -3.32970        9.57440       -2.03420
O         -2.57210        9.10490       -1.19810
C         -3.26860       10.95000       -2.56770
C         -2.40160       11.97030       -2.23040
C         -2.53930       13.19320       -2.86970
C         -3.53620       13.34600       -3.82000
F         -3.65670       14.53710       -4.43110
C         -4.41840       12.33360       -4.17600
C         -4.27500       11.11580       -3.53460
C         -5.02100        9.85950       -3.65100
C         -6.10650        9.66290       -4.47100
C         -6.89710        8.49910       -4.52480
N         -7.61200        7.60310       -4.61710
C         -6.60340       10.62940       -5.36820
N         -7.05260       11.36520       -6.12710
H          6.50250       -6.52650       -1.04010
H          5.47570      -10.81420        3.43100
H          9.44970      -10.94600        0.43220
H          4.12440       -3.73040       -4.35580
H          4.01900       -1.36400       -5.01570
H          3.74470        1.21450       -3.18200
H          5.49460        1.40120       -3.10250
H          4.71800        0.94130       -4.62630
H          5.64730       -0.23090       -1.23980
H          5.76300       -2.59780       -0.57970
H          3.90730       -7.08400       -2.41120
H          4.72660       -8.75880       -4.00460
H          7.79460       -8.96120       -5.33800
H          7.02660       -8.12480       -6.68120
H          6.14890       -9.39260       -5.81120
H          7.78220       -6.06680       -5.27510
H          6.98590       -4.39660       -3.66420
H          0.47780       -6.08530        1.32920
H          0.44150       -8.51360        1.69480
H          2.34600      -10.30030        3.25820
H          0.58760      -10.37560        3.35990
H          1.55520      -10.16410        4.82980
H          2.43510       -7.96820        5.42370
H          2.45330       -5.54930        5.07250
H          0.09690       -4.52310        5.14960
H          0.27730       -3.12130        7.14650
H          2.47850       -0.09890        7.39820
H          2.35930       -1.61330        8.29320
H          0.90600       -0.67850        7.97400
H          2.97830       -0.54140        5.08970
H          2.80680       -1.93550        3.09430
H         -1.82690       -4.58190        3.92580
H         -2.44620       -6.78190        3.03240
H         -2.89080       -7.17170       -1.82640
H         -1.18640       -7.60740       -1.47480
H         -2.42190       -8.87460       -1.64160
H         -1.72830       -5.35660       -0.93590
H         -1.13980       -3.18340       -0.05770
H         -3.68880       -2.97000        3.12620
H         -4.93020       -2.11240        5.02810
H         -5.69830       -2.04670        7.25790
H         -6.24350       -0.55920        8.06340
H         -6.25170       -0.64190        6.28810
H         -1.47220        0.04210        6.31630
H         -0.22140       -0.80460        4.36640
H         -0.18090        3.48450       -3.37510
H         -1.49620        3.07280       -5.39880
H         -5.27200       -0.12660       -5.04170
H         -3.74650       -0.89330       -5.58290
H         -4.95630       -0.35970       -6.77480
H         -3.79430        0.14410       -3.30240
H         -2.50240        0.54280       -1.30720
H          1.71650        2.91730        0.15300
H          2.77170        5.13620        0.45080
H          0.67380        8.94380       -1.81620
H          1.18530        9.93990       -0.43780
H         -0.18830        8.82130       -0.24930
H         -0.56370        6.96950       -1.50250
H         -1.57780        4.78330       -1.81390
H         -3.12400        3.75050        3.85100
H         -2.17660        2.51440        5.75050
H          0.74810        0.95070        5.95970
H          1.35210        2.49260        6.55730
H         -0.23880        1.91860        7.06650
H          1.72190        2.91950        4.06400
H          0.77150        4.15630        2.16430
H          0.39640        6.40630        2.09040
H          0.47170        8.80020        2.58090
H         -1.96080       11.01840        2.13380
H         -0.61010       10.82500        3.25540
H         -2.27800       10.75940        3.84570
H         -3.77660        8.86210        2.96050
H         -3.85430        6.45790        2.48380
H         -5.79680        2.46980       -4.30240
H         -7.31110        0.60220       -3.76950
H         -8.77090       -0.52110       -2.26350
H         -8.83530        0.03210       -0.58380
H         -9.98970        0.65120       -1.75880
H         -8.54430        2.60590       -0.21510
H         -7.06260        4.48750       -0.75730
H         -3.12830        5.19510       -3.98440
H         -2.74060        5.72800       -6.34710
H         -5.36330        6.52030       -8.75100
H         -4.55500        4.96420       -8.91990
H         -3.61470        6.39550       -8.49770
H         -6.92180        5.37990       -7.11910
H         -7.31980        4.86410       -4.75260
H         -5.50550        7.23500       -3.36800
H         -1.63890       11.80960       -1.48420
H         -1.89090       14.02480       -2.64400
H         -5.16940       12.52350       -4.92460
