224

C          2.14490        2.23000        9.03840
C          1.47410        2.16210       10.24560
C          0.40520        1.22770       10.58420
O         -0.15370        0.42370        9.85890
C          0.13440        1.42810       12.02640
C         -0.78190        0.77890       12.82620
C         -0.85400        1.13770       14.16750
Cl        -1.97510        0.36660       15.22220
C         -0.00790        2.13290       14.65610
F         -0.08180        2.47330       15.95030
C          0.91400        2.79120       13.85500
C          0.98600        2.43070       12.51970
C          1.81570        2.92400       11.41920
C          2.73320        3.94400       11.52050
C          3.07440        4.57840       12.73090
N          3.41500        5.12180       13.68380
C          3.44080        4.52050       10.44930
N          4.03170        5.07380        9.63210
C          1.93820        1.54770        7.84850
C          2.78960        1.69310        6.71490
N          4.01480        2.29320        6.70310
C          4.89330        2.28370        7.80620
C          4.97810        1.18010        8.65110
C          5.83960        1.20320        9.72880
C          6.64840        2.30650        9.97960
C          7.55360        2.34500       11.17120
C          6.58430        3.38510        9.10610
C          5.71640        3.38280        8.03190
C          4.53050        2.73800        5.46450
C          5.78470        2.32100        5.03340
C          6.25370        2.71650        3.79590
C          5.49300        3.52960        2.96450
C          5.97420        3.90960        1.59830
C          4.25630        3.97090        3.42240
C          3.77630        3.58650        4.65830
C          2.21240        1.09650        5.58570
S          2.72200        0.92360        3.93640
C          1.31710       -0.06420        3.59410
C          0.53360       -0.28010        4.72370
N         -0.54870       -1.15850        4.71530
C         -0.29510       -2.49890        4.41080
C         -1.24160       -3.25690        3.72630
C         -0.99230       -4.58010        3.42290
C          0.20120       -5.18840        3.79010
C          0.48160       -6.62260        3.45840
C          1.14460       -4.42300        4.46560
C          0.91150       -3.09710        4.77030
C         -1.81600       -0.71390        5.10970
C         -2.68900       -1.55080        5.80020
C         -3.95100       -1.10830        6.13440
C         -4.37720        0.17320        5.80160
C         -5.76810        0.61320        6.13930
C         -3.48760        1.01220        5.14640
C         -2.22110        0.58060        4.80330
C          1.02660        0.41250        5.84390
S          0.54070        0.51550        7.49760
C          0.95930       -0.38670        2.26220
C          1.75470       -0.36510        1.12130
N          3.13350       -0.26410        1.09530
C          3.94020       -0.92760        2.02370
C          5.15970       -0.36740        2.41340
C          5.94070       -0.99090        3.35760
C          5.52800       -2.18850        3.93930
S          6.59560       -2.87590        5.16590
C          5.76690       -4.41490        5.65600
C          4.32710       -2.75810        3.54070
C          3.54210       -2.13450        2.59090
C          3.72100        0.47330        0.05440
C          3.18760        1.70710       -0.31900
C          3.74340        2.41630       -1.36030
C          4.84720        1.91480       -2.04880
S          5.47490        2.90760       -3.36360
C          6.85450        1.93730       -4.02910
C          5.38880        0.69340       -1.66940
C          4.82800       -0.01970       -0.62860
C          0.95960       -0.45030       -0.04490
S          1.31100       -0.41090       -1.73310
C         -0.41220       -0.47580       -2.11980
C         -1.20870       -0.48610       -0.97670
N         -2.58140       -0.36920       -0.91320
C         -3.32500        0.37620       -1.83620
C         -4.61020       -0.04700       -2.17300
C         -5.34260        0.61590       -3.13500
C         -4.80450        1.72430       -3.77460
S         -5.63970        2.58750       -5.06740
C         -7.38730        2.19240       -4.75980
C         -3.53820        2.17760       -3.41320
C         -2.80870        1.51920       -2.44760
C         -3.26800       -0.89750        0.19950
C         -3.11660       -2.22980        0.56460
C         -3.84550       -2.75430        1.61630
C         -4.71270       -1.94360        2.33690
S         -5.71600       -2.50450        3.67230
C         -5.06720       -4.15670        4.05430
C         -4.84650       -0.60060        1.98640
C         -4.14190       -0.08580        0.92350
C         -0.40310       -0.52370        0.19050
S         -0.75120       -0.58830        1.88280
C         -0.72890       -0.45880       -3.50560
C          0.12290       -0.06000       -4.50070
C         -0.44260       -0.09360       -5.79270
C          0.15200        0.32870       -6.99500
C          1.48880        0.93760       -7.00970
C          1.76620        2.01170       -6.13380
C          2.98910        2.61480       -6.13380
C          4.00690        2.18340       -7.01020
C          5.27520        2.79690       -7.04450
C          6.23930        2.35560       -7.90730
C          5.97560        1.28600       -8.77810
C          4.75260        0.67620       -8.77400
C          3.73710        1.10630       -7.89410
C          2.46500        0.50260       -7.87250
C         -0.60580        0.18840       -8.14590
C         -1.96150       -0.24840       -8.12490
C         -2.59400       -0.59260       -6.89830
C         -4.00800       -0.84290       -6.79890
C         -4.69570       -1.59520       -5.87950
C         -6.08890       -1.51200       -6.00400
C         -6.48490       -0.68110       -7.01890
S         -8.14200       -0.37240       -7.47080
C         -7.96310        0.71800       -8.92610
C         -7.70150        2.16140       -8.54520
S         -5.12510        0.00360       -7.84080
C         -1.77710       -0.57590       -5.77520
S         -2.26060       -1.00540       -4.15710
C         -2.49860       -0.27770       -9.41370
C         -1.62740        0.14030      -10.40990
S         -0.06190        0.57180       -9.75580
C         -2.04140        0.20950      -11.74920
C         -1.36190        0.58000      -12.88150
C          0.06980        0.90210      -12.96840
O          0.88050        0.97200      -12.06720
C          0.34520        1.11040      -14.40830
C          1.54800        1.40930      -15.01380
C          1.57120        1.55350      -16.39600
Cl         3.03710        1.92530      -17.21590
C          0.38850        1.39290      -17.12050
F          0.41830        1.52940      -18.45210
C         -0.82400        1.09540      -16.51730
C         -0.84490        0.95230      -15.13880
C         -1.93340        0.65340      -14.21010
C         -3.25480        0.52050      -14.55830
C         -3.73280        0.60550      -15.88260
N         -4.18640        0.65810      -16.93600
C         -4.32730        0.31150      -13.66690
N         -5.26140        0.15820      -13.01470
H          2.97750        2.92060        9.00920
H         -1.42480        0.01530       12.41860
H          1.53710        3.55180       14.29600
H          4.36380        0.31160        8.46400
H          5.89050        0.34420       10.38230
H          7.09760        2.94050       11.96290
H          8.50630        2.80470       10.91790
H          7.73400        1.34520       11.55830
H          7.20740        4.24910        9.27930
H          5.66140        4.23450        7.37240
H          6.37700        1.67460        5.66380
H          7.22510        2.37710        3.46650
H          5.79800        4.96610        1.40700
H          5.43270        3.34160        0.83990
H          7.03580        3.70450        1.48660
H          3.66110        4.62210        2.79930
H          2.81470        3.93420        5.00640
H         -2.16240       -2.78250        3.42490
H         -1.73530       -5.15330        2.88560
H          1.19000       -6.68740        2.63160
H         -0.42880       -7.14040        3.16720
H          0.91920       -7.13660        4.31240
H          2.07270       -4.88550        4.77120
H          1.65680       -2.52140        5.29970
H         -2.36850       -2.54490        6.07580
H         -4.62300       -1.76680        6.66510
H         -6.49270       -0.02670        5.63590
H         -5.94350        0.53530        7.21130
H         -5.93800        1.64240        5.83310
H         -3.79040        2.01700        4.88830
H         -1.54320        1.23950        4.27990
H          5.47330        0.57330        1.98840
H          6.87540       -0.55090        3.66820
H          5.67520       -5.07610        4.79920
H          6.41160       -4.86800        6.40270
H          4.79750       -4.19320        6.09300
H          3.98630       -3.69110        3.95660
H          2.60790       -2.58960        2.29590
H          2.33850        2.10350        0.21790
H          3.33290        3.37080       -1.65210
H          7.27320        2.53350       -4.83340
H          6.48510        0.99690       -4.42790
H          7.60380        1.78000       -3.25870
H          6.23990        0.27740       -2.18310
H          5.24620       -0.97400       -0.34540
H         -5.02210       -0.92350       -1.69620
H         -6.31960        0.24470       -3.39850
H         -7.95830        2.91050       -5.33960
H         -7.61780        1.18490       -5.09390
H         -7.60100        2.31580       -3.70280
H         -3.13320        3.05140       -3.90040
H         -1.82840        1.87990       -2.17390
H         -2.44090       -2.86280        0.00810
H         -3.74100       -3.80140        1.85030
H         -5.26820       -4.84010        3.23430
H         -4.00540       -4.09310        4.27110
H         -5.60540       -4.48230        4.93900
H         -5.51180        0.02610        2.55910
H         -4.25680        0.95060        0.64380
H          1.12570        0.27440       -4.30210
H          0.98170        2.36820       -5.48210
H          3.19690        3.43590       -5.46300
H          5.46370        3.62550       -6.37640
H          7.21020        2.82970       -7.93200
H          6.74870        0.95340       -9.45540
H          4.54050       -0.14000       -9.44930
H          2.27260       -0.32440       -8.54020
H         -4.21500       -2.23040       -5.15870
H         -6.78420       -2.04500       -5.38150
H         -8.91070        0.61700       -9.45470
H         -7.16350        0.30810       -9.54270
H         -6.79340        2.25370       -7.95360
H         -8.53550        2.55970       -7.97170
H         -7.58380        2.75590       -9.44830
H         -3.49170       -0.61320       -9.65250
H         -3.07720       -0.07880      -11.88180
H          2.44450        1.52800      -14.42640
H         -1.69910        0.98400      -17.13620
