
  xtb     02112202213D
 energy: -280.339543512124 gnorm: 0.000584221429 xtb: 6.4.1 (unknown)
137151  0     0  0            999 V2000
   -4.3062   -6.4903    0.5239 C   0  0  0  0  0  0  0  0  0  0  0  0
   -5.1074   -6.8384   -0.5135 C   0  0  0  0  0  0  0  0  0  0  0  0
   -5.0757   -6.1562   -1.8382 C   0  0  0  0  0  0  0  0  0  0  0  0
   -4.4654   -5.1597   -2.1496 O   0  0  0  0  0  0  0  0  0  0  0  0
   -5.8564   -7.0280   -2.7413 C   0  0  0  0  0  0  0  0  0  0  0  0
   -6.0930   -6.8582   -4.0909 C   0  0  0  0  0  0  0  0  0  0  0  0
   -6.8361   -7.8248   -4.7575 C   0  0  0  0  0  0  0  0  0  0  0  0
   -7.1718   -7.6729   -6.4359 Cl  0  0  0  0  0  0  0  0  0  0  0  0
   -7.3104   -8.9329   -4.0488 C   0  0  0  0  0  0  0  0  0  0  0  0
   -8.0180   -9.8625   -4.6987 F   0  0  0  0  0  0  0  0  0  0  0  0
   -7.0752   -9.1114   -2.6950 C   0  0  0  0  0  0  0  0  0  0  0  0
   -6.3377   -8.1421   -2.0314 C   0  0  0  0  0  0  0  0  0  0  0  0
   -5.9350   -8.0267   -0.6350 C   0  0  0  0  0  0  0  0  0  0  0  0
   -6.3458   -8.8344    0.3891 C   0  0  0  0  0  0  0  0  0  0  0  0
   -7.1693   -9.9687    0.2199 C   0  0  0  0  0  0  0  0  0  0  0  0
   -7.8316  -10.9019    0.1396 N   0  0  0  0  0  0  0  0  0  0  0  0
   -6.0603   -8.6059    1.7517 C   0  0  0  0  0  0  0  0  0  0  0  0
   -5.9152   -8.4599    2.8805 N   0  0  0  0  0  0  0  0  0  0  0  0
   -3.6046   -5.2326    0.5759 C   0  0  0  0  0  0  0  0  0  0  0  0
   -2.2491   -5.1521    0.8907 C   0  0  0  0  0  0  0  0  0  0  0  0
   -1.5345   -6.3430    1.1584 C   0  0  0  0  0  0  0  0  0  0  0  0
   -0.9769   -7.3177    1.3853 N   0  0  0  0  0  0  0  0  0  0  0  0
   -1.5417   -3.9282    0.9034 C   0  0  0  0  0  0  0  0  0  0  0  0
   -0.1367   -3.9720    1.0256 C   0  0  0  0  0  0  0  0  0  0  0  0
    1.0100   -3.9929    1.0471 N   0  0  0  0  0  0  0  0  0  0  0  0
   -2.1787   -2.6961    0.6889 C   0  0  0  0  0  0  0  0  0  0  0  0
   -3.5490   -2.7593    0.3327 C   0  0  0  0  0  0  0  0  0  0  0  0
   -4.2590   -4.0078    0.2966 C   0  0  0  0  0  0  0  0  0  0  0  0
   -5.5567   -3.8348    0.0598 N   0  0  0  0  0  0  0  0  0  0  0  0
   -5.8427   -2.2657   -0.1508 S   0  0  0  0  0  0  0  0  0  0  0  0
   -4.3492   -1.7241    0.0946 N   0  0  0  0  0  0  0  0  0  0  0  0
   -1.5255   -1.4414    0.8791 C   0  0  0  0  0  0  0  0  0  0  0  0
   -0.5897   -1.0969    1.8629 C   0  0  0  0  0  0  0  0  0  0  0  0
   -0.2240   -1.8614    2.9446 N   0  0  0  0  0  0  0  0  0  0  0  0
    1.0485   -1.6704    3.5089 C   0  0  0  0  0  0  0  0  0  0  0  0
    1.2094   -1.6536    4.8900 C   0  0  0  0  0  0  0  0  0  0  0  0
    2.4476   -1.4011    5.4477 C   0  0  0  0  0  0  0  0  0  0  0  0
    3.5433   -1.1596    4.6283 C   0  0  0  0  0  0  0  0  0  0  0  0
    5.1578   -0.7734    5.2155 S   0  0  0  0  0  0  0  0  0  0  0  0
    4.9889   -0.7938    7.0231 C   0  0  0  0  0  0  0  0  0  0  0  0
    3.3910   -1.2172    3.2434 C   0  0  0  0  0  0  0  0  0  0  0  0
    2.1597   -1.4734    2.6876 C   0  0  0  0  0  0  0  0  0  0  0  0
   -1.1000   -2.8205    3.4745 C   0  0  0  0  0  0  0  0  0  0  0  0
   -0.6268   -4.0703    3.8790 C   0  0  0  0  0  0  0  0  0  0  0  0
   -1.5139   -5.0588    4.2412 C   0  0  0  0  0  0  0  0  0  0  0  0
   -2.8898   -4.8270    4.2087 C   0  0  0  0  0  0  0  0  0  0  0  0
   -3.9309   -6.2045    4.5367 S   0  0  0  0  0  0  0  0  0  0  0  0
   -5.5975   -5.5850    4.1783 C   0  0  0  0  0  0  0  0  0  0  0  0
   -3.3555   -3.5505    3.9061 C   0  0  0  0  0  0  0  0  0  0  0  0
   -2.4665   -2.5577    3.5512 C   0  0  0  0  0  0  0  0  0  0  0  0
   -0.1423    0.2317    1.6742 C   0  0  0  0  0  0  0  0  0  0  0  0
    1.0034    1.2454    2.4747 S   0  0  0  0  0  0  0  0  0  0  0  0
    0.6483    2.5565    1.3798 C   0  0  0  0  0  0  0  0  0  0  0  0
   -0.3235    2.2189    0.4395 C   0  0  0  0  0  0  0  0  0  0  0  0
   -0.7294    3.0038   -0.6562 N   0  0  0  0  0  0  0  0  0  0  0  0
   -0.0468    2.7745   -1.8585 C   0  0  0  0  0  0  0  0  0  0  0  0
    1.3375    2.6038   -1.8541 C   0  0  0  0  0  0  0  0  0  0  0  0
    2.0373    2.4179   -3.0287 C   0  0  0  0  0  0  0  0  0  0  0  0
    1.3607    2.3767   -4.2407 C   0  0  0  0  0  0  0  0  0  0  0  0
    2.1443    2.1673   -5.8031 S   0  0  0  0  0  0  0  0  0  0  0  0
    3.9058    2.0299   -5.3935 C   0  0  0  0  0  0  0  0  0  0  0  0
   -0.0305    2.4994   -4.2487 C   0  0  0  0  0  0  0  0  0  0  0  0
   -0.7262    2.6912   -3.0777 C   0  0  0  0  0  0  0  0  0  0  0  0
   -1.8387    3.8273   -0.5521 C   0  0  0  0  0  0  0  0  0  0  0  0
   -2.0664    4.8583   -1.4666 C   0  0  0  0  0  0  0  0  0  0  0  0
   -3.1588    5.6915   -1.3393 C   0  0  0  0  0  0  0  0  0  0  0  0
   -4.0497    5.5207   -0.2880 C   0  0  0  0  0  0  0  0  0  0  0  0
   -5.4745    6.5242   -0.0158 S   0  0  0  0  0  0  0  0  0  0  0  0
   -5.4642    7.6936   -1.4036 C   0  0  0  0  0  0  0  0  0  0  0  0
   -3.8220    4.5019    0.6359 C   0  0  0  0  0  0  0  0  0  0  0  0
   -2.7365    3.6684    0.5082 C   0  0  0  0  0  0  0  0  0  0  0  0
   -0.7465    0.8878    0.6080 C   0  0  0  0  0  0  0  0  0  0  0  0
   -1.9287   -0.0986   -0.1796 S   0  0  0  0  0  0  0  0  0  0  0  0
    1.5295    3.6782    1.3450 C   0  0  0  0  0  0  0  0  0  0  0  0
    2.9044    3.5087    1.6177 C   0  0  0  0  0  0  0  0  0  0  0  0
    3.9009    4.4411    1.1388 C   0  0  0  0  0  0  0  0  0  0  0  0
    5.1315    4.0425    1.4551 N   0  0  0  0  0  0  0  0  0  0  0  0
    5.0529    2.6432    2.2350 S   0  0  0  0  0  4  0  0  0  0  0  0
    3.4584    2.4620    2.2297 N   0  0  0  0  0  0  0  0  0  0  0  0
    3.5568    5.6201    0.4399 C   0  0  0  0  0  0  0  0  0  0  0  0
    2.1772    5.9185    0.4314 C   0  0  0  0  0  0  0  0  0  0  0  0
    1.6106    7.0243   -0.0490 N   0  0  0  0  0  0  0  0  0  0  0  0
    0.0111    6.8871    0.0609 S   0  0  0  0  0  0  0  0  0  0  0  0
   -0.0545    5.4145    0.6889 N   0  0  0  0  0  0  0  0  0  0  0  0
    1.1824    4.9510    0.8522 C   0  0  0  0  0  0  0  0  0  0  0  0
    4.5069    6.4326   -0.2258 C   0  0  0  0  0  0  0  0  0  0  0  0
    5.5850    5.9288   -0.9033 C   0  0  0  0  0  0  0  0  0  0  0  0
    5.6529    4.5459   -1.4115 C   0  0  0  0  0  0  0  0  0  0  0  0
    4.8722    3.6347   -1.2352 O   0  0  0  0  0  0  0  0  0  0  0  0
    6.7969    4.5346   -2.3556 C   0  0  0  0  0  0  0  0  0  0  0  0
    7.2289    3.4977   -3.1622 C   0  0  0  0  0  0  0  0  0  0  0  0
    6.5606    1.9319   -3.0322 Cl  0  0  0  0  0  0  0  0  0  0  0  0
    8.2395    3.7547   -4.0978 C   0  0  0  0  0  0  0  0  0  0  0  0
    8.8230    2.4927   -5.0953 Cl  0  0  0  0  0  0  0  0  0  0  0  0
    8.7375    5.0479   -4.2444 C   0  0  0  0  0  0  0  0  0  0  0  0
    9.9027    5.3620   -5.4563 Cl  0  0  0  0  0  0  0  0  0  0  0  0
    8.2898    6.1006   -3.4278 C   0  0  0  0  0  0  0  0  0  0  0  0
    8.8273    7.6894   -3.7852 Cl  0  0  0  0  0  0  0  0  0  0  0  0
    7.3611    5.8246   -2.4324 C   0  0  0  0  0  0  0  0  0  0  0  0
    6.7227    6.6600   -1.4170 C   0  0  0  0  0  0  0  0  0  0  0  0
    7.2028    7.8088   -0.8444 C   0  0  0  0  0  0  0  0  0  0  0  0
    8.4760    8.3858   -1.0324 C   0  0  0  0  0  0  0  0  0  0  0  0
    9.5088    8.8864   -1.0391 N   0  0  0  0  0  0  0  0  0  0  0  0
    6.5138    8.4941    0.1830 C   0  0  0  0  0  0  0  0  0  0  0  0
    6.0157    9.1081    1.0146 N   0  0  0  0  0  0  0  0  0  0  0  0
   -4.1265   -7.1845    1.3372 H   0  0  0  0  0  0  0  0  0  0  0  0
   -5.7089   -5.9953   -4.6113 H   0  0  0  0  0  0  0  0  0  0  0  0
   -7.4630   -9.9920   -2.2092 H   0  0  0  0  0  0  0  0  0  0  0  0
    0.3563   -1.8259    5.5297 H   0  0  0  0  0  0  0  0  0  0  0  0
    2.5385   -1.3838    6.5214 H   0  0  0  0  0  0  0  0  0  0  0  0
    4.2768   -0.0367    7.3380 H   0  0  0  0  0  0  0  0  0  0  0  0
    4.6911   -1.7830    7.3577 H   0  0  0  0  0  0  0  0  0  0  0  0
    5.9745   -0.5563    7.4112 H   0  0  0  0  0  0  0  0  0  0  0  0
    4.2518   -1.0597    2.6130 H   0  0  0  0  0  0  0  0  0  0  0  0
    2.0506   -1.5425    1.6167 H   0  0  0  0  0  0  0  0  0  0  0  0
    0.4336   -4.2691    3.8633 H   0  0  0  0  0  0  0  0  0  0  0  0
   -1.1544   -6.0381    4.5150 H   0  0  0  0  0  0  0  0  0  0  0  0
   -6.2396   -6.4580    4.2426 H   0  0  0  0  0  0  0  0  0  0  0  0
   -5.6348   -5.1788    3.1709 H   0  0  0  0  0  0  0  0  0  0  0  0
   -5.8931   -4.8462    4.9176 H   0  0  0  0  0  0  0  0  0  0  0  0
   -4.4080   -3.3201    3.9413 H   0  0  0  0  0  0  0  0  0  0  0  0
   -2.8367   -1.5730    3.3045 H   0  0  0  0  0  0  0  0  0  0  0  0
    1.8924    2.6376   -0.9311 H   0  0  0  0  0  0  0  0  0  0  0  0
    3.1087    2.3208   -2.9704 H   0  0  0  0  0  0  0  0  0  0  0  0
    4.2449    2.9373   -4.9023 H   0  0  0  0  0  0  0  0  0  0  0  0
    4.0740    1.1578   -4.7692 H   0  0  0  0  0  0  0  0  0  0  0  0
    4.4201    1.9090   -6.3419 H   0  0  0  0  0  0  0  0  0  0  0  0
   -0.5558    2.4356   -5.1894 H   0  0  0  0  0  0  0  0  0  0  0  0
   -1.8028    2.7653   -3.0949 H   0  0  0  0  0  0  0  0  0  0  0  0
   -1.3694    5.0243   -2.2740 H   0  0  0  0  0  0  0  0  0  0  0  0
   -3.2944    6.4788   -2.0632 H   0  0  0  0  0  0  0  0  0  0  0  0
   -4.5746    8.3152   -1.3614 H   0  0  0  0  0  0  0  0  0  0  0  0
   -5.5267    7.1546   -2.3441 H   0  0  0  0  0  0  0  0  0  0  0  0
   -6.3488    8.3089   -1.2728 H   0  0  0  0  0  0  0  0  0  0  0  0
   -4.5139    4.3730    1.4539 H   0  0  0  0  0  0  0  0  0  0  0  0
   -2.5759    2.8872    1.2342 H   0  0  0  0  0  0  0  0  0  0  0  0
    4.2917    7.4929   -0.2599 H   0  0  0  0  0  0  0  0  0  0  0  0
  1  2  2  0  0  0  0
  2  3  1  0  0  0  0
  3  4  2  0  0  0  0
  3  5  1  0  0  0  0
  5  6  2  0  0  0  0
  6  7  1  0  0  0  0
  7  8  1  0  0  0  0
  7  9  2  0  0  0  0
  9 10  1  0  0  0  0
  9 11  1  0  0  0  0
 11 12  2  0  0  0  0
 12 13  1  0  0  0  0
 13 14  2  0  0  0  0
 14 15  1  0  0  0  0
 15 16  3  0  0  0  0
 14 17  1  0  0  0  0
 17 18  3  0  0  0  0
  1 19  1  0  0  0  0
 19 20  2  0  0  0  0
 20 21  1  0  0  0  0
 21 22  3  0  0  0  0
 20 23  1  0  0  0  0
 23 24  1  0  0  0  0
 24 25  3  0  0  0  0
 23 26  2  0  0  0  0
 26 27  1  0  0  0  0
 27 28  1  0  0  0  0
 28 29  2  0  0  0  0
 29 30  1  0  0  0  0
 30 31  1  0  0  0  0
 26 32  1  0  0  0  0
 32 33  2  0  0  0  0
 33 34  1  0  0  0  0
 34 35  1  0  0  0  0
 35 36  2  0  0  0  0
 36 37  1  0  0  0  0
 37 38  2  0  0  0  0
 38 39  1  0  0  0  0
 39 40  1  0  0  0  0
 38 41  1  0  0  0  0
 41 42  2  0  0  0  0
 34 43  1  0  0  0  0
 43 44  2  0  0  0  0
 44 45  1  0  0  0  0
 45 46  2  0  0  0  0
 46 47  1  0  0  0  0
 47 48  1  0  0  0  0
 46 49  1  0  0  0  0
 49 50  2  0  0  0  0
 33 51  1  0  0  0  0
 51 52  1  0  0  0  0
 52 53  1  0  0  0  0
 53 54  2  0  0  0  0
 54 55  1  0  0  0  0
 55 56  1  0  0  0  0
 56 57  2  0  0  0  0
 57 58  1  0  0  0  0
 58 59  2  0  0  0  0
 59 60  1  0  0  0  0
 60 61  1  0  0  0  0
 59 62  1  0  0  0  0
 62 63  2  0  0  0  0
 55 64  1  0  0  0  0
 64 65  2  0  0  0  0
 65 66  1  0  0  0  0
 66 67  2  0  0  0  0
 67 68  1  0  0  0  0
 68 69  1  0  0  0  0
 67 70  1  0  0  0  0
 70 71  2  0  0  0  0
 54 72  1  0  0  0  0
 72 73  1  0  0  0  0
 53 74  1  0  0  0  0
 74 75  2  0  0  0  0
 75 76  1  0  0  0  0
 76 77  1  0  0  0  0
 77 78  2  0  0  0  0
 78 79  2  0  0  0  0
 76 80  2  0  0  0  0
 80 81  1  0  0  0  0
 81 82  2  0  0  0  0
 82 83  1  0  0  0  0
 83 84  1  0  0  0  0
 84 85  2  0  0  0  0
 80 86  1  0  0  0  0
 86 87  2  0  0  0  0
 87 88  1  0  0  0  0
 88 89  2  0  0  0  0
 88 90  1  0  0  0  0
 90 91  2  0  0  0  0
 91 92  1  0  0  0  0
 91 93  1  0  0  0  0
 93 94  1  0  0  0  0
 93 95  2  0  0  0  0
 95 96  1  0  0  0  0
 95 97  1  0  0  0  0
 97 98  1  0  0  0  0
 97 99  2  0  0  0  0
 99100  1  0  0  0  0
100101  2  0  0  0  0
101102  1  0  0  0  0
102103  3  0  0  0  0
101104  1  0  0  0  0
104105  3  0  0  0  0
 13  2  1  0  0  0  0
 28 19  1  0  0  0  0
 73 32  1  0  0  0  0
 85 74  1  0  0  0  0
100 87  1  0  0  0  0
 12  5  1  0  0  0  0
 31 27  2  0  0  0  0
 42 35  1  0  0  0  0
 50 43  1  0  0  0  0
 72 51  2  0  0  0  0
 79 75  1  0  0  0  0
 85 81  1  0  0  0  0
 99 90  1  0  0  0  0
 63 56  1  0  0  0  0
 71 64  1  0  0  0  0
  1106  1  0  0  0  0
  6107  1  0  0  0  0
 11108  1  0  0  0  0
 36109  1  0  0  0  0
 37110  1  0  0  0  0
 40111  1  0  0  0  0
 40112  1  0  0  0  0
 40113  1  0  0  0  0
 41114  1  0  0  0  0
 42115  1  0  0  0  0
 44116  1  0  0  0  0
 45117  1  0  0  0  0
 48118  1  0  0  0  0
 48119  1  0  0  0  0
 48120  1  0  0  0  0
 49121  1  0  0  0  0
 50122  1  0  0  0  0
 57123  1  0  0  0  0
 58124  1  0  0  0  0
 61125  1  0  0  0  0
 61126  1  0  0  0  0
 61127  1  0  0  0  0
 62128  1  0  0  0  0
 63129  1  0  0  0  0
 65130  1  0  0  0  0
 66131  1  0  0  0  0
 69132  1  0  0  0  0
 69133  1  0  0  0  0
 69134  1  0  0  0  0
 70135  1  0  0  0  0
 71136  1  0  0  0  0
 86137  1  0  0  0  0
M  END
