
  xtb     02042202213D
 energy: -370.088058280089 gnorm: 0.000400073551 xtb: 6.4.1 (unknown)
196215  0     0  0            999 V2000
    6.2606    1.0874   -9.9551 C   0  0  0  0  0  0  0  0  0  0  0  0
    5.9567    1.2560  -11.2791 C   0  0  0  0  0  0  0  0  0  0  0  0
    4.6094    1.2346  -11.8699 C   0  0  0  0  0  0  0  0  0  0  0  0
    3.5503    1.0245  -11.3141 O   0  0  0  0  0  0  0  0  0  0  0  0
    4.7948    1.5453  -13.3037 C   0  0  0  0  0  0  0  0  0  0  0  0
    3.8306    1.6564  -14.2846 C   0  0  0  0  0  0  0  0  0  0  0  0
    4.2382    1.9628  -15.5772 C   0  0  0  0  0  0  0  0  0  0  0  0
    3.0904    2.1153  -16.8484 Cl  0  0  0  0  0  0  0  0  0  0  0  0
    5.5980    2.1479  -15.8389 C   0  0  0  0  0  0  0  0  0  0  0  0
    5.9841    2.4461  -17.0847 F   0  0  0  0  0  0  0  0  0  0  0  0
    6.5714    2.0358  -14.8583 C   0  0  0  0  0  0  0  0  0  0  0  0
    6.1627    1.7284  -13.5696 C   0  0  0  0  0  0  0  0  0  0  0  0
    6.9163    1.5330  -12.3328 C   0  0  0  0  0  0  0  0  0  0  0  0
    8.2825    1.5718  -12.2273 C   0  0  0  0  0  0  0  0  0  0  0  0
    9.1485    1.8457  -13.3079 C   0  0  0  0  0  0  0  0  0  0  0  0
    9.9065    2.0649  -14.1411 N   0  0  0  0  0  0  0  0  0  0  0  0
    9.0306    1.3292  -11.0555 C   0  0  0  0  0  0  0  0  0  0  0  0
    9.7187    1.1350  -10.1564 N   0  0  0  0  0  0  0  0  0  0  0  0
    5.4397    0.7788   -8.8551 C   0  0  0  0  0  0  0  0  0  0  0  0
    5.9588    0.6580   -7.5785 C   0  0  0  0  0  0  0  0  0  0  0  0
    5.0114    0.3203   -6.6047 C   0  0  0  0  0  0  0  0  0  0  0  0
    5.2270    0.1922   -5.2128 C   0  0  0  0  0  0  0  0  0  0  0  0
    6.5754    0.2098   -4.6769 C   0  0  0  0  0  0  0  0  0  0  0  0
    7.7741   -0.8586   -5.3582 S   0  0  0  0  0  0  0  0  0  0  0  0
    9.0022   -0.3118   -4.2714 C   0  0  0  0  0  0  0  0  0  0  0  0
   10.3965   -0.8232   -4.3668 C   0  0  0  0  0  0  0  0  0  0  0  0
   11.1723   -0.0865   -5.4620 C   0  0  0  0  0  0  0  0  0  0  0  0
    8.5026    0.6464   -3.4409 C   0  0  0  0  0  0  0  0  0  0  0  0
    9.4256    1.4394   -2.2307 Cl  0  0  0  0  0  0  0  0  0  0  0  0
    7.1289    0.9391   -3.6608 C   0  0  0  0  0  0  0  0  0  0  0  0
    6.3229    2.1625   -2.7812 Cl  0  0  0  0  0  0  0  0  0  0  0  0
    4.0963    0.0262   -4.4349 C   0  0  0  0  0  0  0  0  0  0  0  0
    2.7846   -0.0942   -4.9774 C   0  0  0  0  0  0  0  0  0  0  0  0
    2.5825   -0.0833   -6.3747 C   0  0  0  0  0  0  0  0  0  0  0  0
    1.3008   -0.3233   -7.0049 C   0  0  0  0  0  0  0  0  0  0  0  0
    1.0786   -0.8790   -8.2390 C   0  0  0  0  0  0  0  0  0  0  0  0
   -0.2807   -0.9586   -8.5911 C   0  0  0  0  0  0  0  0  0  0  0  0
   -1.1197   -0.4657   -7.6382 C   0  0  0  0  0  0  0  0  0  0  0  0
   -2.6096   -0.4040   -7.6488 C   0  0  0  0  0  0  0  0  0  0  0  0
   -3.1483    0.8690   -7.0009 C   0  0  0  0  0  0  0  0  0  0  0  0
   -0.2233    0.0967   -6.2704 S   0  0  0  0  0  0  0  0  0  0  0  0
    3.7127    0.1730   -7.1557 C   0  0  0  0  0  0  0  0  0  0  0  0
    3.7207    0.4513   -8.8762 S   0  0  0  0  0  0  0  0  0  0  0  0
    1.8224   -0.2020   -3.9483 C   0  0  0  0  0  0  0  0  0  0  0  0
    2.3423   -0.1448   -2.6877 C   0  0  0  0  0  0  0  0  0  0  0  0
    4.0880   -0.0715   -2.6976 S   0  0  0  0  0  0  0  0  0  0  0  0
    1.5884    0.0062   -1.4816 C   0  0  0  0  0  0  0  0  0  0  0  0
    0.4998    0.8522   -1.3107 C   0  0  0  0  0  0  0  0  0  0  0  0
    0.0114    1.7621   -2.2309 N   0  0  0  0  0  0  0  0  0  0  0  0
   -1.3730    1.9961   -2.2543 C   0  0  0  0  0  0  0  0  0  0  0  0
   -1.8735    3.2870   -2.4228 C   0  0  0  0  0  0  0  0  0  0  0  0
   -3.2311    3.5113   -2.3893 C   0  0  0  0  0  0  0  0  0  0  0  0
   -4.1187    2.4566   -2.1812 C   0  0  0  0  0  0  0  0  0  0  0  0
   -5.8365    2.8562   -2.1149 S   0  0  0  0  0  0  0  0  0  0  0  0
   -6.5691    1.4045   -1.3044 C   0  0  0  0  0  0  0  0  0  0  0  0
   -3.6269    1.1654   -2.0512 C   0  0  0  0  0  0  0  0  0  0  0  0
   -2.2650    0.9397   -2.0917 C   0  0  0  0  0  0  0  0  0  0  0  0
    0.8466    2.3819   -3.1703 C   0  0  0  0  0  0  0  0  0  0  0  0
    2.1623    2.7249   -2.8533 C   0  0  0  0  0  0  0  0  0  0  0  0
    3.0146    3.1775   -3.8338 C   0  0  0  0  0  0  0  0  0  0  0  0
    2.5768    3.3108   -5.1506 C   0  0  0  0  0  0  0  0  0  0  0  0
    3.7996    3.7367   -6.3492 S   0  0  0  0  0  0  0  0  0  0  0  0
    2.8692    3.8331   -7.9047 C   0  0  0  0  0  0  0  0  0  0  0  0
    1.2409    3.0833   -5.4443 C   0  0  0  0  0  0  0  0  0  0  0  0
    0.3859    2.6276   -4.4598 C   0  0  0  0  0  0  0  0  0  0  0  0
   -0.0401    0.7064   -0.0074 C   0  0  0  0  0  0  0  0  0  0  0  0
   -1.4139    1.3784    0.8022 S   0  0  0  0  0  0  0  0  0  0  0  0
   -1.0362    0.4500    2.2312 C   0  0  0  0  0  0  0  0  0  0  0  0
    0.0656   -0.3758    2.0679 C   0  0  0  0  0  0  0  0  0  0  0  0
    0.4623   -1.3442    2.9981 N   0  0  0  0  0  0  0  0  0  0  0  0
    1.6993   -1.2001    3.6381 C   0  0  0  0  0  0  0  0  0  0  0  0
    2.3300   -2.3036    4.2080 C   0  0  0  0  0  0  0  0  0  0  0  0
    3.4934   -2.1541    4.9355 C   0  0  0  0  0  0  0  0  0  0  0  0
    4.0588   -0.8956    5.0930 C   0  0  0  0  0  0  0  0  0  0  0  0
    5.5121   -0.5844    6.0483 S   0  0  0  0  0  0  0  0  0  0  0  0
    5.6872   -2.0874    7.0530 C   0  0  0  0  0  0  0  0  0  0  0  0
    3.4727    0.1993    4.4645 C   0  0  0  0  0  0  0  0  0  0  0  0
    2.3065    0.0517    3.7463 C   0  0  0  0  0  0  0  0  0  0  0  0
   -0.5609   -2.1181    3.5694 C   0  0  0  0  0  0  0  0  0  0  0  0
   -0.5840   -2.4436    4.9228 C   0  0  0  0  0  0  0  0  0  0  0  0
   -1.6824   -3.0654    5.4831 C   0  0  0  0  0  0  0  0  0  0  0  0
   -2.7913   -3.3612    4.7068 C   0  0  0  0  0  0  0  0  0  0  0  0
   -4.2994   -4.0101    5.3563 S   0  0  0  0  0  0  0  0  0  0  0  0
   -3.9765   -4.1569    7.1365 C   0  0  0  0  0  0  0  0  0  0  0  0
   -2.7451   -3.1121    3.3370 C   0  0  0  0  0  0  0  0  0  0  0  0
   -1.6415   -2.5115    2.7754 C   0  0  0  0  0  0  0  0  0  0  0  0
    0.6447   -0.1973    0.7926 C   0  0  0  0  0  0  0  0  0  0  0  0
    2.0047   -0.8795   -0.0233 S   0  0  0  0  0  0  0  0  0  0  0  0
   -1.8139    0.4897    3.4317 C   0  0  0  0  0  0  0  0  0  0  0  0
   -1.2826    0.4119    4.6846 C   0  0  0  0  0  0  0  0  0  0  0  0
   -2.2409    0.1936    5.6981 C   0  0  0  0  0  0  0  0  0  0  0  0
   -1.9932   -0.0624    7.0615 C   0  0  0  0  0  0  0  0  0  0  0  0
   -0.6328   -0.0345    7.5736 C   0  0  0  0  0  0  0  0  0  0  0  0
    0.4266    1.3039    7.2263 S   0  0  0  0  0  0  0  0  0  0  0  0
    1.7700    0.5663    8.0238 C   0  0  0  0  0  0  0  0  0  0  0  0
    3.0813    1.2595    8.1380 C   0  0  0  0  0  0  0  0  0  0  0  0
    3.1883    2.0158    9.4643 C   0  0  0  0  0  0  0  0  0  0  0  0
    1.4016   -0.6401    8.5397 C   0  0  0  0  0  0  0  0  0  0  0  0
    2.4760   -1.6834    9.3795 Cl  0  0  0  0  0  0  0  0  0  0  0  0
    0.0447   -0.9802    8.2957 C   0  0  0  0  0  0  0  0  0  0  0  0
   -0.6116   -2.4723    8.8226 Cl  0  0  0  0  0  0  0  0  0  0  0  0
   -3.0993   -0.3683    7.8425 C   0  0  0  0  0  0  0  0  0  0  0  0
   -4.4115   -0.4604    7.3028 C   0  0  0  0  0  0  0  0  0  0  0  0
   -4.6545   -0.2265    5.9305 C   0  0  0  0  0  0  0  0  0  0  0  0
   -5.9873   -0.3370    5.3834 C   0  0  0  0  0  0  0  0  0  0  0  0
   -6.9347   -1.2939    5.6275 C   0  0  0  0  0  0  0  0  0  0  0  0
   -8.1408   -1.0667    4.9395 C   0  0  0  0  0  0  0  0  0  0  0  0
   -8.1274    0.0641    4.1792 C   0  0  0  0  0  0  0  0  0  0  0  0
   -9.2186    0.6272    3.3363 C   0  0  0  0  0  0  0  0  0  0  0  0
   -8.7832    0.7912    1.8802 C   0  0  0  0  0  0  0  0  0  0  0  0
   -6.5954    0.8648    4.2815 S   0  0  0  0  0  0  0  0  0  0  0  0
   -3.5515    0.1222    5.1668 C   0  0  0  0  0  0  0  0  0  0  0  0
   -3.5577    0.3873    3.4434 S   0  0  0  0  0  0  0  0  0  0  0  0
   -5.3708   -0.7129    8.2969 C   0  0  0  0  0  0  0  0  0  0  0  0
   -4.8543   -0.8008    9.5670 C   0  0  0  0  0  0  0  0  0  0  0  0
   -3.1085   -0.6283    9.5612 S   0  0  0  0  0  0  0  0  0  0  0  0
   -5.5464   -1.0462   10.7752 C   0  0  0  0  0  0  0  0  0  0  0  0
   -6.8902   -0.9761   10.9801 C   0  0  0  0  0  0  0  0  0  0  0  0
   -7.5015   -1.6374   12.1614 C   0  0  0  0  0  0  0  0  0  0  0  0
   -6.9307   -2.0298   13.1485 O   0  0  0  0  0  0  0  0  0  0  0  0
   -8.9395   -1.7780   11.8172 C   0  0  0  0  0  0  0  0  0  0  0  0
   -9.9323   -2.4794   12.4801 C   0  0  0  0  0  0  0  0  0  0  0  0
   -9.6470   -3.1999   13.9994 Cl  0  0  0  0  0  0  0  0  0  0  0  0
  -11.1881   -2.5935   11.8640 C   0  0  0  0  0  0  0  0  0  0  0  0
  -12.4513   -3.4270   12.6588 Cl  0  0  0  0  0  0  0  0  0  0  0  0
  -11.3987   -2.0673   10.5893 C   0  0  0  0  0  0  0  0  0  0  0  0
  -12.9057   -2.3084    9.8186 Cl  0  0  0  0  0  0  0  0  0  0  0  0
  -10.3895   -1.3542    9.9238 C   0  0  0  0  0  0  0  0  0  0  0  0
  -10.6418   -0.8713    8.2967 Cl  0  0  0  0  0  0  0  0  0  0  0  0
   -9.1808   -1.1573   10.5742 C   0  0  0  0  0  0  0  0  0  0  0  0
   -7.9749   -0.4292   10.1855 C   0  0  0  0  0  0  0  0  0  0  0  0
   -7.9384    0.7539    9.4988 C   0  0  0  0  0  0  0  0  0  0  0  0
   -6.7566    1.5098    9.3295 C   0  0  0  0  0  0  0  0  0  0  0  0
   -5.8337    2.1731    9.1745 N   0  0  0  0  0  0  0  0  0  0  0  0
   -9.0607    1.4577    9.0124 C   0  0  0  0  0  0  0  0  0  0  0  0
   -9.9158    2.1243    8.6376 N   0  0  0  0  0  0  0  0  0  0  0  0
    7.3013    1.2005   -9.6766 H   0  0  0  0  0  0  0  0  0  0  0  0
    2.7886    1.5080  -14.0500 H   0  0  0  0  0  0  0  0  0  0  0  0
    7.6024    2.1920  -15.1301 H   0  0  0  0  0  0  0  0  0  0  0  0
    6.9977    0.8359   -7.3670 H   0  0  0  0  0  0  0  0  0  0  0  0
   10.3772   -1.8910   -4.5920 H   0  0  0  0  0  0  0  0  0  0  0  0
   10.8898   -0.6762   -3.4045 H   0  0  0  0  0  0  0  0  0  0  0  0
   11.2158    0.9774   -5.2432 H   0  0  0  0  0  0  0  0  0  0  0  0
   10.6904   -0.2234   -6.4271 H   0  0  0  0  0  0  0  0  0  0  0  0
   12.1866   -0.4710   -5.5219 H   0  0  0  0  0  0  0  0  0  0  0  0
    1.8609   -1.2567   -8.8704 H   0  0  0  0  0  0  0  0  0  0  0  0
   -0.6234   -1.3675   -9.5248 H   0  0  0  0  0  0  0  0  0  0  0  0
   -3.0081   -1.2724   -7.1127 H   0  0  0  0  0  0  0  0  0  0  0  0
   -2.9512   -0.4722   -8.6842 H   0  0  0  0  0  0  0  0  0  0  0  0
   -4.2336    0.8922   -7.0584 H   0  0  0  0  0  0  0  0  0  0  0  0
   -2.7560    1.7485   -7.5064 H   0  0  0  0  0  0  0  0  0  0  0  0
   -2.8586    0.9150   -5.9526 H   0  0  0  0  0  0  0  0  0  0  0  0
    0.7678   -0.3084   -4.1133 H   0  0  0  0  0  0  0  0  0  0  0  0
   -1.1880    4.1091   -2.5620 H   0  0  0  0  0  0  0  0  0  0  0  0
   -3.6221    4.5104   -2.5039 H   0  0  0  0  0  0  0  0  0  0  0  0
   -6.5978    0.5615   -1.9888 H   0  0  0  0  0  0  0  0  0  0  0  0
   -6.0041    1.1672   -0.4079 H   0  0  0  0  0  0  0  0  0  0  0  0
   -7.5812    1.6941   -1.0402 H   0  0  0  0  0  0  0  0  0  0  0  0
   -4.2917    0.3267   -1.9225 H   0  0  0  0  0  0  0  0  0  0  0  0
   -1.8867   -0.0680   -1.9965 H   0  0  0  0  0  0  0  0  0  0  0  0
    2.5201    2.6113   -1.8410 H   0  0  0  0  0  0  0  0  0  0  0  0
    4.0388    3.4179   -3.5972 H   0  0  0  0  0  0  0  0  0  0  0  0
    2.1335    4.6301   -7.8470 H   0  0  0  0  0  0  0  0  0  0  0  0
    2.4033    2.8768   -8.1247 H   0  0  0  0  0  0  0  0  0  0  0  0
    3.6031    4.0649   -8.6705 H   0  0  0  0  0  0  0  0  0  0  0  0
    0.8537    3.2268   -6.4396 H   0  0  0  0  0  0  0  0  0  0  0  0
   -0.6460    2.4280   -4.7040 H   0  0  0  0  0  0  0  0  0  0  0  0
    1.8964   -3.2848    4.0864 H   0  0  0  0  0  0  0  0  0  0  0  0
    3.9502   -3.0273    5.3724 H   0  0  0  0  0  0  0  0  0  0  0  0
    4.7477   -2.3035    7.5532 H   0  0  0  0  0  0  0  0  0  0  0  0
    6.0067   -2.9208    6.4341 H   0  0  0  0  0  0  0  0  0  0  0  0
    6.4553   -1.8622    7.7865 H   0  0  0  0  0  0  0  0  0  0  0  0
    3.9322    1.1707    4.5625 H   0  0  0  0  0  0  0  0  0  0  0  0
    1.8471    0.9143    3.2860 H   0  0  0  0  0  0  0  0  0  0  0  0
    0.2428   -2.1756    5.5622 H   0  0  0  0  0  0  0  0  0  0  0  0
   -1.6666   -3.2810    6.5373 H   0  0  0  0  0  0  0  0  0  0  0  0
   -3.7336   -3.1830    7.5511 H   0  0  0  0  0  0  0  0  0  0  0  0
   -3.1767   -4.8700    7.3127 H   0  0  0  0  0  0  0  0  0  0  0  0
   -4.8990   -4.5261    7.5742 H   0  0  0  0  0  0  0  0  0  0  0  0
   -3.5920   -3.3789    2.7237 H   0  0  0  0  0  0  0  0  0  0  0  0
   -1.6247   -2.3093    1.7149 H   0  0  0  0  0  0  0  0  0  0  0  0
   -0.2269    0.4857    4.8649 H   0  0  0  0  0  0  0  0  0  0  0  0
    3.8825    0.5209    8.0763 H   0  0  0  0  0  0  0  0  0  0  0  0
    3.1924    1.9575    7.3077 H   0  0  0  0  0  0  0  0  0  0  0  0
    3.0934    1.3284   10.3011 H   0  0  0  0  0  0  0  0  0  0  0  0
    4.1522    2.5125    9.5296 H   0  0  0  0  0  0  0  0  0  0  0  0
    2.4030    2.7643    9.5391 H   0  0  0  0  0  0  0  0  0  0  0  0
   -6.7515   -2.1652    6.2307 H   0  0  0  0  0  0  0  0  0  0  0  0
   -8.9925   -1.7200    5.0093 H   0  0  0  0  0  0  0  0  0  0  0  0
   -9.5152    1.6031    3.7314 H   0  0  0  0  0  0  0  0  0  0  0  0
  -10.0829   -0.0375    3.3959 H   0  0  0  0  0  0  0  0  0  0  0  0
   -9.6019    1.1898    1.2865 H   0  0  0  0  0  0  0  0  0  0  0  0
   -7.9398    1.4751    1.8168 H   0  0  0  0  0  0  0  0  0  0  0  0
   -8.4842   -0.1682    1.4633 H   0  0  0  0  0  0  0  0  0  0  0  0
   -6.4139   -0.8430    8.0784 H   0  0  0  0  0  0  0  0  0  0  0  0
   -4.9589   -1.3999   11.6151 H   0  0  0  0  0  0  0  0  0  0  0  0
  1  2  2  0  0  0  0
  2  3  1  0  0  0  0
  3  4  2  0  0  0  0
  3  5  1  0  0  0  0
  5  6  2  0  0  0  0
  6  7  1  0  0  0  0
  7  8  1  0  0  0  0
  7  9  2  0  0  0  0
  9 10  1  0  0  0  0
  9 11  1  0  0  0  0
 11 12  2  0  0  0  0
 12 13  1  0  0  0  0
 13 14  2  0  0  0  0
 14 15  1  0  0  0  0
 15 16  3  0  0  0  0
 14 17  1  0  0  0  0
 17 18  3  0  0  0  0
  1 19  1  0  0  0  0
 19 20  2  0  0  0  0
 20 21  1  0  0  0  0
 21 22  2  0  0  0  0
 22 23  1  0  0  0  0
 23 24  1  0  0  0  0
 24 25  1  0  0  0  0
 25 26  1  0  0  0  0
 26 27  1  0  0  0  0
 25 28  2  0  0  0  0
 28 29  1  0  0  0  0
 28 30  1  0  0  0  0
 30 31  1  0  0  0  0
 22 32  1  0  0  0  0
 32 33  2  0  0  0  0
 33 34  1  0  0  0  0
 34 35  1  0  0  0  0
 35 36  2  0  0  0  0
 36 37  1  0  0  0  0
 37 38  2  0  0  0  0
 38 39  1  0  0  0  0
 39 40  1  0  0  0  0
 38 41  1  0  0  0  0
 34 42  2  0  0  0  0
 42 43  1  0  0  0  0
 33 44  1  0  0  0  0
 44 45  2  0  0  0  0
 45 46  1  0  0  0  0
 45 47  1  0  0  0  0
 47 48  2  0  0  0  0
 48 49  1  0  0  0  0
 49 50  1  0  0  0  0
 50 51  2  0  0  0  0
 51 52  1  0  0  0  0
 52 53  2  0  0  0  0
 53 54  1  0  0  0  0
 54 55  1  0  0  0  0
 53 56  1  0  0  0  0
 56 57  2  0  0  0  0
 49 58  1  0  0  0  0
 58 59  2  0  0  0  0
 59 60  1  0  0  0  0
 60 61  2  0  0  0  0
 61 62  1  0  0  0  0
 62 63  1  0  0  0  0
 61 64  1  0  0  0  0
 64 65  2  0  0  0  0
 48 66  1  0  0  0  0
 66 67  1  0  0  0  0
 67 68  1  0  0  0  0
 68 69  2  0  0  0  0
 69 70  1  0  0  0  0
 70 71  1  0  0  0  0
 71 72  2  0  0  0  0
 72 73  1  0  0  0  0
 73 74  2  0  0  0  0
 74 75  1  0  0  0  0
 75 76  1  0  0  0  0
 74 77  1  0  0  0  0
 77 78  2  0  0  0  0
 70 79  1  0  0  0  0
 79 80  2  0  0  0  0
 80 81  1  0  0  0  0
 81 82  2  0  0  0  0
 82 83  1  0  0  0  0
 83 84  1  0  0  0  0
 82 85  1  0  0  0  0
 85 86  2  0  0  0  0
 69 87  1  0  0  0  0
 87 88  1  0  0  0  0
 68 89  1  0  0  0  0
 89 90  2  0  0  0  0
 90 91  1  0  0  0  0
 91 92  2  0  0  0  0
 92 93  1  0  0  0  0
 93 94  1  0  0  0  0
 94 95  1  0  0  0  0
 95 96  1  0  0  0  0
 96 97  1  0  0  0  0
 95 98  2  0  0  0  0
 98 99  1  0  0  0  0
 98100  1  0  0  0  0
100101  1  0  0  0  0
 92102  1  0  0  0  0
102103  2  0  0  0  0
103104  1  0  0  0  0
104105  1  0  0  0  0
105106  2  0  0  0  0
106107  1  0  0  0  0
107108  2  0  0  0  0
108109  1  0  0  0  0
109110  1  0  0  0  0
108111  1  0  0  0  0
104112  2  0  0  0  0
112113  1  0  0  0  0
103114  1  0  0  0  0
114115  2  0  0  0  0
115116  1  0  0  0  0
115117  1  0  0  0  0
117118  2  0  0  0  0
118119  1  0  0  0  0
119120  2  0  0  0  0
119121  1  0  0  0  0
121122  2  0  0  0  0
122123  1  0  0  0  0
122124  1  0  0  0  0
124125  1  0  0  0  0
124126  2  0  0  0  0
126127  1  0  0  0  0
126128  1  0  0  0  0
128129  1  0  0  0  0
128130  2  0  0  0  0
130131  1  0  0  0  0
131132  2  0  0  0  0
132133  1  0  0  0  0
133134  3  0  0  0  0
132135  1  0  0  0  0
135136  3  0  0  0  0
 13  2  1  0  0  0  0
 43 19  1  0  0  0  0
 88 47  1  0  0  0  0
113 89  1  0  0  0  0
131118  1  0  0  0  0
 12  5  1  0  0  0  0
 42 21  1  0  0  0  0
 57 50  1  0  0  0  0
 65 58  1  0  0  0  0
 87 66  2  0  0  0  0
112 91  1  0  0  0  0
130121  1  0  0  0  0
 30 23  2  0  0  0  0
 46 32  1  0  0  0  0
 78 71  1  0  0  0  0
 86 79  1  0  0  0  0
100 93  2  0  0  0  0
116102  1  0  0  0  0
 41 35  1  0  0  0  0
111105  1  0  0  0  0
  1137  1  0  0  0  0
  6138  1  0  0  0  0
 11139  1  0  0  0  0
 20140  1  0  0  0  0
 26141  1  0  0  0  0
 26142  1  0  0  0  0
 27143  1  0  0  0  0
 27144  1  0  0  0  0
 27145  1  0  0  0  0
 36146  1  0  0  0  0
 37147  1  0  0  0  0
 39148  1  0  0  0  0
 39149  1  0  0  0  0
 40150  1  0  0  0  0
 40151  1  0  0  0  0
 40152  1  0  0  0  0
 44153  1  0  0  0  0
 51154  1  0  0  0  0
 52155  1  0  0  0  0
 55156  1  0  0  0  0
 55157  1  0  0  0  0
 55158  1  0  0  0  0
 56159  1  0  0  0  0
 57160  1  0  0  0  0
 59161  1  0  0  0  0
 60162  1  0  0  0  0
 63163  1  0  0  0  0
 63164  1  0  0  0  0
 63165  1  0  0  0  0
 64166  1  0  0  0  0
 65167  1  0  0  0  0
 72168  1  0  0  0  0
 73169  1  0  0  0  0
 76170  1  0  0  0  0
 76171  1  0  0  0  0
 76172  1  0  0  0  0
 77173  1  0  0  0  0
 78174  1  0  0  0  0
 80175  1  0  0  0  0
 81176  1  0  0  0  0
 84177  1  0  0  0  0
 84178  1  0  0  0  0
 84179  1  0  0  0  0
 85180  1  0  0  0  0
 86181  1  0  0  0  0
 90182  1  0  0  0  0
 96183  1  0  0  0  0
 96184  1  0  0  0  0
 97185  1  0  0  0  0
 97186  1  0  0  0  0
 97187  1  0  0  0  0
106188  1  0  0  0  0
107189  1  0  0  0  0
109190  1  0  0  0  0
109191  1  0  0  0  0
110192  1  0  0  0  0
110193  1  0  0  0  0
110194  1  0  0  0  0
114195  1  0  0  0  0
117196  1  0  0  0  0
M  END
