172

C          6.67750       -0.38140       -8.42370
C          7.87290       -0.99060       -8.71080
C          8.66490       -1.93210       -7.88790
O          8.47200       -2.32700       -6.75600
C          9.81520       -2.33000       -8.72810
C         10.82460       -3.21700       -8.41140
C         11.81350       -3.45320       -9.35780
Cl        13.09950       -4.54820       -9.03280
C         11.75380       -2.79040      -10.58620
F         12.70730       -3.02400      -11.49580
C         10.74380       -1.89670      -10.90770
C          9.75750       -1.66270       -9.96090
C          8.57690       -0.80130       -9.97280
C          8.24430        0.03850      -11.00340
C          8.99640        0.16160      -12.19270
N          9.55330        0.31750      -13.18420
C          7.14150        0.91940      -11.06390
N          6.29010        1.67460      -11.22270
C          5.84260       -0.43810       -7.28970
C          5.95100       -1.12410       -6.10190
C          4.88710       -0.89740       -5.21580
C          4.72550       -1.45120       -3.92470
C          5.72810       -2.35370       -3.38540
S          7.40440       -1.90420       -3.29540
C          7.86560       -3.45100       -2.67750
C          9.30200       -3.78760       -2.47990
C          9.93580       -4.17490       -3.82010
C          6.77110       -4.25270       -2.54450
Cl         6.83670       -5.86310       -1.96180
C          5.55570       -3.63540       -2.94120
Cl         4.05390       -4.46160       -2.96620
C          3.57820       -1.10770       -3.23620
C          2.59150       -0.24090       -3.78060
C          2.76330        0.34490       -5.05380
C          1.78590        1.28990       -5.55300
C          1.15150        2.27980       -4.85110
C          0.21350        2.99190       -5.61850
C          0.11910        2.55280       -6.90530
C         -0.77890        3.04820       -7.98840
C         -0.57810        4.54310       -8.25640
S          1.22340        1.25330       -7.19920
C          3.90640       -0.01960       -5.75380
S          4.36270        0.52640       -7.33750
C          1.50640       -0.08060       -2.90260
C          1.65130       -0.72900       -1.70040
S          3.15550       -1.62230       -1.62140
C          0.74420       -0.59580       -0.62100
C          0.71320       -1.17760        0.64440
N          1.54470       -2.17760        1.11460
C          1.80180       -2.14620        2.50020
C          2.24040       -0.95750        3.07760
C          2.37100       -0.84480        4.44730
C          2.06030       -1.92540        5.26200
S          2.10530       -1.86600        7.02350
C          2.07490       -0.08350        7.37520
C          1.68540       -3.13620        4.68290
C          1.55640       -3.24910        3.31710
C          1.74950       -3.36650        0.40140
C          0.83300       -3.81400       -0.55050
C          1.02690       -5.01980       -1.18500
C          2.13290       -5.81330       -0.88330
S          2.24810       -7.34910       -1.73810
C          3.78570       -8.08670       -1.11480
C          3.05980       -5.35990        0.04800
C          2.87050       -4.14640        0.67700
C         -0.32250       -0.61600        1.43210
S         -0.82170       -0.84240        3.07360
C         -2.15380        0.27820        2.83690
C         -2.12050        0.89700        1.57410
N         -2.85710        1.98970        1.20000
C         -3.09850        2.20800       -0.16360
C         -2.94250        3.47600       -0.71740
C         -3.10350        3.67420       -2.07430
C         -3.42610        2.60500       -2.90200
S         -3.57990        2.72170       -4.65300
C         -3.54810        4.50770       -4.98170
C         -3.62560        1.34250       -2.34300
C         -3.46740        1.14490       -0.99010
C         -3.26220        2.94640        2.14010
C         -2.44240        3.27590        3.22120
C         -2.85940        4.19730        4.15230
C         -4.10600        4.81500        4.03420
S         -4.51810        5.98870        5.27130
C         -6.29640        6.24790        5.03500
C         -4.91290        4.50910        2.94410
C         -4.48990        3.59070        2.00460
C         -1.09080        0.33810        0.78370
S         -0.54050        0.59590       -0.83450
C         -3.10110        0.39220        3.87530
C         -4.46450        0.72670        3.69960
C         -5.38940        0.83720        4.80760
N         -6.63890        0.99830        4.38460
S         -6.65710        1.05080        2.78200
N         -5.08260        0.84930        2.52430
C         -4.98730        0.68590        6.15860
C         -3.65790        0.21270        6.31470
N         -3.07690       -0.11120        7.46740
S         -1.56990       -0.59410        7.19000
N         -1.55640       -0.38660        5.59350
C         -2.75290        0.05360        5.20440
C         -5.80340        0.85170        7.28860
C         -6.95990        1.59080        7.40350
C         -7.37030        2.70380        6.53600
O         -6.77970        3.18770        5.58570
C         -8.61260        3.24300        7.13300
C         -9.40580        4.26030        6.68900
C        -10.54810        4.62220        7.43890
C        -11.40450        5.65820        7.02010
C        -12.50000        5.99010        7.76730
F        -13.31320        6.97880        7.36470
C        -12.78610        5.30300        8.96260
F        -13.86750        5.65060        9.67560
C        -11.97360        4.29220        9.39430
C        -10.83770        3.92480        8.64610
C         -9.99560        2.87510        9.08120
C         -8.90150        2.53540        8.33210
C         -7.88590        1.49890        8.50780
C         -7.88580        0.55550        9.50610
C         -8.82500        0.52110       10.55610
N         -9.55330        0.44620       11.44160
C         -6.98420       -0.52320        9.61820
N         -6.31830       -1.44590        9.77630
H          6.28050        0.26210       -9.19990
H         10.83990       -3.71360       -7.45410
H         10.76160       -1.42250      -11.87500
H          6.77860       -1.77380       -5.89100
H          9.38500       -4.61730       -1.77520
H          9.82520       -2.92320       -2.06620
H          9.47630       -5.08160       -4.20490
H          9.78900       -3.38040       -4.54830
H         11.00080       -4.34850       -3.69440
H          1.38090        2.51520       -3.82680
H         -0.37510        3.79980       -5.22310
H         -0.58270        2.48240       -8.90380
H         -1.82050        2.86660       -7.69580
H         -0.81170        5.12880       -7.36870
H          0.45390        4.74410       -8.53930
H         -1.22750        4.86720       -9.06610
H          0.62180        0.47960       -3.14500
H          2.46060       -0.11090        2.44340
H          2.70740        0.08970        4.86600
H          1.29950        0.38640        6.77710
H          3.04900        0.35720        7.18160
H          1.83810        0.00690        8.43070
H          1.46660       -3.97720        5.32230
H          1.22810       -4.17890        2.87790
H         -0.04110       -3.22270       -0.77920
H          0.31410       -5.37110       -1.91550
H          3.89070       -9.02910       -1.64300
H          4.62650       -7.44090       -1.34970
H          3.70610       -8.26740       -0.04670
H          3.93790       -5.93740        0.28650
H          3.59480       -3.79720        1.39760
H         -2.67010        4.30600       -0.08220
H         -2.95640        4.66400       -2.47500
H         -2.57840        4.92340       -4.72640
H         -3.72150        4.61190       -6.04850
H         -4.34250        4.99800       -4.42910
H         -3.90280        0.52160       -2.98610
H         -3.63500        0.17110       -0.55560
H         -1.47330        2.81020        3.32280
H         -2.22410        4.45710        4.98510
H         -6.48120        6.79750        4.11610
H         -6.77830        5.27370        5.03620
H         -6.62570        6.83400        5.88760
H         -5.87660        4.97480        2.82140
H         -5.12280        3.34850        1.16390
H         -5.43410        0.34490        8.17230
H         -9.17670        4.78260        5.77220
H        -11.20040        6.19530        6.10700
H        -12.20710        3.77430       10.31150
H        -10.24040        2.36790       10.00020
