
  xtb     02112201273D
 energy: -306.601133758736 gnorm: 0.000685262502 xtb: 6.4.1 (unknown)
157172  0     0  0            999 V2000
   -2.9777   -0.2231    5.7925 C   0  0  0  0  0  0  0  0  0  0  0  0
   -2.1963   -0.1614    6.9001 C   0  0  0  0  0  0  0  0  0  0  0  0
   -0.8178    0.3719    6.8826 C   0  0  0  0  0  0  0  0  0  0  0  0
   -0.1623    0.6975    5.9155 O   0  0  0  0  0  0  0  0  0  0  0  0
   -0.4115    0.4524    8.3015 C   0  0  0  0  0  0  0  0  0  0  0  0
    0.7834    0.9037    8.8253 C   0  0  0  0  0  0  0  0  0  0  0  0
    0.9413    0.9027   10.2057 C   0  0  0  0  0  0  0  0  0  0  0  0
    2.4040    1.4506   10.9235 Cl  0  0  0  0  0  0  0  0  0  0  0  0
   -0.1050    0.4499   11.0147 C   0  0  0  0  0  0  0  0  0  0  0  0
    0.0540    0.4554   12.3426 F   0  0  0  0  0  0  0  0  0  0  0  0
   -1.3062   -0.0069   10.4969 C   0  0  0  0  0  0  0  0  0  0  0  0
   -1.4610   -0.0054    9.1186 C   0  0  0  0  0  0  0  0  0  0  0  0
   -2.5738   -0.4299    8.2765 C   0  0  0  0  0  0  0  0  0  0  0  0
   -3.7245   -1.0325    8.7040 C   0  0  0  0  0  0  0  0  0  0  0  0
   -4.0449   -1.2650   10.0587 C   0  0  0  0  0  0  0  0  0  0  0  0
   -4.3607   -1.4752   11.1413 N   0  0  0  0  0  0  0  0  0  0  0  0
   -4.7141   -1.5455    7.8395 C   0  0  0  0  0  0  0  0  0  0  0  0
   -5.5203   -2.0240    7.1764 N   0  0  0  0  0  0  0  0  0  0  0  0
   -2.4458   -0.0356    4.4431 C   0  0  0  0  0  0  0  0  0  0  0  0
   -1.5303   -0.9220    3.8743 C   0  0  0  0  0  0  0  0  0  0  0  0
   -1.1362   -2.4368    4.7163 S   0  0  0  0  0  0  0  0  0  0  0  0
   -2.7798   -3.2381    4.7715 C   0  0  0  0  0  0  0  0  0  0  0  0
   -3.3929   -3.3753    3.3934 C   0  0  0  0  0  0  0  0  0  0  0  0
   -0.9787   -0.6293    2.6249 C   0  0  0  0  0  0  0  0  0  0  0  0
    0.2722   -1.5875    1.8381 S   0  0  0  0  0  0  0  0  0  0  0  0
    1.5444   -1.9990    3.0924 C   0  0  0  0  0  0  0  0  0  0  0  0
    2.0019   -0.7970    3.8874 C   0  0  0  0  0  0  0  0  0  0  0  0
   -1.5059    0.4247    1.8526 C   0  0  0  0  0  0  0  0  0  0  0  0
   -2.5080    1.2448    2.3679 C   0  0  0  0  0  0  0  0  0  0  0  0
   -2.9136    1.0523    3.6980 C   0  0  0  0  0  0  0  0  0  0  0  0
   -3.8023    1.9562    4.4240 C   0  0  0  0  0  0  0  0  0  0  0  0
   -4.0479    1.7637    5.6100 O   0  0  0  0  0  0  0  0  0  0  0  0
   -4.3401    3.0513    3.6371 C   0  0  0  0  0  0  0  0  0  0  0  0
   -4.0188    3.2044    2.2542 C   0  0  0  0  0  0  0  0  0  0  0  0
   -3.1033    2.3134    1.5336 C   0  0  0  0  0  0  0  0  0  0  0  0
   -2.8709    2.4383    0.3460 O   0  0  0  0  0  0  0  0  0  0  0  0
   -4.6481    4.2846    1.7035 C   0  0  0  0  0  0  0  0  0  0  0  0
   -5.6153    5.1229    2.8449 S   0  0  0  0  0  0  0  0  0  0  0  0
   -5.1891    4.0254    4.0851 C   0  0  0  0  0  0  0  0  0  0  0  0
   -0.9297    0.6428    0.5237 C   0  0  0  0  0  0  0  0  0  0  0  0
    0.2616    1.3011    0.2983 C   0  0  0  0  0  0  0  0  0  0  0  0
    0.9815    1.9320    1.3047 N   0  0  0  0  0  0  0  0  0  0  0  0
    0.2768    2.8173    2.1492 C   0  0  0  0  0  0  0  0  0  0  0  0
    0.3472    2.6960    3.5342 C   0  0  0  0  0  0  0  0  0  0  0  0
   -0.3926    3.5361    4.3379 C   0  0  0  0  0  0  0  0  0  0  0  0
   -1.1953    4.5261    3.7769 C   0  0  0  0  0  0  0  0  0  0  0  0
   -2.1307    5.5330    4.8895 S   0  0  0  0  0  0  0  0  0  0  0  0
   -2.4841    7.0223    3.9069 C   0  0  0  0  0  0  0  0  0  0  0  0
   -1.2478    4.6658    2.3968 C   0  0  0  0  0  0  0  0  0  0  0  0
   -0.5184    3.8129    1.5910 C   0  0  0  0  0  0  0  0  0  0  0  0
    2.3737    1.9077    1.2697 C   0  0  0  0  0  0  0  0  0  0  0  0
    3.1262    2.9735    1.7557 C   0  0  0  0  0  0  0  0  0  0  0  0
    4.5045    2.9641    1.6615 C   0  0  0  0  0  0  0  0  0  0  0  0
    5.1568    1.8916    1.0697 C   0  0  0  0  0  0  0  0  0  0  0  0
    6.9051    1.7940    0.8371 S   0  0  0  0  0  0  0  0  0  0  0  0
    7.4973    3.4471    1.2975 C   0  0  0  0  0  0  0  0  0  0  0  0
    4.4113    0.8020    0.6245 C   0  0  0  0  0  0  0  0  0  0  0  0
    3.0399    0.8028    0.7307 C   0  0  0  0  0  0  0  0  0  0  0  0
    0.6290    1.2317   -1.0635 C   0  0  0  0  0  0  0  0  0  0  0  0
    1.9646    1.8214   -1.9903 S   0  0  0  0  0  0  0  0  0  0  0  0
    1.3023    1.0896   -3.4511 C   0  0  0  0  0  0  0  0  0  0  0  0
    0.0289    0.5294   -3.2183 C   0  0  0  0  0  0  0  0  0  0  0  0
   -0.8639    0.0413   -4.1578 N   0  0  0  0  0  0  0  0  0  0  0  0
   -1.3722    0.8774   -5.1426 C   0  0  0  0  0  0  0  0  0  0  0  0
   -1.9671    0.3643   -6.2966 C   0  0  0  0  0  0  0  0  0  0  0  0
   -2.4856    1.2028   -7.2596 C   0  0  0  0  0  0  0  0  0  0  0  0
   -2.4194    2.5820   -7.0968 C   0  0  0  0  0  0  0  0  0  0  0  0
   -3.0486    3.7518   -8.2539 S   0  0  0  0  0  0  0  0  0  0  0  0
   -3.8283    2.7303   -9.5359 C   0  0  0  0  0  0  0  0  0  0  0  0
   -1.8189    3.1017   -5.9509 C   0  0  0  0  0  0  0  0  0  0  0  0
   -1.3066    2.2653   -4.9867 C   0  0  0  0  0  0  0  0  0  0  0  0
   -1.2617   -1.2938   -4.0092 C   0  0  0  0  0  0  0  0  0  0  0  0
   -2.5900   -1.6945   -4.1538 C   0  0  0  0  0  0  0  0  0  0  0  0
   -2.9210   -3.0270   -4.0556 C   0  0  0  0  0  0  0  0  0  0  0  0
   -1.9392   -3.9881   -3.8090 C   0  0  0  0  0  0  0  0  0  0  0  0
   -2.4707   -5.6656   -3.7575 S   0  0  0  0  0  0  0  0  0  0  0  0
   -0.9251   -6.6122   -3.6604 C   0  0  0  0  0  0  0  0  0  0  0  0
   -0.6220   -3.5861   -3.6222 C   0  0  0  0  0  0  0  0  0  0  0  0
   -0.2913   -2.2508   -3.7173 C   0  0  0  0  0  0  0  0  0  0  0  0
   -0.2870    0.5465   -1.8462 C   0  0  0  0  0  0  0  0  0  0  0  0
   -1.6318   -0.0311   -0.9181 S   0  0  0  0  0  0  0  0  0  0  0  0
    2.1904    0.8817   -4.5271 C   0  0  0  0  0  0  0  0  0  0  0  0
    3.5439    1.2976   -4.4042 C   0  0  0  0  0  0  0  0  0  0  0  0
    4.6265    0.7442   -5.1838 C   0  0  0  0  0  0  0  0  0  0  0  0
    5.8049    1.2251   -4.7973 N   0  0  0  0  0  0  0  0  0  0  0  0
    5.5881    2.2751   -3.5997 S   0  0  0  0  0  4  0  0  0  0  0  0
    3.9846    2.1603   -3.4923 N   0  0  0  0  0  0  0  0  0  0  0  0
    4.4084   -0.2921   -6.1225 C   0  0  0  0  0  0  0  0  0  0  0  0
    3.0416   -0.5074   -6.4326 C   0  0  0  0  0  0  0  0  0  0  0  0
    2.5968   -1.2505   -7.4381 N   0  0  0  0  0  0  0  0  0  0  0  0
    0.9903   -1.2711   -7.4129 S   0  0  0  0  0  0  0  0  0  0  0  0
    0.7752   -0.3188   -6.1374 N   0  0  0  0  0  0  0  0  0  0  0  0
    1.9549    0.0673   -5.6660 C   0  0  0  0  0  0  0  0  0  0  0  0
    5.4574   -1.0735   -6.6397 C   0  0  0  0  0  0  0  0  0  0  0  0
    5.3056   -2.3941   -7.0035 C   0  0  0  0  0  0  0  0  0  0  0  0
    4.2388   -3.2600   -6.4799 C   0  0  0  0  0  0  0  0  0  0  0  0
    3.4265   -3.0212   -5.6089 O   0  0  0  0  0  0  0  0  0  0  0  0
    4.4357   -4.5728   -7.1412 C   0  0  0  0  0  0  0  0  0  0  0  0
    3.6090   -5.6783   -7.1092 C   0  0  0  0  0  0  0  0  0  0  0  0
    2.2139   -5.7097   -6.1289 Cl  0  0  0  0  0  0  0  0  0  0  0  0
    3.9235   -6.7716   -7.9250 C   0  0  0  0  0  0  0  0  0  0  0  0
    2.9432   -8.1746   -7.8979 Cl  0  0  0  0  0  0  0  0  0  0  0  0
    5.0110   -6.6950   -8.7916 C   0  0  0  0  0  0  0  0  0  0  0  0
    5.3285   -8.0049   -9.8471 Cl  0  0  0  0  0  0  0  0  0  0  0  0
    5.8398   -5.5606   -8.8320 C   0  0  0  0  0  0  0  0  0  0  0  0
    7.0378   -5.4846  -10.0576 Cl  0  0  0  0  0  0  0  0  0  0  0  0
    5.5906   -4.5203   -7.9449 C   0  0  0  0  0  0  0  0  0  0  0  0
    6.2390   -3.2242   -7.7279 C   0  0  0  0  0  0  0  0  0  0  0  0
    7.5340   -2.8947   -8.0492 C   0  0  0  0  0  0  0  0  0  0  0  0
    8.0806   -1.5968   -7.9622 C   0  0  0  0  0  0  0  0  0  0  0  0
    8.6049   -0.5749   -7.9802 N   0  0  0  0  0  0  0  0  0  0  0  0
    8.5580   -3.8122   -8.3624 C   0  0  0  0  0  0  0  0  0  0  0  0
    9.4807   -4.4820   -8.5017 N   0  0  0  0  0  0  0  0  0  0  0  0
   -4.0123   -0.5337    5.8648 H   0  0  0  0  0  0  0  0  0  0  0  0
    1.5734    1.2476    8.1768 H   0  0  0  0  0  0  0  0  0  0  0  0
   -2.0744   -0.3410   11.1753 H   0  0  0  0  0  0  0  0  0  0  0  0
   -3.4256   -2.6856    5.4522 H   0  0  0  0  0  0  0  0  0  0  0  0
   -2.5631   -4.2144    5.2048 H   0  0  0  0  0  0  0  0  0  0  0  0
   -2.7180   -3.9050    2.7244 H   0  0  0  0  0  0  0  0  0  0  0  0
   -4.3238   -3.9331    3.4661 H   0  0  0  0  0  0  0  0  0  0  0  0
   -3.6093   -2.3989    2.9626 H   0  0  0  0  0  0  0  0  0  0  0  0
    2.3518   -2.3859    2.4686 H   0  0  0  0  0  0  0  0  0  0  0  0
    1.1736   -2.7942    3.7338 H   0  0  0  0  0  0  0  0  0  0  0  0
    1.1951   -0.4066    4.5043 H   0  0  0  0  0  0  0  0  0  0  0  0
    2.3623   -0.0124    3.2250 H   0  0  0  0  0  0  0  0  0  0  0  0
    2.8172   -1.0959    4.5432 H   0  0  0  0  0  0  0  0  0  0  0  0
   -4.5821    4.6216    0.6876 H   0  0  0  0  0  0  0  0  0  0  0  0
   -5.5734    4.1431    5.0788 H   0  0  0  0  0  0  0  0  0  0  0  0
    0.9663    1.9371    3.9824 H   0  0  0  0  0  0  0  0  0  0  0  0
   -0.3576    3.4260    5.4104 H   0  0  0  0  0  0  0  0  0  0  0  0
   -1.5674    7.3759    3.4458 H   0  0  0  0  0  0  0  0  0  0  0  0
   -2.8526    7.7587    4.6139 H   0  0  0  0  0  0  0  0  0  0  0  0
   -3.2473    6.8201    3.1606 H   0  0  0  0  0  0  0  0  0  0  0  0
   -1.8514    5.4321    1.9372 H   0  0  0  0  0  0  0  0  0  0  0  0
   -0.5702    3.9140    0.5172 H   0  0  0  0  0  0  0  0  0  0  0  0
    2.6270    3.8230    2.1973 H   0  0  0  0  0  0  0  0  0  0  0  0
    5.0547    3.8094    2.0421 H   0  0  0  0  0  0  0  0  0  0  0  0
    7.3569    3.6140    2.3616 H   0  0  0  0  0  0  0  0  0  0  0  0
    8.5570    3.4536    1.0623 H   0  0  0  0  0  0  0  0  0  0  0  0
    6.9823    4.1992    0.7072 H   0  0  0  0  0  0  0  0  0  0  0  0
    4.9238   -0.0437    0.1924 H   0  0  0  0  0  0  0  0  0  0  0  0
    2.4733   -0.0525    0.3949 H   0  0  0  0  0  0  0  0  0  0  0  0
   -1.9966   -0.7023   -6.4520 H   0  0  0  0  0  0  0  0  0  0  0  0
   -2.9294    0.7675   -8.1402 H   0  0  0  0  0  0  0  0  0  0  0  0
   -4.6078    2.1153   -9.0961 H   0  0  0  0  0  0  0  0  0  0  0  0
   -4.2651    3.4307  -10.2409 H   0  0  0  0  0  0  0  0  0  0  0  0
   -3.0794    2.1237  -10.0366 H   0  0  0  0  0  0  0  0  0  0  0  0
   -1.7703    4.1724   -5.8245 H   0  0  0  0  0  0  0  0  0  0  0  0
   -0.8640    2.6870   -4.0974 H   0  0  0  0  0  0  0  0  0  0  0  0
   -3.3553   -0.9564   -4.3390 H   0  0  0  0  0  0  0  0  0  0  0  0
   -3.9456   -3.3451   -4.1729 H   0  0  0  0  0  0  0  0  0  0  0  0
   -0.4383   -6.4381   -2.7053 H   0  0  0  0  0  0  0  0  0  0  0  0
   -1.2166   -7.6549   -3.7392 H   0  0  0  0  0  0  0  0  0  0  0  0
   -0.2763   -6.3470   -4.4898 H   0  0  0  0  0  0  0  0  0  0  0  0
    0.1590   -4.3001   -3.4203 H   0  0  0  0  0  0  0  0  0  0  0  0
    0.7386   -1.9485   -3.6006 H   0  0  0  0  0  0  0  0  0  0  0  0
    6.4276   -0.5983   -6.6933 H   0  0  0  0  0  0  0  0  0  0  0  0
  1  2  2  0  0  0  0
  2  3  1  0  0  0  0
  3  4  2  0  0  0  0
  3  5  1  0  0  0  0
  5  6  2  0  0  0  0
  6  7  1  0  0  0  0
  7  8  1  0  0  0  0
  7  9  2  0  0  0  0
  9 10  1  0  0  0  0
  9 11  1  0  0  0  0
 11 12  2  0  0  0  0
 12 13  1  0  0  0  0
 13 14  2  0  0  0  0
 14 15  1  0  0  0  0
 15 16  3  0  0  0  0
 14 17  1  0  0  0  0
 17 18  3  0  0  0  0
  1 19  1  0  0  0  0
 19 20  2  0  0  0  0
 20 21  1  0  0  0  0
 21 22  1  0  0  0  0
 22 23  1  0  0  0  0
 20 24  1  0  0  0  0
 24 25  1  0  0  0  0
 25 26  1  0  0  0  0
 26 27  1  0  0  0  0
 24 28  2  0  0  0  0
 28 29  1  0  0  0  0
 29 30  2  0  0  0  0
 30 31  1  0  0  0  0
 31 32  2  0  0  0  0
 31 33  1  0  0  0  0
 33 34  1  0  0  0  0
 34 35  1  0  0  0  0
 35 36  2  0  0  0  0
 34 37  2  0  0  0  0
 37 38  1  0  0  0  0
 38 39  1  0  0  0  0
 28 40  1  0  0  0  0
 40 41  2  0  0  0  0
 41 42  1  0  0  0  0
 42 43  1  0  0  0  0
 43 44  2  0  0  0  0
 44 45  1  0  0  0  0
 45 46  2  0  0  0  0
 46 47  1  0  0  0  0
 47 48  1  0  0  0  0
 46 49  1  0  0  0  0
 49 50  2  0  0  0  0
 42 51  1  0  0  0  0
 51 52  2  0  0  0  0
 52 53  1  0  0  0  0
 53 54  2  0  0  0  0
 54 55  1  0  0  0  0
 55 56  1  0  0  0  0
 54 57  1  0  0  0  0
 57 58  2  0  0  0  0
 41 59  1  0  0  0  0
 59 60  1  0  0  0  0
 60 61  1  0  0  0  0
 61 62  2  0  0  0  0
 62 63  1  0  0  0  0
 63 64  1  0  0  0  0
 64 65  2  0  0  0  0
 65 66  1  0  0  0  0
 66 67  2  0  0  0  0
 67 68  1  0  0  0  0
 68 69  1  0  0  0  0
 67 70  1  0  0  0  0
 70 71  2  0  0  0  0
 63 72  1  0  0  0  0
 72 73  2  0  0  0  0
 73 74  1  0  0  0  0
 74 75  2  0  0  0  0
 75 76  1  0  0  0  0
 76 77  1  0  0  0  0
 75 78  1  0  0  0  0
 78 79  2  0  0  0  0
 62 80  1  0  0  0  0
 80 81  1  0  0  0  0
 61 82  1  0  0  0  0
 82 83  2  0  0  0  0
 83 84  1  0  0  0  0
 84 85  1  0  0  0  0
 85 86  2  0  0  0  0
 86 87  2  0  0  0  0
 84 88  2  0  0  0  0
 88 89  1  0  0  0  0
 89 90  2  0  0  0  0
 90 91  1  0  0  0  0
 91 92  1  0  0  0  0
 92 93  2  0  0  0  0
 88 94  1  0  0  0  0
 94 95  2  0  0  0  0
 95 96  1  0  0  0  0
 96 97  2  0  0  0  0
 96 98  1  0  0  0  0
 98 99  2  0  0  0  0
 99100  1  0  0  0  0
 99101  1  0  0  0  0
101102  1  0  0  0  0
101103  2  0  0  0  0
103104  1  0  0  0  0
103105  1  0  0  0  0
105106  1  0  0  0  0
105107  2  0  0  0  0
107108  1  0  0  0  0
108109  2  0  0  0  0
109110  1  0  0  0  0
110111  3  0  0  0  0
109112  1  0  0  0  0
112113  3  0  0  0  0
 13  2  1  0  0  0  0
 30 19  1  0  0  0  0
 39 33  2  0  0  0  0
 81 40  1  0  0  0  0
 93 82  1  0  0  0  0
108 95  1  0  0  0  0
 12  5  1  0  0  0  0
 35 29  1  0  0  0  0
 50 43  1  0  0  0  0
 58 51  1  0  0  0  0
 80 59  2  0  0  0  0
 87 83  1  0  0  0  0
 93 89  1  0  0  0  0
107 98  1  0  0  0  0
 71 64  1  0  0  0  0
 79 72  1  0  0  0  0
  1114  1  0  0  0  0
  6115  1  0  0  0  0
 11116  1  0  0  0  0
 22117  1  0  0  0  0
 22118  1  0  0  0  0
 23119  1  0  0  0  0
 23120  1  0  0  0  0
 23121  1  0  0  0  0
 26122  1  0  0  0  0
 26123  1  0  0  0  0
 27124  1  0  0  0  0
 27125  1  0  0  0  0
 27126  1  0  0  0  0
 37127  1  0  0  0  0
 39128  1  0  0  0  0
 44129  1  0  0  0  0
 45130  1  0  0  0  0
 48131  1  0  0  0  0
 48132  1  0  0  0  0
 48133  1  0  0  0  0
 49134  1  0  0  0  0
 50135  1  0  0  0  0
 52136  1  0  0  0  0
 53137  1  0  0  0  0
 56138  1  0  0  0  0
 56139  1  0  0  0  0
 56140  1  0  0  0  0
 57141  1  0  0  0  0
 58142  1  0  0  0  0
 65143  1  0  0  0  0
 66144  1  0  0  0  0
 69145  1  0  0  0  0
 69146  1  0  0  0  0
 69147  1  0  0  0  0
 70148  1  0  0  0  0
 71149  1  0  0  0  0
 73150  1  0  0  0  0
 74151  1  0  0  0  0
 77152  1  0  0  0  0
 77153  1  0  0  0  0
 77154  1  0  0  0  0
 78155  1  0  0  0  0
 79156  1  0  0  0  0
 94157  1  0  0  0  0
M  END
