178

C          7.10150       -2.69370        3.27060
C          7.09390       -2.58510        4.62020
C          5.88960       -2.30750        5.43150
O          4.73450       -2.22890        5.05870
C          6.36320       -2.23920        6.82870
C          5.62020       -2.03630        7.97520
C          6.28480       -1.97890        9.19270
Cl         5.41670       -1.70840       10.65520
C          7.67180       -2.14030        9.22290
F          8.30530       -2.07850       10.40060
C          8.42120       -2.37120        8.08070
C          7.75640       -2.42520        6.86460
C          8.24220       -2.66250        5.50950
C          9.54200       -2.88560        5.15300
C         10.61620       -2.91410        6.06910
N         11.52710       -2.95310        6.76580
C         10.00320       -3.13270        3.84070
N         10.46860       -3.36190        2.81680
C          5.92150       -2.46830        2.44030
C          4.81120       -3.31720        2.48400
S          5.13220       -4.90440        3.21170
C          3.93130       -5.13140        4.58520
C          3.07910       -6.36870        4.39890
C          3.62790       -2.93300        1.85020
S          2.19480       -3.96230        2.04290
C          0.96960       -2.83520        2.80910
C          1.22680       -2.61560        4.28610
C          3.60770       -1.80580        1.00550
C          4.80900       -1.11300        0.76230
C          5.92340       -1.37440        1.57170
C          7.12320       -0.52580        1.60010
O          7.98190       -0.67750        2.45470
C          7.18030        0.48660        0.55510
C          6.14870        0.60340       -0.42280
C          4.95860       -0.25320       -0.43400
O          4.21310       -0.30600       -1.39380
C          6.40330        1.60100       -1.31930
S          7.87790        2.40950       -0.98290
C          8.17990        1.39960        0.36520
C          2.39570       -1.32160        0.36880
C          1.95800       -0.00860        0.29120
N          2.59450        1.13520        0.75840
C          2.46610        2.30430       -0.01930
C          2.22660        3.53290        0.59260
C          2.00990        4.65500       -0.17660
C          2.02520        4.57320       -1.56770
S          1.67380        6.05940       -2.45530
C          1.54620        5.51350       -4.18240
C          2.30740        3.36000       -2.17900
C          2.52790        2.23680       -1.40800
C          3.40780        1.13270        1.88720
C          3.05540        0.38570        3.01170
C          3.89730        0.30810        4.09790
C          5.11870        0.96860        4.07770
S          6.30600        0.76280        5.38340
C          5.27700        1.12160        6.84270
C          5.44470        1.77700        2.99670
C          4.58940        1.87610        1.91880
C          0.72180        0.06550       -0.39630
S         -0.33220        1.36130       -0.80160
C         -1.42300        0.26090       -1.61720
C         -0.95850       -1.04890       -1.60040
N         -1.54730       -2.13660       -2.21900
C         -1.37780       -3.41780       -1.66710
C         -1.43670       -3.61140       -0.28970
C         -1.20790       -4.86150        0.24940
C         -0.91500       -5.93470       -0.58130
S         -0.56770       -7.55340        0.03140
C          0.09720       -7.20710        1.68710
C         -0.90990       -5.75410       -1.96220
C         -1.13800       -4.50800       -2.50210
C         -2.36870       -1.97040       -3.33440
C         -2.03210       -1.05280       -4.33430
C         -2.90460       -0.80250       -5.36360
C         -4.13710       -1.45730       -5.42870
S         -5.22010       -0.95080       -6.72380
C         -6.75630       -1.85310       -6.40390
C         -4.43250       -2.43850       -4.49320
C         -3.55110       -2.69610       -3.45980
C          0.26100       -1.14360       -0.88670
S          1.31440       -2.43890       -0.45040
C         -2.64680        0.75350       -2.21510
C         -2.65280        1.88900       -3.04950
S         -1.20780        2.90430       -3.21140
C         -1.78440        4.47300       -2.45680
C         -2.46190        4.26480       -1.12050
C         -3.76600        2.21530       -3.81700
S         -3.70690        3.58400       -4.94520
C         -3.97860        2.74790       -6.55650
C         -2.66960        2.64390       -7.31470
C         -4.93990        1.46950       -3.69900
C         -4.97660        0.40410       -2.79940
C         -3.85740        0.05190       -2.02730
C         -4.00670       -0.93390       -0.93660
O         -3.21320       -1.07130       -0.02290
C         -5.24290       -1.72680       -0.99220
C         -6.32940       -1.42470       -1.86440
C         -6.26850       -0.27920       -2.75110
O         -7.20060        0.10410       -3.45230
C         -7.36630       -2.30810       -1.73020
S         -7.03090       -3.51430       -0.56570
C         -5.49500       -2.82860       -0.22770
C         -6.15560        1.81360       -4.43990
C         -6.84450        2.94340       -4.13060
C         -6.53220        3.75590       -2.93460
O         -5.71170        3.51830       -2.07360
C         -7.45120        4.91210       -2.99750
C         -7.52980        5.99090       -2.14020
C         -8.48250        6.96920       -2.39640
Cl        -8.63300        8.34010       -1.36950
C         -9.32480        6.83130       -3.50290
F        -10.23930        7.77790       -3.74390
C         -9.25300        5.75060       -4.36700
C         -8.30100        4.77530       -4.10980
C         -7.97280        3.54070       -4.81780
C         -8.62220        3.05020       -5.91650
C         -8.29590        1.85010       -6.58160
N         -8.09760        0.89600       -7.18790
C         -9.72640        3.67950       -6.53100
N        -10.62540        4.14170       -7.07400
H          8.00850       -2.97500        2.75240
H          4.54810       -1.92870        7.93000
H          9.48710       -2.49880        8.17470
H          3.34560       -4.22120        4.64020
H          4.54870       -5.21270        5.48070
H          2.48030       -6.28730        3.49630
H          3.70720       -7.25250        4.32080
H          2.41610       -6.48780        5.25390
H          0.98130       -1.90080        2.25300
H          0.01340       -3.32850        2.64130
H          0.51740       -1.88560        4.67320
H          1.09900       -3.54410        4.83860
H          2.23540       -2.24150        4.45190
H          5.78770        1.90600       -2.14250
H          9.07020        1.51560        0.95130
H          2.19250        3.59630        1.67020
H          1.80510        5.60560        0.29160
H          1.19620        6.37970       -4.73550
H          2.52240        5.21260       -4.55150
H          0.82470        4.70460       -4.26220
H          2.35020        3.27040       -3.25160
H          2.75040        1.29410       -1.88440
H          2.10780       -0.12870        3.02650
H          3.60930       -0.27940        4.95340
H          4.85540        2.11690        6.74200
H          4.49310        0.37880        6.94230
H          5.93990        1.07900        7.70040
H          6.37780        2.31920        3.00490
H          4.83650        2.51640        1.08510
H         -1.68310       -2.77540        0.34800
H         -1.26850       -4.99700        1.31760
H         -0.70840       -7.00790        2.38830
H          0.62940       -8.10380        1.98860
H          0.78260       -6.36700        1.62260
H         -0.70370       -6.59790       -2.60220
H         -1.11060       -4.36360       -3.57200
H         -1.08740       -0.53230       -4.28540
H         -2.64760       -0.09690       -6.13770
H         -7.11360       -1.62290       -5.40430
H         -7.46220       -1.47610       -7.13720
H         -6.59840       -2.91890       -6.54170
H         -5.35050       -3.00160       -4.54940
H         -3.78780       -3.45650       -2.73010
H         -2.44300        4.96910       -3.16800
H         -0.86680        5.04930       -2.34370
H         -3.42000        3.76250       -1.24130
H         -1.83120        3.67890       -0.45480
H         -2.64100        5.23510       -0.66190
H         -4.70350        3.35380       -7.09920
H         -4.40040        1.76540       -6.36020
H         -1.92340        2.12260       -6.71860
H         -2.82730        2.09710       -8.24210
H         -2.28550        3.63340       -7.55070
H         -8.29850       -2.30260       -2.26050
H         -4.84700       -3.27460        0.50060
H         -6.38370        1.24510       -5.33220
H         -6.86560        6.06940       -1.29440
H         -9.93250        5.70540       -5.20250
