
  xtb     02112219403D
 energy: -330.767770867876 gnorm: 0.001023131493 xtb: 6.4.1 (unknown)
170186  0     0  0            999 V2000
    6.8524   -3.5675    1.7176 C   0  0  0  0  0  0  0  0  0  0  0  0
    6.9970   -4.5676    2.6489 C   0  0  0  0  0  0  0  0  0  0  0  0
    5.8680   -5.3373    3.2173 C   0  0  0  0  0  0  0  0  0  0  0  0
    4.6795   -5.1755    3.0292 O   0  0  0  0  0  0  0  0  0  0  0  0
    6.4797   -6.2561    4.2045 C   0  0  0  0  0  0  0  0  0  0  0  0
    5.8628   -7.2242    4.9679 C   0  0  0  0  0  0  0  0  0  0  0  0
    6.6460   -7.9761    5.8363 C   0  0  0  0  0  0  0  0  0  0  0  0
    5.9430   -9.2107    6.8063 Cl  0  0  0  0  0  0  0  0  0  0  0  0
    8.0160   -7.7228    5.9163 C   0  0  0  0  0  0  0  0  0  0  0  0
    8.7651   -8.4504    6.7550 F   0  0  0  0  0  0  0  0  0  0  0  0
    8.6398   -6.7413    5.1609 C   0  0  0  0  0  0  0  0  0  0  0  0
    7.8576   -5.9986    4.2917 C   0  0  0  0  0  0  0  0  0  0  0  0
    8.1950   -4.9118    3.3740 C   0  0  0  0  0  0  0  0  0  0  0  0
    9.4338   -4.3309    3.2561 C   0  0  0  0  0  0  0  0  0  0  0  0
   10.5582   -4.7056    4.0190 C   0  0  0  0  0  0  0  0  0  0  0  0
   11.5058   -4.9515    4.6190 N   0  0  0  0  0  0  0  0  0  0  0  0
    9.7447   -3.2458    2.4131 C   0  0  0  0  0  0  0  0  0  0  0  0
   10.0663   -2.3442    1.7772 N   0  0  0  0  0  0  0  0  0  0  0  0
    5.6963   -3.3600    0.9571 C   0  0  0  0  0  0  0  0  0  0  0  0
    5.2129   -1.7018    0.6390 S   0  0  0  0  0  0  0  0  0  0  0  0
    3.5896   -2.1660    0.2094 C   0  0  0  0  0  0  0  0  0  0  0  0
    3.5490   -3.5467    0.0634 C   0  0  0  0  0  0  0  0  0  0  0  0
    2.3181   -4.6181   -0.4954 S   0  0  0  0  0  0  0  0  0  0  0  0
    3.3846   -5.9977   -0.2634 C   0  0  0  0  0  0  0  0  0  0  0  0
    2.8658   -7.2663   -0.6871 C   0  0  0  0  0  0  0  0  0  0  0  0
    3.4565   -8.2880   -1.4051 C   0  0  0  0  0  0  0  0  0  0  0  0
    2.5677   -9.3257   -1.7348 C   0  0  0  0  0  0  0  0  0  0  0  0
    1.2970   -9.0897   -1.2817 C   0  0  0  0  0  0  0  0  0  0  0  0
    0.0988   -9.9023   -1.5155 C   0  0  0  0  0  0  0  0  0  0  0  0
    0.0865  -10.9260   -2.1519 O   0  0  0  0  0  0  0  0  0  0  0  0
   -0.9645   -9.3391   -0.9356 O   0  0  0  0  0  0  0  0  0  0  0  0
   -2.2358   -9.9404   -1.1789 C   0  0  0  0  0  0  0  0  0  0  0  0
   -2.7983   -9.4946   -2.5205 C   0  0  0  0  0  0  0  0  0  0  0  0
    1.1785   -7.5962   -0.4304 S   0  0  0  0  0  0  0  0  0  0  0  0
    5.0734   -8.2611   -1.9739 Cl  0  0  0  0  0  0  0  0  0  0  0  0
    4.5911   -5.6338    0.2795 C   0  0  0  0  0  0  0  0  0  0  0  0
    4.7072   -4.2318    0.4882 C   0  0  0  0  0  0  0  0  0  0  0  0
    5.8352   -6.7432    0.6565 Cl  0  0  0  0  0  0  0  0  0  0  0  0
    2.5060   -1.2799    0.0605 C   0  0  0  0  0  0  0  0  0  0  0  0
    2.2997    0.0128    0.5587 C   0  0  0  0  0  0  0  0  0  0  0  0
    3.0736    0.6730    1.4834 N   0  0  0  0  0  0  0  0  0  0  0  0
    3.0357    2.0813    1.5014 C   0  0  0  0  0  0  0  0  0  0  0  0
    2.8619    2.7703    2.7021 C   0  0  0  0  0  0  0  0  0  0  0  0
    2.7385    4.1403    2.6982 C   0  0  0  0  0  0  0  0  0  0  0  0
    2.7838    4.8554    1.4993 C   0  0  0  0  0  0  0  0  0  0  0  0
    2.5750    6.5955    1.6150 S   0  0  0  0  0  0  0  0  0  0  0  0
    2.2935    7.1198   -0.0998 C   0  0  0  0  0  0  0  0  0  0  0  0
    3.0033    4.1741    0.3077 C   0  0  0  0  0  0  0  0  0  0  0  0
    3.1319    2.7991    0.3120 C   0  0  0  0  0  0  0  0  0  0  0  0
    3.7740   -0.0173    2.4801 C   0  0  0  0  0  0  0  0  0  0  0  0
    3.2800   -1.2081    3.0221 C   0  0  0  0  0  0  0  0  0  0  0  0
    4.0539   -1.9575    3.8769 C   0  0  0  0  0  0  0  0  0  0  0  0
    5.3322   -1.5253    4.2348 C   0  0  0  0  0  0  0  0  0  0  0  0
    6.2757   -2.6201    5.2422 S   0  0  0  0  0  0  0  0  0  0  0  0
    7.9074   -1.8280    5.3389 C   0  0  0  0  0  0  0  0  0  0  0  0
    5.7852   -0.2917    3.7826 C   0  0  0  0  0  0  0  0  0  0  0  0
    5.0142    0.4519    2.9114 C   0  0  0  0  0  0  0  0  0  0  0  0
    1.0834    0.5395    0.0551 C   0  0  0  0  0  0  0  0  0  0  0  0
    0.2943    2.0609    0.2435 S   0  0  0  0  0  0  0  0  0  0  0  0
   -1.0325    1.5094   -0.7777 C   0  0  0  0  0  0  0  0  0  0  0  0
   -0.9261    0.1589   -1.1259 C   0  0  0  0  0  0  0  0  0  0  0  0
   -1.9358   -0.5982   -1.6516 N   0  0  0  0  0  0  0  0  0  0  0  0
   -3.2759   -0.1635   -1.5713 C   0  0  0  0  0  0  0  0  0  0  0  0
   -4.0982   -0.2662   -2.6900 C   0  0  0  0  0  0  0  0  0  0  0  0
   -5.3545    0.2985   -2.6799 C   0  0  0  0  0  0  0  0  0  0  0  0
   -5.8198    0.9656   -1.5479 C   0  0  0  0  0  0  0  0  0  0  0  0
   -7.3745    1.7801   -1.6849 S   0  0  0  0  0  0  0  0  0  0  0  0
   -7.4423    2.8297   -0.2059 C   0  0  0  0  0  0  0  0  0  0  0  0
   -5.0481    0.9596   -0.3913 C   0  0  0  0  0  0  0  0  0  0  0  0
   -3.7883    0.3949   -0.4041 C   0  0  0  0  0  0  0  0  0  0  0  0
   -1.6855   -1.9002   -2.1270 C   0  0  0  0  0  0  0  0  0  0  0  0
   -0.6643   -2.1541   -3.0366 C   0  0  0  0  0  0  0  0  0  0  0  0
   -0.3687   -3.4520   -3.4129 C   0  0  0  0  0  0  0  0  0  0  0  0
   -1.0926   -4.5110   -2.8831 C   0  0  0  0  0  0  0  0  0  0  0  0
   -0.7495   -6.2060   -3.2270 S   0  0  0  0  0  0  0  0  0  0  0  0
    0.9485   -6.1709   -3.8657 C   0  0  0  0  0  0  0  0  0  0  0  0
   -2.1663   -4.2501   -2.0320 C   0  0  0  0  0  0  0  0  0  0  0  0
   -2.4634   -2.9596   -1.6600 C   0  0  0  0  0  0  0  0  0  0  0  0
    0.3276   -0.3479   -0.6974 C   0  0  0  0  0  0  0  0  0  0  0  0
    1.1231   -1.8731   -0.8602 S   0  0  0  0  0  0  0  0  0  0  0  0
   -2.0351    2.4609   -1.0687 C   0  0  0  0  0  0  0  0  0  0  0  0
   -2.5234    3.5537    0.1939 S   0  0  0  0  0  0  0  0  0  0  0  0
   -3.6933    4.3746   -0.8225 C   0  0  0  0  0  0  0  0  0  0  0  0
   -3.6868    3.7692   -2.0732 C   0  0  0  0  0  0  0  0  0  0  0  0
   -4.5456    4.1069   -3.5285 S   0  0  0  0  0  0  0  0  0  0  0  0
   -3.5881    2.9094   -4.4052 C   0  0  0  0  0  0  0  0  0  0  0  0
   -3.8050    2.8011   -5.8188 C   0  0  0  0  0  0  0  0  0  0  0  0
   -3.7935    1.7036   -6.6580 C   0  0  0  0  0  0  0  0  0  0  0  0
   -4.0525    2.0182   -8.0016 C   0  0  0  0  0  0  0  0  0  0  0  0
   -4.2745    3.3561   -8.1899 C   0  0  0  0  0  0  0  0  0  0  0  0
   -4.5823    4.0870   -9.4232 C   0  0  0  0  0  0  0  0  0  0  0  0
   -4.7822    5.2759   -9.4597 O   0  0  0  0  0  0  0  0  0  0  0  0
   -4.6194    3.2715  -10.4817 O   0  0  0  0  0  0  0  0  0  0  0  0
   -4.8933    3.8816  -11.7462 C   0  0  0  0  0  0  0  0  0  0  0  0
   -3.6412    4.5017  -12.3489 C   0  0  0  0  0  0  0  0  0  0  0  0
   -4.1672    4.2455   -6.7166 S   0  0  0  0  0  0  0  0  0  0  0  0
   -3.5830    0.0837   -6.1453 Cl  0  0  0  0  0  0  0  0  0  0  0  0
   -2.6853    2.2825   -3.5891 C   0  0  0  0  0  0  0  0  0  0  0  0
   -2.7427    2.7281   -2.2379 C   0  0  0  0  0  0  0  0  0  0  0  0
   -1.4649    1.2242   -4.1451 Cl  0  0  0  0  0  0  0  0  0  0  0  0
   -4.5484    5.3940   -0.3859 C   0  0  0  0  0  0  0  0  0  0  0  0
   -4.5404    6.1037    0.7852 C   0  0  0  0  0  0  0  0  0  0  0  0
   -5.8094    6.7167    1.2510 C   0  0  0  0  0  0  0  0  0  0  0  0
   -6.8297    6.8482    0.6105 O   0  0  0  0  0  0  0  0  0  0  0  0
   -5.5846    7.0390    2.6733 C   0  0  0  0  0  0  0  0  0  0  0  0
   -6.4643    7.5381    3.5890 C   0  0  0  0  0  0  0  0  0  0  0  0
   -6.0327    7.7441    4.9189 C   0  0  0  0  0  0  0  0  0  0  0  0
   -6.8986    8.2636    5.9024 C   0  0  0  0  0  0  0  0  0  0  0  0
   -6.4718    8.4546    7.1872 C   0  0  0  0  0  0  0  0  0  0  0  0
   -5.1509    8.1241    7.5184 C   0  0  0  0  0  0  0  0  0  0  0  0
   -4.7488    8.3173    8.7880 F   0  0  0  0  0  0  0  0  0  0  0  0
   -4.2702    7.6177    6.6035 C   0  0  0  0  0  0  0  0  0  0  0  0
   -4.6920    7.4175    5.2750 C   0  0  0  0  0  0  0  0  0  0  0  0
   -3.7998    6.9076    4.3022 C   0  0  0  0  0  0  0  0  0  0  0  0
   -4.2374    6.7280    3.0186 C   0  0  0  0  0  0  0  0  0  0  0  0
   -3.5436    6.2818    1.8113 C   0  0  0  0  0  0  0  0  0  0  0  0
   -2.1792    6.2914    1.6455 C   0  0  0  0  0  0  0  0  0  0  0  0
   -1.2607    6.4584    2.7010 C   0  0  0  0  0  0  0  0  0  0  0  0
   -0.4683    6.5456    3.5273 N   0  0  0  0  0  0  0  0  0  0  0  0
   -1.5287    6.2263    0.3989 C   0  0  0  0  0  0  0  0  0  0  0  0
   -0.9386    6.2492   -0.5874 N   0  0  0  0  0  0  0  0  0  0  0  0
    7.6269   -2.8187    1.6156 H   0  0  0  0  0  0  0  0  0  0  0  0
    4.8013   -7.3958    4.8872 H   0  0  0  0  0  0  0  0  0  0  0  0
    9.7014   -6.5940    5.2738 H   0  0  0  0  0  0  0  0  0  0  0  0
    2.8407  -10.1991   -2.2978 H   0  0  0  0  0  0  0  0  0  0  0  0
   -2.8664   -9.6062   -0.3532 H   0  0  0  0  0  0  0  0  0  0  0  0
   -2.1266  -11.0294   -1.1514 H   0  0  0  0  0  0  0  0  0  0  0  0
   -2.1841   -9.8840   -3.3285 H   0  0  0  0  0  0  0  0  0  0  0  0
   -2.8037   -8.4087   -2.5799 H   0  0  0  0  0  0  0  0  0  0  0  0
   -3.8116   -9.8678   -2.6367 H   0  0  0  0  0  0  0  0  0  0  0  0
    2.7997    2.2187    3.6282 H   0  0  0  0  0  0  0  0  0  0  0  0
    2.5776    4.6784    3.6190 H   0  0  0  0  0  0  0  0  0  0  0  0
    3.1918    6.9766   -0.6928 H   0  0  0  0  0  0  0  0  0  0  0  0
    2.0604    8.1786   -0.0414 H   0  0  0  0  0  0  0  0  0  0  0  0
    1.4450    6.5812   -0.5128 H   0  0  0  0  0  0  0  0  0  0  0  0
    3.0712    4.7022   -0.6289 H   0  0  0  0  0  0  0  0  0  0  0  0
    3.3031    2.2717   -0.6153 H   0  0  0  0  0  0  0  0  0  0  0  0
    2.2968   -1.5582    2.7462 H   0  0  0  0  0  0  0  0  0  0  0  0
    3.6909   -2.9002    4.2554 H   0  0  0  0  0  0  0  0  0  0  0  0
    8.5409   -2.5256    5.8789 H   0  0  0  0  0  0  0  0  0  0  0  0
    8.3027   -1.6640    4.3402 H   0  0  0  0  0  0  0  0  0  0  0  0
    7.8382   -0.8964    5.8925 H   0  0  0  0  0  0  0  0  0  0  0  0
    6.7488    0.0902    4.0764 H   0  0  0  0  0  0  0  0  0  0  0  0
    5.3903    1.3884    2.5287 H   0  0  0  0  0  0  0  0  0  0  0  0
   -3.7304   -0.7641   -3.5729 H   0  0  0  0  0  0  0  0  0  0  0  0
   -5.9782    0.2565   -3.5592 H   0  0  0  0  0  0  0  0  0  0  0  0
   -7.6106    2.2247    0.6804 H   0  0  0  0  0  0  0  0  0  0  0  0
   -6.5269    3.4081   -0.1223 H   0  0  0  0  0  0  0  0  0  0  0  0
   -8.2836    3.4985   -0.3583 H   0  0  0  0  0  0  0  0  0  0  0  0
   -5.4145    1.3972    0.5232 H   0  0  0  0  0  0  0  0  0  0  0  0
   -3.1920    0.4028    0.4965 H   0  0  0  0  0  0  0  0  0  0  0  0
   -0.1010   -1.3325   -3.4523 H   0  0  0  0  0  0  0  0  0  0  0  0
    0.4321   -3.6216   -4.1138 H   0  0  0  0  0  0  0  0  0  0  0  0
    1.2814   -7.2047   -3.8810 H   0  0  0  0  0  0  0  0  0  0  0  0
    0.9653   -5.7677   -4.8741 H   0  0  0  0  0  0  0  0  0  0  0  0
    1.5715   -5.5871   -3.1942 H   0  0  0  0  0  0  0  0  0  0  0  0
   -2.7445   -5.0760   -1.6481 H   0  0  0  0  0  0  0  0  0  0  0  0
   -3.2799   -2.7615   -0.9817 H   0  0  0  0  0  0  0  0  0  0  0  0
   -4.0860    1.2923   -8.7926 H   0  0  0  0  0  0  0  0  0  0  0  0
   -5.2739    3.0710  -12.3707 H   0  0  0  0  0  0  0  0  0  0  0  0
   -5.6658    4.6452  -11.6102 H   0  0  0  0  0  0  0  0  0  0  0  0
   -3.2928    5.3190  -11.7223 H   0  0  0  0  0  0  0  0  0  0  0  0
   -3.8682    4.8891  -13.3377 H   0  0  0  0  0  0  0  0  0  0  0  0
   -2.8535    3.7565  -12.4306 H   0  0  0  0  0  0  0  0  0  0  0  0
   -5.4009    5.5840   -1.0336 H   0  0  0  0  0  0  0  0  0  0  0  0
   -7.4773    7.7775    3.3022 H   0  0  0  0  0  0  0  0  0  0  0  0
   -7.9118    8.5105    5.6229 H   0  0  0  0  0  0  0  0  0  0  0  0
   -7.1213    8.8518    7.9510 H   0  0  0  0  0  0  0  0  0  0  0  0
   -3.2588    7.3784    6.8931 H   0  0  0  0  0  0  0  0  0  0  0  0
   -2.7924    6.6647    4.6009 H   0  0  0  0  0  0  0  0  0  0  0  0
  1  2  2  0  0  0  0
  2  3  1  0  0  0  0
  3  4  2  0  0  0  0
  3  5  1  0  0  0  0
  5  6  2  0  0  0  0
  6  7  1  0  0  0  0
  7  8  1  0  0  0  0
  7  9  2  0  0  0  0
  9 10  1  0  0  0  0
  9 11  1  0  0  0  0
 11 12  2  0  0  0  0
 12 13  1  0  0  0  0
 13 14  2  0  0  0  0
 14 15  1  0  0  0  0
 15 16  3  0  0  0  0
 14 17  1  0  0  0  0
 17 18  3  0  0  0  0
  1 19  1  0  0  0  0
 19 20  1  0  0  0  0
 20 21  1  0  0  0  0
 21 22  2  0  0  0  0
 22 23  1  0  0  0  0
 23 24  1  0  0  0  0
 24 25  1  0  0  0  0
 25 26  2  0  0  0  0
 26 27  1  0  0  0  0
 27 28  2  0  0  0  0
 28 29  1  0  0  0  0
 29 30  2  0  0  0  0
 29 31  1  0  0  0  0
 31 32  1  0  0  0  0
 32 33  1  0  0  0  0
 28 34  1  0  0  0  0
 26 35  1  0  0  0  0
 24 36  2  0  0  0  0
 36 37  1  0  0  0  0
 36 38  1  0  0  0  0
 21 39  1  0  0  0  0
 39 40  2  0  0  0  0
 40 41  1  0  0  0  0
 41 42  1  0  0  0  0
 42 43  2  0  0  0  0
 43 44  1  0  0  0  0
 44 45  2  0  0  0  0
 45 46  1  0  0  0  0
 46 47  1  0  0  0  0
 45 48  1  0  0  0  0
 48 49  2  0  0  0  0
 41 50  1  0  0  0  0
 50 51  2  0  0  0  0
 51 52  1  0  0  0  0
 52 53  2  0  0  0  0
 53 54  1  0  0  0  0
 54 55  1  0  0  0  0
 53 56  1  0  0  0  0
 56 57  2  0  0  0  0
 40 58  1  0  0  0  0
 58 59  1  0  0  0  0
 59 60  1  0  0  0  0
 60 61  2  0  0  0  0
 61 62  1  0  0  0  0
 62 63  1  0  0  0  0
 63 64  2  0  0  0  0
 64 65  1  0  0  0  0
 65 66  2  0  0  0  0
 66 67  1  0  0  0  0
 67 68  1  0  0  0  0
 66 69  1  0  0  0  0
 69 70  2  0  0  0  0
 62 71  1  0  0  0  0
 71 72  2  0  0  0  0
 72 73  1  0  0  0  0
 73 74  2  0  0  0  0
 74 75  1  0  0  0  0
 75 76  1  0  0  0  0
 74 77  1  0  0  0  0
 77 78  2  0  0  0  0
 61 79  1  0  0  0  0
 79 80  1  0  0  0  0
 60 81  1  0  0  0  0
 81 82  1  0  0  0  0
 82 83  1  0  0  0  0
 83 84  2  0  0  0  0
 84 85  1  0  0  0  0
 85 86  1  0  0  0  0
 86 87  1  0  0  0  0
 87 88  2  0  0  0  0
 88 89  1  0  0  0  0
 89 90  2  0  0  0  0
 90 91  1  0  0  0  0
 91 92  2  0  0  0  0
 91 93  1  0  0  0  0
 93 94  1  0  0  0  0
 94 95  1  0  0  0  0
 90 96  1  0  0  0  0
 88 97  1  0  0  0  0
 86 98  2  0  0  0  0
 98 99  1  0  0  0  0
 98100  1  0  0  0  0
 83101  1  0  0  0  0
101102  2  0  0  0  0
102103  1  0  0  0  0
103104  2  0  0  0  0
103105  1  0  0  0  0
105106  2  0  0  0  0
106107  1  0  0  0  0
107108  2  0  0  0  0
108109  1  0  0  0  0
109110  2  0  0  0  0
110111  1  0  0  0  0
110112  1  0  0  0  0
112113  2  0  0  0  0
113114  1  0  0  0  0
114115  2  0  0  0  0
115116  1  0  0  0  0
116117  2  0  0  0  0
117118  1  0  0  0  0
118119  3  0  0  0  0
117120  1  0  0  0  0
120121  3  0  0  0  0
 13  2  1  0  0  0  0
 37 19  2  0  0  0  0
 80 39  1  0  0  0  0
 99 81  2  0  0  0  0
116102  1  0  0  0  0
 12  5  1  0  0  0  0
 37 22  1  0  0  0  0
 49 42  1  0  0  0  0
 57 50  1  0  0  0  0
 79 58  2  0  0  0  0
 99 84  1  0  0  0  0
115105  1  0  0  0  0
 34 25  1  0  0  0  0
 70 63  1  0  0  0  0
 78 71  1  0  0  0  0
 96 87  1  0  0  0  0
113107  1  0  0  0  0
  1122  1  0  0  0  0
  6123  1  0  0  0  0
 11124  1  0  0  0  0
 27125  1  0  0  0  0
 32126  1  0  0  0  0
 32127  1  0  0  0  0
 33128  1  0  0  0  0
 33129  1  0  0  0  0
 33130  1  0  0  0  0
 43131  1  0  0  0  0
 44132  1  0  0  0  0
 47133  1  0  0  0  0
 47134  1  0  0  0  0
 47135  1  0  0  0  0
 48136  1  0  0  0  0
 49137  1  0  0  0  0
 51138  1  0  0  0  0
 52139  1  0  0  0  0
 55140  1  0  0  0  0
 55141  1  0  0  0  0
 55142  1  0  0  0  0
 56143  1  0  0  0  0
 57144  1  0  0  0  0
 64145  1  0  0  0  0
 65146  1  0  0  0  0
 68147  1  0  0  0  0
 68148  1  0  0  0  0
 68149  1  0  0  0  0
 69150  1  0  0  0  0
 70151  1  0  0  0  0
 72152  1  0  0  0  0
 73153  1  0  0  0  0
 76154  1  0  0  0  0
 76155  1  0  0  0  0
 76156  1  0  0  0  0
 77157  1  0  0  0  0
 78158  1  0  0  0  0
 89159  1  0  0  0  0
 94160  1  0  0  0  0
 94161  1  0  0  0  0
 95162  1  0  0  0  0
 95163  1  0  0  0  0
 95164  1  0  0  0  0
101165  1  0  0  0  0
106166  1  0  0  0  0
108167  1  0  0  0  0
109168  1  0  0  0  0
112169  1  0  0  0  0
114170  1  0  0  0  0
M  END
