
  xtb     02102220063D
 energy: -247.947208955868 gnorm: 0.000412626230 xtb: 6.4.1 (unknown)
136149  0     0  0            999 V2000
   -4.5158    4.7374    7.9874 C   0  0  0  0  0  0  0  0  0  0  0  0
   -4.1356    5.7810    8.7873 C   0  0  0  0  0  0  0  0  0  0  0  0
   -3.0825    6.7959    8.5778 C   0  0  0  0  0  0  0  0  0  0  0  0
   -2.1946    6.8199    7.7547 O   0  0  0  0  0  0  0  0  0  0  0  0
   -3.3352    7.8436    9.5981 C   0  0  0  0  0  0  0  0  0  0  0  0
   -2.7103    9.0700    9.7448 C   0  0  0  0  0  0  0  0  0  0  0  0
   -1.3655    9.5093    8.7923 Cl  0  0  0  0  0  0  0  0  0  0  0  0
   -3.2185    9.9629   10.6989 C   0  0  0  0  0  0  0  0  0  0  0  0
   -2.4593   11.4760   10.9401 Cl  0  0  0  0  0  0  0  0  0  0  0  0
   -4.3674    9.6391   11.4192 C   0  0  0  0  0  0  0  0  0  0  0  0
   -5.0285   10.7867   12.5010 Cl  0  0  0  0  0  0  0  0  0  0  0  0
   -4.9992    8.3949   11.2628 C   0  0  0  0  0  0  0  0  0  0  0  0
   -6.5031    8.1379   12.0459 Cl  0  0  0  0  0  0  0  0  0  0  0  0
   -4.4306    7.4673   10.3991 C   0  0  0  0  0  0  0  0  0  0  0  0
   -4.7941    6.0979   10.0494 C   0  0  0  0  0  0  0  0  0  0  0  0
   -5.4233    5.1989   10.8671 C   0  0  0  0  0  0  0  0  0  0  0  0
   -5.7120    3.8565   10.5289 C   0  0  0  0  0  0  0  0  0  0  0  0
   -5.9939    2.7589   10.3467 N   0  0  0  0  0  0  0  0  0  0  0  0
   -5.7178    5.4038   12.2339 C   0  0  0  0  0  0  0  0  0  0  0  0
   -5.9000    5.4305   13.3662 N   0  0  0  0  0  0  0  0  0  0  0  0
   -3.9885    4.2382    6.7794 C   0  0  0  0  0  0  0  0  0  0  0  0
   -2.8884    4.5974    6.0346 C   0  0  0  0  0  0  0  0  0  0  0  0
   -2.6766    3.7913    4.9041 C   0  0  0  0  0  0  0  0  0  0  0  0
   -1.6509    3.9185    3.9343 C   0  0  0  0  0  0  0  0  0  0  0  0
   -0.6200    4.9267    4.0224 C   0  0  0  0  0  0  0  0  0  0  0  0
   -0.0570    5.6436    2.9987 C   0  0  0  0  0  0  0  0  0  0  0  0
    0.9285    6.5481    3.4310 C   0  0  0  0  0  0  0  0  0  0  0  0
    1.1446    6.5122    4.7768 C   0  0  0  0  0  0  0  0  0  0  0  0
    2.0538    7.3539    5.6020 C   0  0  0  0  0  0  0  0  0  0  0  0
    1.2507    8.3556    6.4357 C   0  0  0  0  0  0  0  0  0  0  0  0
    0.1144    5.3565    5.5417 S   0  0  0  0  0  0  0  0  0  0  0  0
   -1.6810    3.0021    2.8910 C   0  0  0  0  0  0  0  0  0  0  0  0
   -2.6579    1.9814    2.7723 C   0  0  0  0  0  0  0  0  0  0  0  0
   -3.7066    1.8820    3.7118 C   0  0  0  0  0  0  0  0  0  0  0  0
   -4.7547    0.8969    3.5573 C   0  0  0  0  0  0  0  0  0  0  0  0
   -5.3771    0.5050    2.4030 C   0  0  0  0  0  0  0  0  0  0  0  0
   -6.3717   -0.4686    2.6115 C   0  0  0  0  0  0  0  0  0  0  0  0
   -6.5078   -0.8336    3.9167 C   0  0  0  0  0  0  0  0  0  0  0  0
   -7.4715   -1.7975    4.5166 C   0  0  0  0  0  0  0  0  0  0  0  0
   -8.5889   -1.0648    5.2626 C   0  0  0  0  0  0  0  0  0  0  0  0
   -5.4075    0.0421    4.9265 S   0  0  0  0  0  0  0  0  0  0  0  0
   -3.6716    2.7826    4.7698 C   0  0  0  0  0  0  0  0  0  0  0  0
   -4.8254    2.8618    6.0649 S   0  0  0  0  0  0  0  0  0  0  0  0
   -2.3801    1.1075    1.6974 C   0  0  0  0  0  0  0  0  0  0  0  0
   -1.2580    1.4353    0.9905 C   0  0  0  0  0  0  0  0  0  0  0  0
   -0.4884    2.8769    1.6265 S   0  0  0  0  0  0  0  0  0  0  0  0
   -0.6844    0.7367   -0.1243 C   0  0  0  0  0  0  0  0  0  0  0  0
    0.4736    1.1744   -0.7486 C   0  0  0  0  0  0  0  0  0  0  0  0
    1.0750    0.4856   -1.7975 C   0  0  0  0  0  0  0  0  0  0  0  0
    0.5737   -0.7042   -2.3017 C   0  0  0  0  0  0  0  0  0  0  0  0
   -0.6306   -1.1777   -1.7144 C   0  0  0  0  0  0  0  0  0  0  0  0
   -1.3218   -2.2667   -2.0493 N   0  0  0  0  0  0  0  0  0  0  0  0
   -2.6209   -2.3782   -1.1094 S   0  0  0  0  0  0  0  0  0  0  0  0
   -2.3790   -1.0561   -0.2315 N   0  0  0  0  0  0  0  0  0  0  0  0
   -1.2595   -0.4583   -0.6357 C   0  0  0  0  0  0  0  0  0  0  0  0
    1.2362   -1.4306   -3.3471 C   0  0  0  0  0  0  0  0  0  0  0  0
    0.9447   -2.6855   -3.7982 C   0  0  0  0  0  0  0  0  0  0  0  0
    1.7968   -3.1384   -4.8296 C   0  0  0  0  0  0  0  0  0  0  0  0
    1.7805   -4.4004   -5.4610 C   0  0  0  0  0  0  0  0  0  0  0  0
    0.7369   -5.3590   -5.1795 C   0  0  0  0  0  0  0  0  0  0  0  0
   -0.5935   -5.1163   -4.9791 C   0  0  0  0  0  0  0  0  0  0  0  0
   -1.3553   -6.2762   -4.7131 C   0  0  0  0  0  0  0  0  0  0  0  0
   -2.8226   -6.2005   -4.4195 C   0  0  0  0  0  0  0  0  0  0  0  0
   -3.0572   -5.6602   -3.0074 C   0  0  0  0  0  0  0  0  0  0  0  0
   -0.5912   -7.4096   -4.6997 C   0  0  0  0  0  0  0  0  0  0  0  0
   -1.0006   -8.8295   -4.5044 C   0  0  0  0  0  0  0  0  0  0  0  0
   -1.2428   -9.5153   -5.8517 C   0  0  0  0  0  0  0  0  0  0  0  0
    1.0709   -7.0618   -5.0458 S   0  0  0  0  0  0  0  0  0  0  0  0
    2.8133   -4.6506   -6.3548 C   0  0  0  0  0  0  0  0  0  0  0  0
    3.8181   -3.6997   -6.6767 C   0  0  0  0  0  0  0  0  0  0  0  0
    3.8149   -2.4217   -6.0667 C   0  0  0  0  0  0  0  0  0  0  0  0
    4.8180   -1.4193   -6.3387 C   0  0  0  0  0  0  0  0  0  0  0  0
    4.6452   -0.0639   -6.4057 C   0  0  0  0  0  0  0  0  0  0  0  0
    5.8367    0.6619   -6.6262 C   0  0  0  0  0  0  0  0  0  0  0  0
    5.8456    2.1575   -6.6968 C   0  0  0  0  0  0  0  0  0  0  0  0
    5.6171    2.7661   -5.3125 C   0  0  0  0  0  0  0  0  0  0  0  0
    6.9327   -0.1509   -6.7203 C   0  0  0  0  0  0  0  0  0  0  0  0
    6.5012   -1.8191   -6.5452 S   0  0  0  0  0  0  0  0  0  0  0  0
    8.3676    0.2062   -6.9101 C   0  0  0  0  0  0  0  0  0  0  0  0
    9.0535    0.4907   -5.5715 C   0  0  0  0  0  0  0  0  0  0  0  0
    2.7913   -2.1835   -5.1560 C   0  0  0  0  0  0  0  0  0  0  0  0
    2.6037   -0.7385   -4.1985 S   0  0  0  0  0  0  0  0  0  0  0  0
    4.7007   -4.1905   -7.6561 C   0  0  0  0  0  0  0  0  0  0  0  0
    4.4129   -5.4731   -8.0642 C   0  0  0  0  0  0  0  0  0  0  0  0
    3.0102   -6.1296   -7.2498 S   0  0  0  0  0  0  0  0  0  0  0  0
    5.1590   -6.2066   -9.0312 C   0  0  0  0  0  0  0  0  0  0  0  0
    4.9116   -7.4887   -9.4659 C   0  0  0  0  0  0  0  0  0  0  0  0
    3.8521   -8.3035   -9.0218 C   0  0  0  0  0  0  0  0  0  0  0  0
    3.0100   -9.0178   -8.7084 N   0  0  0  0  0  0  0  0  0  0  0  0
    5.7448   -8.0947  -10.4319 C   0  0  0  0  0  0  0  0  0  0  0  0
    6.4101   -8.6009  -11.2165 N   0  0  0  0  0  0  0  0  0  0  0  0
    6.2766   -5.5357   -9.5955 C   0  0  0  0  0  0  0  0  0  0  0  0
    7.1746   -4.9884  -10.0489 N   0  0  0  0  0  0  0  0  0  0  0  0
   -5.3914    4.1904    8.3186 H   0  0  0  0  0  0  0  0  0  0  0  0
   -2.2669    5.4275    6.3101 H   0  0  0  0  0  0  0  0  0  0  0  0
   -0.3744    5.5599    1.9749 H   0  0  0  0  0  0  0  0  0  0  0  0
    1.4604    7.2059    2.7666 H   0  0  0  0  0  0  0  0  0  0  0  0
    2.6379    6.7184    6.2725 H   0  0  0  0  0  0  0  0  0  0  0  0
    2.7444    7.8851    4.9437 H   0  0  0  0  0  0  0  0  0  0  0  0
    1.9150    8.9456    7.0621 H   0  0  0  0  0  0  0  0  0  0  0  0
    0.6954    9.0286    5.7860 H   0  0  0  0  0  0  0  0  0  0  0  0
    0.5417    7.8304    7.0717 H   0  0  0  0  0  0  0  0  0  0  0  0
   -5.1599    0.9338    1.4412 H   0  0  0  0  0  0  0  0  0  0  0  0
   -6.9670   -0.8854    1.8183 H   0  0  0  0  0  0  0  0  0  0  0  0
   -7.8991   -2.4109    3.7206 H   0  0  0  0  0  0  0  0  0  0  0  0
   -6.9483   -2.4553    5.2146 H   0  0  0  0  0  0  0  0  0  0  0  0
   -9.1319   -0.4111    4.5836 H   0  0  0  0  0  0  0  0  0  0  0  0
   -8.1721   -0.4607    6.0651 H   0  0  0  0  0  0  0  0  0  0  0  0
   -9.2870   -1.7793    5.6910 H   0  0  0  0  0  0  0  0  0  0  0  0
   -2.9619    0.2353    1.4674 H   0  0  0  0  0  0  0  0  0  0  0  0
    0.9349    2.0851   -0.3954 H   0  0  0  0  0  0  0  0  0  0  0  0
    1.9827    0.8839   -2.2270 H   0  0  0  0  0  0  0  0  0  0  0  0
    0.1610   -3.2765   -3.3653 H   0  0  0  0  0  0  0  0  0  0  0  0
   -1.0332   -4.1387   -5.0672 H   0  0  0  0  0  0  0  0  0  0  0  0
   -3.2945   -5.5322   -5.1434 H   0  0  0  0  0  0  0  0  0  0  0  0
   -3.2822   -7.1839   -4.5196 H   0  0  0  0  0  0  0  0  0  0  0  0
   -2.6070   -4.6757   -2.8982 H   0  0  0  0  0  0  0  0  0  0  0  0
   -4.1223   -5.5809   -2.8025 H   0  0  0  0  0  0  0  0  0  0  0  0
   -2.6101   -6.3239   -2.2704 H   0  0  0  0  0  0  0  0  0  0  0  0
   -0.2111   -9.3623   -3.9702 H   0  0  0  0  0  0  0  0  0  0  0  0
   -1.9079   -8.8713   -3.8988 H   0  0  0  0  0  0  0  0  0  0  0  0
   -2.0311   -9.0053   -6.4012 H   0  0  0  0  0  0  0  0  0  0  0  0
   -1.5367  -10.5507   -5.6997 H   0  0  0  0  0  0  0  0  0  0  0  0
   -0.3360   -9.4955   -6.4517 H   0  0  0  0  0  0  0  0  0  0  0  0
    3.6810    0.4085   -6.3449 H   0  0  0  0  0  0  0  0  0  0  0  0
    5.0479    2.4856   -7.3678 H   0  0  0  0  0  0  0  0  0  0  0  0
    6.7950    2.5116   -7.0994 H   0  0  0  0  0  0  0  0  0  0  0  0
    4.6650    2.4349   -4.9043 H   0  0  0  0  0  0  0  0  0  0  0  0
    6.4045    2.4608   -4.6271 H   0  0  0  0  0  0  0  0  0  0  0  0
    5.6119    3.8518   -5.3727 H   0  0  0  0  0  0  0  0  0  0  0  0
    8.4442    1.0859   -7.5532 H   0  0  0  0  0  0  0  0  0  0  0  0
    8.8797   -0.6209   -7.4057 H   0  0  0  0  0  0  0  0  0  0  0  0
    8.9892   -0.3799   -4.9227 H   0  0  0  0  0  0  0  0  0  0  0  0
   10.1021    0.7285   -5.7306 H   0  0  0  0  0  0  0  0  0  0  0  0
    8.5786    1.3308   -5.0706 H   0  0  0  0  0  0  0  0  0  0  0  0
    5.5204   -3.6287   -8.0665 H   0  0  0  0  0  0  0  0  0  0  0  0
  1  2  2  0  0  0  0
  2  3  1  0  0  0  0
  3  4  2  0  0  0  0
  3  5  1  0  0  0  0
  5  6  2  0  0  0  0
  6  7  1  0  0  0  0
  6  8  1  0  0  0  0
  8  9  1  0  0  0  0
  8 10  2  0  0  0  0
 10 11  1  0  0  0  0
 10 12  1  0  0  0  0
 12 13  1  0  0  0  0
 12 14  2  0  0  0  0
 14 15  1  0  0  0  0
 15 16  2  0  0  0  0
 16 17  1  0  0  0  0
 17 18  3  0  0  0  0
 16 19  1  0  0  0  0
 19 20  3  0  0  0  0
  1 21  1  0  0  0  0
 21 22  2  0  0  0  0
 22 23  1  0  0  0  0
 23 24  2  0  0  0  0
 24 25  1  0  0  0  0
 25 26  2  0  0  0  0
 26 27  1  0  0  0  0
 27 28  2  0  0  0  0
 28 29  1  0  0  0  0
 29 30  1  0  0  0  0
 28 31  1  0  0  0  0
 24 32  1  0  0  0  0
 32 33  2  0  0  0  0
 33 34  1  0  0  0  0
 34 35  1  0  0  0  0
 35 36  2  0  0  0  0
 36 37  1  0  0  0  0
 37 38  2  0  0  0  0
 38 39  1  0  0  0  0
 39 40  1  0  0  0  0
 38 41  1  0  0  0  0
 34 42  2  0  0  0  0
 42 43  1  0  0  0  0
 33 44  1  0  0  0  0
 44 45  2  0  0  0  0
 45 46  1  0  0  0  0
 45 47  1  0  0  0  0
 47 48  2  0  0  0  0
 48 49  1  0  0  0  0
 49 50  2  0  0  0  0
 50 51  1  0  0  0  0
 51 52  2  0  0  0  0
 52 53  1  0  0  0  0
 53 54  1  0  0  0  0
 54 55  2  0  0  0  0
 50 56  1  0  0  0  0
 56 57  2  0  0  0  0
 57 58  1  0  0  0  0
 58 59  2  0  0  0  0
 59 60  1  0  0  0  0
 60 61  2  0  0  0  0
 61 62  1  0  0  0  0
 62 63  1  0  0  0  0
 63 64  1  0  0  0  0
 62 65  2  0  0  0  0
 65 66  1  0  0  0  0
 66 67  1  0  0  0  0
 65 68  1  0  0  0  0
 59 69  1  0  0  0  0
 69 70  2  0  0  0  0
 70 71  1  0  0  0  0
 71 72  1  0  0  0  0
 72 73  2  0  0  0  0
 73 74  1  0  0  0  0
 74 75  1  0  0  0  0
 75 76  1  0  0  0  0
 74 77  2  0  0  0  0
 77 78  1  0  0  0  0
 77 79  1  0  0  0  0
 79 80  1  0  0  0  0
 71 81  2  0  0  0  0
 81 82  1  0  0  0  0
 70 83  1  0  0  0  0
 83 84  2  0  0  0  0
 84 85  1  0  0  0  0
 84 86  1  0  0  0  0
 86 87  2  0  0  0  0
 87 88  1  0  0  0  0
 88 89  3  0  0  0  0
 87 90  1  0  0  0  0
 90 91  3  0  0  0  0
 86 92  1  0  0  0  0
 92 93  3  0  0  0  0
 15  2  1  0  0  0  0
 43 21  1  0  0  0  0
 55 47  1  0  0  0  0
 82 56  1  0  0  0  0
 14  5  1  0  0  0  0
 42 23  1  0  0  0  0
 55 51  1  0  0  0  0
 81 58  1  0  0  0  0
 31 25  1  0  0  0  0
 46 32  1  0  0  0  0
 68 60  1  0  0  0  0
 85 69  1  0  0  0  0
 41 35  1  0  0  0  0
 78 72  1  0  0  0  0
  1 94  1  0  0  0  0
 22 95  1  0  0  0  0
 26 96  1  0  0  0  0
 27 97  1  0  0  0  0
 29 98  1  0  0  0  0
 29 99  1  0  0  0  0
 30100  1  0  0  0  0
 30101  1  0  0  0  0
 30102  1  0  0  0  0
 36103  1  0  0  0  0
 37104  1  0  0  0  0
 39105  1  0  0  0  0
 39106  1  0  0  0  0
 40107  1  0  0  0  0
 40108  1  0  0  0  0
 40109  1  0  0  0  0
 44110  1  0  0  0  0
 48111  1  0  0  0  0
 49112  1  0  0  0  0
 57113  1  0  0  0  0
 61114  1  0  0  0  0
 63115  1  0  0  0  0
 63116  1  0  0  0  0
 64117  1  0  0  0  0
 64118  1  0  0  0  0
 64119  1  0  0  0  0
 66120  1  0  0  0  0
 66121  1  0  0  0  0
 67122  1  0  0  0  0
 67123  1  0  0  0  0
 67124  1  0  0  0  0
 73125  1  0  0  0  0
 75126  1  0  0  0  0
 75127  1  0  0  0  0
 76128  1  0  0  0  0
 76129  1  0  0  0  0
 76130  1  0  0  0  0
 79131  1  0  0  0  0
 79132  1  0  0  0  0
 80133  1  0  0  0  0
 80134  1  0  0  0  0
 80135  1  0  0  0  0
 83136  1  0  0  0  0
M  END
