198

C          6.81350       -7.60490        8.17340
C          5.88540       -8.48780        8.62200
C          4.41570       -8.36330        8.43430
O          3.81400       -7.62430        7.69330
C          3.82190       -9.26780        9.44780
C          2.48440       -9.43080        9.76720
Cl         1.25480       -8.65680        8.87410
C          2.15790      -10.25080       10.85670
Cl         0.51930      -10.51130       11.26680
C          3.16840      -10.81930       11.63190
Cl         2.74720      -11.73270       13.01450
C          4.52320      -10.64370       11.30810
Cl         5.70660      -11.22700       12.40350
C          4.84620       -9.91930       10.16630
C          6.12230       -9.59120        9.54370
C          7.29010      -10.30230        9.59980
C          7.47320      -11.57450       10.18440
N          7.70490      -12.64060       10.53930
C          8.46390       -9.91730        8.91120
N          9.45340       -9.66360        8.38840
C          6.60480       -6.56120        7.20300
C          5.80120       -6.75210        6.06510
C          5.61190       -5.69520        5.21000
C          4.79530       -5.62920        3.96880
O          4.17030       -6.51480        3.43520
C          4.89090       -4.20700        3.54630
C          5.71760       -3.50060        4.44510
C          6.18550       -4.42830        5.45910
C          7.02710       -4.25510        6.54530
C          7.24500       -5.32810        7.39140
C          5.87810       -2.13590        4.28710
C          5.19610       -1.48670        3.27010
C          4.37450       -2.17820        2.36880
C          4.24930       -3.57440        2.51540
C          3.54000       -1.51670        1.40080
C          3.46300       -0.18440        1.01200
N          4.42990        0.78680        1.22150
C          5.78730        0.51880        1.01760
C          6.75390        1.28050        1.68020
C          8.09190        1.01290        1.50680
C          8.50640       -0.02700        0.67590
S         10.24790       -0.28220        0.54730
C         10.40310       -1.71920       -0.54990
C          7.55130       -0.78370        0.01190
C          6.20800       -0.51020        0.17990
C          3.99180        2.10220        1.45330
C          3.00250        2.33070        2.40880
C          2.53660        3.60630        2.63130
C          3.05260        4.68170        1.90980
S          2.37010        6.26600        2.27740
C          3.22070        7.38970        1.13410
C          4.05020        4.45840        0.96970
C          4.51360        3.17740        0.74260
C          2.26740        0.06780        0.29100
S          1.52870        1.49260       -0.34500
C          0.14910        0.54920       -0.91060
C          0.32020       -0.81470       -0.71310
N         -0.48470       -1.79800       -1.24910
C         -1.21140       -1.57200       -2.43290
C         -2.44790       -2.19560       -2.59020
C         -3.18070       -2.00890       -3.74190
C         -2.70250       -1.18460       -4.75850
S         -3.75490       -0.96630       -6.16020
C         -2.64270       -0.31120       -7.43880
C         -1.46140       -0.57930       -4.61530
C         -0.71780       -0.78500       -3.46960
C         -0.33110       -3.14230       -0.84660
C         -0.35840       -3.49910        0.49700
C         -0.13650       -4.80790        0.88610
C          0.11120       -5.78520       -0.06660
S          0.45160       -7.47120        0.32090
C          0.96420       -7.42240        2.06170
C          0.08420       -5.44050       -1.41810
C         -0.13060       -4.13760       -1.80480
C          1.50260       -1.05840        0.03220
S          2.23220       -2.46730        0.70290
C         -0.97110        1.25430       -1.45820
C         -2.30800        1.18150       -1.08500
N         -2.80520        0.42770       -0.04130
C         -2.03590        0.22260        1.11430
C         -1.16230        1.19900        1.58670
C         -0.37880        0.95470        2.69570
C         -0.44880       -0.25510        3.37490
C          0.45990       -0.54570        4.53020
C         -1.37380       -1.19690        2.94020
C         -2.15700       -0.96840        1.82440
C         -4.17830        0.10860       -0.00870
C         -4.91090        0.25920        1.16490
C         -6.25950       -0.03550        1.18310
C         -6.91470       -0.48130        0.04210
C         -8.38490       -0.76030        0.05050
C         -6.17440       -0.63470       -1.12280
C         -4.82500       -0.34520       -1.15440
C         -3.10000        2.06810       -1.85590
S         -4.77390        2.48170       -1.81850
C         -4.50900        3.71400       -3.05600
C         -3.13540        3.81950       -3.41280
N         -2.60730        4.74850       -4.26670
C         -1.46700        4.42010       -5.02120
C         -1.37880        3.17920       -5.64740
C         -0.26530        2.86340       -6.39840
C          0.78040        3.76740       -6.55010
C          1.98860        3.40180       -7.35520
C          0.67920        5.00420       -5.92590
C         -0.42760        5.33280       -5.16860
C         -3.09610        6.06920       -4.32720
C         -3.16170        6.73340       -5.54930
C         -3.65130        8.02280       -5.60520
C         -4.08620        8.67840       -4.45850
C         -4.64800       10.06350       -4.54600
C         -3.99370        8.01360       -3.24120
C         -3.49770        6.72730       -3.16770
C         -2.37280        2.84660       -2.74870
S         -0.67940        2.48210       -2.68640
C         -5.52000        4.42640       -3.68800
C         -6.87980        4.46670       -3.44910
C         -7.59650        3.78240       -2.38130
O         -7.17120        2.96350       -1.58820
C         -8.98050        4.31430       -2.41870
C        -10.02490        4.05600       -1.55150
Cl        -9.89340        2.87450       -0.32800
C        -11.20370        4.80180       -1.69170
Cl       -12.53840        4.49180       -0.66780
C        -11.26890        5.82680       -2.63220
Cl       -12.67640        6.79680       -2.71410
C        -10.19800        6.09090       -3.50270
Cl       -10.28890        7.48770       -4.49430
C         -9.07660        5.27390       -3.44640
C         -7.83040        5.24140       -4.21400
C         -7.65390        5.68600       -5.50240
C         -6.44410        5.60470       -6.22240
N         -5.50680        5.58950       -6.88810
C         -8.66880        6.11740       -6.38190
N         -9.41620        6.38690       -7.21100
H          7.79770       -7.62720        8.62690
H          5.36280       -7.71210        5.84810
H          7.50160       -3.30430        6.73490
H          7.89050       -5.20530        8.24930
H          6.49580       -1.56620        4.96480
H          5.27520       -0.41500        3.20610
H          3.62580       -4.14170        1.83990
H          6.44600        2.08000        2.33780
H          8.83610        1.60050        2.02190
H         10.00260       -1.48380       -1.53170
H          9.90100       -2.57680       -0.11160
H         11.46840       -1.91430       -0.62480
H          7.83550       -1.58830       -0.64660
H          5.48020       -1.10240       -0.35350
H          2.61190        1.49410        2.96910
H          1.77240        3.79410        3.37040
H          2.79960        8.37200        1.32460
H          4.28630        7.39990        1.34410
H          3.02050        7.09520        0.10800
H          4.47000        5.27030        0.39850
H          5.28110        3.00650        0.00240
H         -2.82810       -2.82690       -1.80130
H         -4.13900       -2.49040       -3.86220
H         -3.19690       -0.37950       -8.36990
H         -1.74960       -0.92630       -7.49320
H         -2.39930        0.72780       -7.23730
H         -1.05540        0.05110       -5.38930
H          0.25990       -0.33410       -3.38920
H         -0.54940       -2.74400        1.24180
H         -0.15080       -5.04870        1.93670
H          1.32490       -8.42140        2.28560
H          1.77240       -6.70930        2.19270
H          0.11760       -7.18920        2.70070
H          0.25810       -6.20680       -2.15750
H         -0.12300       -3.87760       -2.85300
H         -1.10380        2.15570        1.08930
H          0.28990        1.72750        3.04210
H          0.77440        0.37320        5.01990
H         -0.03070       -1.18430        5.26120
H          1.35340       -1.06660        4.17900
H         -1.47540       -2.12910        3.47820
H         -2.86430       -1.71330        1.49000
H         -4.42270        0.62040        2.05840
H         -6.81560        0.09830        2.09970
H         -8.91600        0.07630       -0.40320
H         -8.61410       -1.65360       -0.52710
H         -8.75440       -0.88890        1.06490
H         -6.66110       -0.97930       -2.02340
H         -4.26620       -0.46620       -2.06890
H         -2.19600        2.47990       -5.54320
H         -0.20190        1.90330       -6.89130
H          2.64120        2.75070       -6.77270
H          2.55350        4.28750       -7.63390
H          1.70380        2.86660       -8.25880
H          1.48020        5.72130       -6.03040
H         -0.49180        6.29610       -4.68500
H         -2.84680        6.22990       -6.44940
H         -3.71220        8.52330       -6.55970
H         -3.97790       10.71460       -5.10450
H         -5.60400       10.04640       -5.06910
H         -4.80460       10.48540       -3.55660
H         -4.30770        8.51060       -2.33490
H         -3.42720        6.22370       -2.21470
H         -5.17480        5.06920       -4.48670
