
  xtb     02112202593D
 energy: -280.225280897531 gnorm: 0.000614482208 xtb: 6.4.1 (unknown)
143156  0     0  0            999 V2000
   -3.7867   -2.0246   -8.5862 C   0  0  0  0  0  0  0  0  0  0  0  0
   -2.9395   -2.4160   -9.5711 C   0  0  0  0  0  0  0  0  0  0  0  0
   -1.9954   -3.5621   -9.5115 C   0  0  0  0  0  0  0  0  0  0  0  0
   -1.6202   -4.1730   -8.5419 O   0  0  0  0  0  0  0  0  0  0  0  0
   -1.6946   -3.8742  -10.9313 C   0  0  0  0  0  0  0  0  0  0  0  0
   -0.9660   -4.9388  -11.4352 C   0  0  0  0  0  0  0  0  0  0  0  0
   -0.1690   -6.0396  -10.4049 Cl  0  0  0  0  0  0  0  0  0  0  0  0
   -0.9005   -5.0975  -12.8276 C   0  0  0  0  0  0  0  0  0  0  0  0
    0.0113   -6.3788  -13.4956 Cl  0  0  0  0  0  0  0  0  0  0  0  0
   -1.6061   -4.2351  -13.6665 C   0  0  0  0  0  0  0  0  0  0  0  0
   -1.5791   -4.5015  -15.3549 Cl  0  0  0  0  0  0  0  0  0  0  0  0
   -2.3481   -3.1608  -13.1500 C   0  0  0  0  0  0  0  0  0  0  0  0
   -3.3114   -2.2346  -14.2243 Cl  0  0  0  0  0  0  0  0  0  0  0  0
   -2.3422   -2.9483  -11.7772 C   0  0  0  0  0  0  0  0  0  0  0  0
   -2.9557   -1.9248  -10.9417 C   0  0  0  0  0  0  0  0  0  0  0  0
   -3.2515   -0.6260  -11.2525 C   0  0  0  0  0  0  0  0  0  0  0  0
   -3.0100    0.0386  -12.4744 C   0  0  0  0  0  0  0  0  0  0  0  0
   -2.7893    0.6957  -13.3884 N   0  0  0  0  0  0  0  0  0  0  0  0
   -3.6799    0.2973  -10.2686 C   0  0  0  0  0  0  0  0  0  0  0  0
   -3.9936    1.0933   -9.5037 N   0  0  0  0  0  0  0  0  0  0  0  0
   -3.6880   -2.3004   -7.1787 C   0  0  0  0  0  0  0  0  0  0  0  0
   -2.4376   -2.3589   -6.5373 C   0  0  0  0  0  0  0  0  0  0  0  0
   -2.4081   -2.4544   -5.1683 C   0  0  0  0  0  0  0  0  0  0  0  0
   -1.2350   -2.3771   -4.2542 C   0  0  0  0  0  0  0  0  0  0  0  0
   -0.0689   -2.2824   -4.5517 O   0  0  0  0  0  0  0  0  0  0  0  0
   -1.8346   -2.3651   -2.8942 C   0  0  0  0  0  0  0  0  0  0  0  0
   -3.2352   -2.4885   -2.9958 C   0  0  0  0  0  0  0  0  0  0  0  0
   -3.5918   -2.5295   -4.4039 C   0  0  0  0  0  0  0  0  0  0  0  0
   -4.8244   -2.5026   -5.0334 C   0  0  0  0  0  0  0  0  0  0  0  0
   -4.8587   -2.3641   -6.4094 C   0  0  0  0  0  0  0  0  0  0  0  0
   -4.0158   -2.4647   -1.8551 C   0  0  0  0  0  0  0  0  0  0  0  0
   -3.4047   -2.1919   -0.6426 C   0  0  0  0  0  0  0  0  0  0  0  0
   -2.0287   -1.9592   -0.5537 C   0  0  0  0  0  0  0  0  0  0  0  0
   -1.2226   -2.1281   -1.6875 C   0  0  0  0  0  0  0  0  0  0  0  0
   -1.4541   -1.4071    0.6557 C   0  0  0  0  0  0  0  0  0  0  0  0
   -1.9458   -0.3338    1.3791 C   0  0  0  0  0  0  0  0  0  0  0  0
   -3.0886    0.3923    1.0796 N   0  0  0  0  0  0  0  0  0  0  0  0
   -3.4779    0.6093   -0.2489 C   0  0  0  0  0  0  0  0  0  0  0  0
   -4.8274    0.5693   -0.6045 C   0  0  0  0  0  0  0  0  0  0  0  0
   -5.2032    0.6876   -1.9232 C   0  0  0  0  0  0  0  0  0  0  0  0
   -4.2464    0.8411   -2.9255 C   0  0  0  0  0  0  0  0  0  0  0  0
   -4.8479    0.8895   -4.5844 S   0  0  0  0  0  0  0  0  0  0  0  0
   -3.3757    1.1895   -5.5983 C   0  0  0  0  0  0  0  0  0  0  0  0
   -2.9065    0.9317   -2.5718 C   0  0  0  0  0  0  0  0  0  0  0  0
   -2.5311    0.8275   -1.2471 C   0  0  0  0  0  0  0  0  0  0  0  0
   -3.8543    0.8999    2.1388 C   0  0  0  0  0  0  0  0  0  0  0  0
   -4.4498    2.1544    2.0469 C   0  0  0  0  0  0  0  0  0  0  0  0
   -5.1899    2.6614    3.0965 C   0  0  0  0  0  0  0  0  0  0  0  0
   -5.3401    1.9240    4.2640 C   0  0  0  0  0  0  0  0  0  0  0  0
   -6.2532    2.4666    5.6727 S   0  0  0  0  0  0  0  0  0  0  0  0
   -6.7227    4.1711    5.2633 C   0  0  0  0  0  0  0  0  0  0  0  0
   -4.7519    0.6642    4.3569 C   0  0  0  0  0  0  0  0  0  0  0  0
   -4.0223    0.1549    3.3070 C   0  0  0  0  0  0  0  0  0  0  0  0
   -1.0728   -0.0044    2.4493 C   0  0  0  0  0  0  0  0  0  0  0  0
   -1.0610    1.2388    3.6545 S   0  0  0  0  0  0  0  0  0  0  0  0
    0.4681    0.6447    4.2653 C   0  0  0  0  0  0  0  0  0  0  0  0
    0.9695   -0.4157    3.5265 C   0  0  0  0  0  0  0  0  0  0  0  0
    2.2386   -0.9500    3.7004 N   0  0  0  0  0  0  0  0  0  0  0  0
    3.3100   -0.0809    3.9577 C   0  0  0  0  0  0  0  0  0  0  0  0
    3.3794    1.1522    3.3130 C   0  0  0  0  0  0  0  0  0  0  0  0
    4.3670    2.0634    3.6278 C   0  0  0  0  0  0  0  0  0  0  0  0
    5.3132    1.7543    4.5944 C   0  0  0  0  0  0  0  0  0  0  0  0
    6.5513    2.8987    5.1338 S   0  0  0  0  0  0  0  0  0  0  0  0
    6.7220    4.0189    3.7144 C   0  0  0  0  0  0  0  0  0  0  0  0
    5.2805    0.5040    5.2078 C   0  0  0  0  0  0  0  0  0  0  0  0
    4.2941   -0.4055    4.8920 C   0  0  0  0  0  0  0  0  0  0  0  0
    2.4277   -2.3279    3.5623 C   0  0  0  0  0  0  0  0  0  0  0  0
    3.6129   -2.8379    3.0396 C   0  0  0  0  0  0  0  0  0  0  0  0
    3.7907   -4.1994    2.8931 C   0  0  0  0  0  0  0  0  0  0  0  0
    2.7786   -5.0784    3.2562 C   0  0  0  0  0  0  0  0  0  0  0  0
    2.8851   -6.8337    3.1115 S   0  0  0  0  0  0  0  0  0  0  0  0
    4.4766   -7.1111    2.2844 C   0  0  0  0  0  0  0  0  0  0  0  0
    1.5913   -4.5720    3.7815 C   0  0  0  0  0  0  0  0  0  0  0  0
    1.4184   -3.2159    3.9391 C   0  0  0  0  0  0  0  0  0  0  0  0
    0.0659   -0.7917    2.5045 C   0  0  0  0  0  0  0  0  0  0  0  0
    0.1047   -1.9625    1.2353 S   0  0  0  0  0  0  0  0  0  0  0  0
    1.1600    1.2434    5.3684 C   0  0  0  0  0  0  0  0  0  0  0  0
    1.7267    0.5254    6.4041 C   0  0  0  0  0  0  0  0  0  0  0  0
    2.5438    1.3104    7.2134 C   0  0  0  0  0  0  0  0  0  0  0  0
    3.2452    0.9279    8.2887 O   0  0  0  0  0  0  0  0  0  0  0  0
    3.1494   -0.4199    8.6955 C   0  0  0  0  0  0  0  0  0  0  0  0
    2.6529    2.6445    6.7611 C   0  0  0  0  0  0  0  0  0  0  0  0
    1.6131    2.9103    5.3828 S   0  0  0  0  0  0  0  0  0  0  0  0
    3.6036    3.5081    7.3043 C   0  0  0  0  0  0  0  0  0  0  0  0
    4.0617    4.7118    6.8290 C   0  0  0  0  0  0  0  0  0  0  0  0
    3.5892    5.3778    5.6226 C   0  0  0  0  0  0  0  0  0  0  0  0
    2.5877    5.1302    4.9763 O   0  0  0  0  0  0  0  0  0  0  0  0
    4.6099    6.4059    5.3066 C   0  0  0  0  0  0  0  0  0  0  0  0
    4.7120    7.2049    4.1819 C   0  0  0  0  0  0  0  0  0  0  0  0
    3.4804    7.2353    2.9965 Cl  0  0  0  0  0  0  0  0  0  0  0  0
    5.8708    7.9768    4.0196 C   0  0  0  0  0  0  0  0  0  0  0  0
    6.0319    8.9993    2.6575 Cl  0  0  0  0  0  0  0  0  0  0  0  0
    6.9127    7.8714    4.9390 C   0  0  0  0  0  0  0  0  0  0  0  0
    8.3627    8.7369    4.6615 Cl  0  0  0  0  0  0  0  0  0  0  0  0
    6.8057    7.0531    6.0762 C   0  0  0  0  0  0  0  0  0  0  0  0
    8.1966    6.8340    7.0546 Cl  0  0  0  0  0  0  0  0  0  0  0  0
    5.6143    6.3742    6.2964 C   0  0  0  0  0  0  0  0  0  0  0  0
    5.1820    5.4653    7.3567 C   0  0  0  0  0  0  0  0  0  0  0  0
    5.6113    5.4531    8.6567 C   0  0  0  0  0  0  0  0  0  0  0  0
    6.4364    6.4257    9.2615 C   0  0  0  0  0  0  0  0  0  0  0  0
    7.0121    7.2122    9.8673 N   0  0  0  0  0  0  0  0  0  0  0  0
    5.1398    4.5535    9.6392 C   0  0  0  0  0  0  0  0  0  0  0  0
    4.8203    3.8605   10.4968 N   0  0  0  0  0  0  0  0  0  0  0  0
   -4.6498   -1.4335   -8.8729 H   0  0  0  0  0  0  0  0  0  0  0  0
   -1.5201   -2.2630   -7.0942 H   0  0  0  0  0  0  0  0  0  0  0  0
   -5.7402   -2.5436   -4.4648 H   0  0  0  0  0  0  0  0  0  0  0  0
   -5.8131   -2.3016   -6.9116 H   0  0  0  0  0  0  0  0  0  0  0  0
   -5.0837   -2.6101   -1.9059 H   0  0  0  0  0  0  0  0  0  0  0  0
   -4.0031   -2.1324    0.2541 H   0  0  0  0  0  0  0  0  0  0  0  0
   -0.1527   -1.9949   -1.6266 H   0  0  0  0  0  0  0  0  0  0  0  0
   -5.5762    0.4252    0.1602 H   0  0  0  0  0  0  0  0  0  0  0  0
   -6.2454    0.6424   -2.1990 H   0  0  0  0  0  0  0  0  0  0  0  0
   -3.7298    1.2408   -6.6240 H   0  0  0  0  0  0  0  0  0  0  0  0
   -2.6743    0.3667   -5.4912 H   0  0  0  0  0  0  0  0  0  0  0  0
   -2.9233    2.1360   -5.3176 H   0  0  0  0  0  0  0  0  0  0  0  0
   -2.1429    1.0805   -3.3182 H   0  0  0  0  0  0  0  0  0  0  0  0
   -1.4862    0.9010   -0.9852 H   0  0  0  0  0  0  0  0  0  0  0  0
   -4.3264    2.7372    1.1463 H   0  0  0  0  0  0  0  0  0  0  0  0
   -5.6361    3.6370    2.9926 H   0  0  0  0  0  0  0  0  0  0  0  0
   -7.2348    4.5508    6.1418 H   0  0  0  0  0  0  0  0  0  0  0  0
   -5.8324    4.7622    5.0706 H   0  0  0  0  0  0  0  0  0  0  0  0
   -7.3977    4.1803    4.4124 H   0  0  0  0  0  0  0  0  0  0  0  0
   -4.8810    0.0902    5.2614 H   0  0  0  0  0  0  0  0  0  0  0  0
   -3.5800   -0.8275    3.3840 H   0  0  0  0  0  0  0  0  0  0  0  0
    2.6389    1.4087    2.5705 H   0  0  0  0  0  0  0  0  0  0  0  0
    4.3726    3.0177    3.1271 H   0  0  0  0  0  0  0  0  0  0  0  0
    5.8464    4.6543    3.6201 H   0  0  0  0  0  0  0  0  0  0  0  0
    7.5937    4.6309    3.9241 H   0  0  0  0  0  0  0  0  0  0  0  0
    6.8831    3.4346    2.8138 H   0  0  0  0  0  0  0  0  0  0  0  0
    6.0278    0.2633    5.9479 H   0  0  0  0  0  0  0  0  0  0  0  0
    4.2714   -1.3717    5.3745 H   0  0  0  0  0  0  0  0  0  0  0  0
    4.3982   -2.1603    2.7395 H   0  0  0  0  0  0  0  0  0  0  0  0
    4.7211   -4.5588    2.4846 H   0  0  0  0  0  0  0  0  0  0  0  0
    5.2922   -6.7772    2.9193 H   0  0  0  0  0  0  0  0  0  0  0  0
    4.4870   -6.6038    1.3243 H   0  0  0  0  0  0  0  0  0  0  0  0
    4.5435   -8.1843    2.1352 H   0  0  0  0  0  0  0  0  0  0  0  0
    0.8103   -5.2587    4.0695 H   0  0  0  0  0  0  0  0  0  0  0  0
    0.4995   -2.8347    4.3595 H   0  0  0  0  0  0  0  0  0  0  0  0
    1.5444   -0.5245    6.5451 H   0  0  0  0  0  0  0  0  0  0  0  0
    2.1204   -0.6833    8.9558 H   0  0  0  0  0  0  0  0  0  0  0  0
    3.7808   -0.5049    9.5776 H   0  0  0  0  0  0  0  0  0  0  0  0
    3.5136   -1.0944    7.9155 H   0  0  0  0  0  0  0  0  0  0  0  0
    4.1175    3.0810    8.1570 H   0  0  0  0  0  0  0  0  0  0  0  0
  1  2  2  0  0  0  0
  2  3  1  0  0  0  0
  3  4  2  0  0  0  0
  3  5  1  0  0  0  0
  5  6  2  0  0  0  0
  6  7  1  0  0  0  0
  6  8  1  0  0  0  0
  8  9  1  0  0  0  0
  8 10  2  0  0  0  0
 10 11  1  0  0  0  0
 10 12  1  0  0  0  0
 12 13  1  0  0  0  0
 12 14  2  0  0  0  0
 14 15  1  0  0  0  0
 15 16  2  0  0  0  0
 16 17  1  0  0  0  0
 17 18  3  0  0  0  0
 16 19  1  0  0  0  0
 19 20  3  0  0  0  0
  1 21  1  0  0  0  0
 21 22  2  0  0  0  0
 22 23  1  0  0  0  0
 23 24  1  0  0  0  0
 24 25  2  0  0  0  0
 24 26  1  0  0  0  0
 26 27  2  0  0  0  0
 27 28  1  0  0  0  0
 28 29  1  0  0  0  0
 29 30  2  0  0  0  0
 27 31  1  0  0  0  0
 31 32  2  0  0  0  0
 32 33  1  0  0  0  0
 33 34  2  0  0  0  0
 33 35  1  0  0  0  0
 35 36  2  0  0  0  0
 36 37  1  0  0  0  0
 37 38  1  0  0  0  0
 38 39  2  0  0  0  0
 39 40  1  0  0  0  0
 40 41  2  0  0  0  0
 41 42  1  0  0  0  0
 42 43  1  0  0  0  0
 41 44  1  0  0  0  0
 44 45  2  0  0  0  0
 37 46  1  0  0  0  0
 46 47  2  0  0  0  0
 47 48  1  0  0  0  0
 48 49  2  0  0  0  0
 49 50  1  0  0  0  0
 50 51  1  0  0  0  0
 49 52  1  0  0  0  0
 52 53  2  0  0  0  0
 36 54  1  0  0  0  0
 54 55  1  0  0  0  0
 55 56  1  0  0  0  0
 56 57  2  0  0  0  0
 57 58  1  0  0  0  0
 58 59  1  0  0  0  0
 59 60  2  0  0  0  0
 60 61  1  0  0  0  0
 61 62  2  0  0  0  0
 62 63  1  0  0  0  0
 63 64  1  0  0  0  0
 62 65  1  0  0  0  0
 65 66  2  0  0  0  0
 58 67  1  0  0  0  0
 67 68  2  0  0  0  0
 68 69  1  0  0  0  0
 69 70  2  0  0  0  0
 70 71  1  0  0  0  0
 71 72  1  0  0  0  0
 70 73  1  0  0  0  0
 73 74  2  0  0  0  0
 57 75  1  0  0  0  0
 75 76  1  0  0  0  0
 56 77  1  0  0  0  0
 77 78  2  0  0  0  0
 78 79  1  0  0  0  0
 79 80  1  0  0  0  0
 80 81  1  0  0  0  0
 79 82  2  0  0  0  0
 82 83  1  0  0  0  0
 82 84  1  0  0  0  0
 84 85  2  0  0  0  0
 85 86  1  0  0  0  0
 86 87  2  0  0  0  0
 86 88  1  0  0  0  0
 88 89  2  0  0  0  0
 89 90  1  0  0  0  0
 89 91  1  0  0  0  0
 91 92  1  0  0  0  0
 91 93  2  0  0  0  0
 93 94  1  0  0  0  0
 93 95  1  0  0  0  0
 95 96  1  0  0  0  0
 95 97  2  0  0  0  0
 97 98  1  0  0  0  0
 98 99  2  0  0  0  0
 99100  1  0  0  0  0
100101  3  0  0  0  0
 99102  1  0  0  0  0
102103  3  0  0  0  0
 15  2  1  0  0  0  0
 30 21  1  0  0  0  0
 76 35  1  0  0  0  0
 83 77  1  0  0  0  0
 98 85  1  0  0  0  0
 14  5  1  0  0  0  0
 28 23  2  0  0  0  0
 45 38  1  0  0  0  0
 53 46  1  0  0  0  0
 75 54  2  0  0  0  0
 97 88  1  0  0  0  0
 34 26  1  0  0  0  0
 66 59  1  0  0  0  0
 74 67  1  0  0  0  0
  1104  1  0  0  0  0
 22105  1  0  0  0  0
 29106  1  0  0  0  0
 30107  1  0  0  0  0
 31108  1  0  0  0  0
 32109  1  0  0  0  0
 34110  1  0  0  0  0
 39111  1  0  0  0  0
 40112  1  0  0  0  0
 43113  1  0  0  0  0
 43114  1  0  0  0  0
 43115  1  0  0  0  0
 44116  1  0  0  0  0
 45117  1  0  0  0  0
 47118  1  0  0  0  0
 48119  1  0  0  0  0
 51120  1  0  0  0  0
 51121  1  0  0  0  0
 51122  1  0  0  0  0
 52123  1  0  0  0  0
 53124  1  0  0  0  0
 60125  1  0  0  0  0
 61126  1  0  0  0  0
 64127  1  0  0  0  0
 64128  1  0  0  0  0
 64129  1  0  0  0  0
 65130  1  0  0  0  0
 66131  1  0  0  0  0
 68132  1  0  0  0  0
 69133  1  0  0  0  0
 72134  1  0  0  0  0
 72135  1  0  0  0  0
 72136  1  0  0  0  0
 73137  1  0  0  0  0
 74138  1  0  0  0  0
 78139  1  0  0  0  0
 81140  1  0  0  0  0
 81141  1  0  0  0  0
 81142  1  0  0  0  0
 84143  1  0  0  0  0
M  END
