
  xtb     02122202403D
 energy: -378.852116155810 gnorm: 0.000447139140 xtb: 6.4.1 (unknown)
201218  0     0  0            999 V2000
    1.5792    2.1135    8.9357 C   0  0  0  0  0  0  0  0  0  0  0  0
    1.6638    0.8943    9.5521 C   0  0  0  0  0  0  0  0  0  0  0  0
    1.4397    0.7620   11.0078 C   0  0  0  0  0  0  0  0  0  0  0  0
    1.3800    1.6509   11.8221 O   0  0  0  0  0  0  0  0  0  0  0  0
    1.2268   -0.6932   11.2279 C   0  0  0  0  0  0  0  0  0  0  0  0
    0.8273   -1.3488   12.3788 C   0  0  0  0  0  0  0  0  0  0  0  0
    0.6505   -0.5185   13.8587 Cl  0  0  0  0  0  0  0  0  0  0  0  0
    0.5616   -2.7250   12.3015 C   0  0  0  0  0  0  0  0  0  0  0  0
    0.0895   -3.5801   13.7047 Cl  0  0  0  0  0  0  0  0  0  0  0  0
    0.6452   -3.3885   11.0788 C   0  0  0  0  0  0  0  0  0  0  0  0
    0.2288   -5.0456   10.9916 Cl  0  0  0  0  0  0  0  0  0  0  0  0
    1.0534   -2.7178    9.9152 C   0  0  0  0  0  0  0  0  0  0  0  0
    0.9899   -3.5479    8.4155 Cl  0  0  0  0  0  0  0  0  0  0  0  0
    1.3995   -1.3783   10.0069 C   0  0  0  0  0  0  0  0  0  0  0  0
    1.9079   -0.4280    9.0189 C   0  0  0  0  0  0  0  0  0  0  0  0
    2.7708   -0.7069    7.9882 C   0  0  0  0  0  0  0  0  0  0  0  0
    3.4402    0.2979    7.2521 C   0  0  0  0  0  0  0  0  0  0  0  0
    4.0414    1.0647    6.6452 N   0  0  0  0  0  0  0  0  0  0  0  0
    3.2623   -1.9658    7.5998 C   0  0  0  0  0  0  0  0  0  0  0  0
    3.7782   -2.9150    7.2074 N   0  0  0  0  0  0  0  0  0  0  0  0
    1.3949    2.3507    7.5653 C   0  0  0  0  0  0  0  0  0  0  0  0
    0.7512    1.1512    6.4667 S   0  0  0  0  0  0  0  0  0  0  0  0
    0.9736    2.1589    5.0592 C   0  0  0  0  0  0  0  0  0  0  0  0
    1.5230    3.3616    5.4418 C   0  0  0  0  0  0  0  0  0  0  0  0
    2.1404    4.7213    4.5574 S   0  0  0  0  0  0  0  0  0  0  0  0
    2.4815    5.5533    6.0503 C   0  0  0  0  0  0  0  0  0  0  0  0
    2.9063    6.9581    6.0017 C   0  0  0  0  0  0  0  0  0  0  0  0
    3.0386    7.6717    6.9628 O   0  0  0  0  0  0  0  0  0  0  0  0
    3.0827    7.3395    4.7350 O   0  0  0  0  0  0  0  0  0  0  0  0
    3.4077    8.7154    4.5298 C   0  0  0  0  0  0  0  0  0  0  0  0
    3.6286    8.9357    3.0464 C   0  0  0  0  0  0  0  0  0  0  0  0
    2.2239    4.7840    7.1543 C   0  0  0  0  0  0  0  0  0  0  0  0
    1.6989    3.5078    6.8435 C   0  0  0  0  0  0  0  0  0  0  0  0
    2.4005    5.1993    8.4061 F   0  0  0  0  0  0  0  0  0  0  0  0
    0.6795    1.6054    3.7752 C   0  0  0  0  0  0  0  0  0  0  0  0
   -0.2104    1.9822    2.7807 C   0  0  0  0  0  0  0  0  0  0  0  0
   -1.1424    2.9940    2.8156 N   0  0  0  0  0  0  0  0  0  0  0  0
   -0.9185    4.2216    3.5008 C   0  0  0  0  0  0  0  0  0  0  0  0
   -1.2708    4.3610    4.8353 C   0  0  0  0  0  0  0  0  0  0  0  0
   -1.0674    5.5618    5.4918 C   0  0  0  0  0  0  0  0  0  0  0  0
   -0.5399    6.6479    4.8033 C   0  0  0  0  0  0  0  0  0  0  0  0
   -0.2112    8.2159    5.5316 S   0  0  0  0  0  0  0  0  0  0  0  0
   -0.4135    7.9444    7.3116 C   0  0  0  0  0  0  0  0  0  0  0  0
   -0.2322    6.5194    3.4488 C   0  0  0  0  0  0  0  0  0  0  0  0
   -0.4062    5.3131    2.8062 C   0  0  0  0  0  0  0  0  0  0  0  0
   -2.4211    2.7879    2.2771 C   0  0  0  0  0  0  0  0  0  0  0  0
   -3.0095    1.5237    2.2970 C   0  0  0  0  0  0  0  0  0  0  0  0
   -4.2718    1.3207    1.7771 C   0  0  0  0  0  0  0  0  0  0  0  0
   -4.9854    2.3884    1.2517 C   0  0  0  0  0  0  0  0  0  0  0  0
   -6.6099    2.2301    0.5805 S   0  0  0  0  0  0  0  0  0  0  0  0
   -7.2405    0.7233    1.3782 C   0  0  0  0  0  0  0  0  0  0  0  0
   -4.4121    3.6569    1.2444 C   0  0  0  0  0  0  0  0  0  0  0  0
   -3.1467    3.8565    1.7497 C   0  0  0  0  0  0  0  0  0  0  0  0
   -0.1139    1.0874    1.6791 C   0  0  0  0  0  0  0  0  0  0  0  0
   -0.8590    1.0338    0.1224 S   0  0  0  0  0  0  0  0  0  0  0  0
    0.0733   -0.4082   -0.2967 C   0  0  0  0  0  0  0  0  0  0  0  0
    0.8491   -0.8662    0.7596 C   0  0  0  0  0  0  0  0  0  0  0  0
    1.5655   -2.0434    0.8472 N   0  0  0  0  0  0  0  0  0  0  0  0
    1.0874   -3.2773    0.4038 C   0  0  0  0  0  0  0  0  0  0  0  0
   -0.2244   -3.4529   -0.0304 C   0  0  0  0  0  0  0  0  0  0  0  0
   -0.6685   -4.6807   -0.4823 C   0  0  0  0  0  0  0  0  0  0  0  0
    0.1831   -5.7751   -0.4872 C   0  0  0  0  0  0  0  0  0  0  0  0
   -0.2579   -7.3816   -1.0621 S   0  0  0  0  0  0  0  0  0  0  0  0
   -1.9170   -7.1510   -1.7640 C   0  0  0  0  0  0  0  0  0  0  0  0
    1.4831   -5.6189   -0.0096 C   0  0  0  0  0  0  0  0  0  0  0  0
    1.9320   -4.3921    0.4175 C   0  0  0  0  0  0  0  0  0  0  0  0
    2.7119   -1.9837    1.6782 C   0  0  0  0  0  0  0  0  0  0  0  0
    3.7163   -1.0647    1.3775 C   0  0  0  0  0  0  0  0  0  0  0  0
    4.8297   -0.9717    2.1816 C   0  0  0  0  0  0  0  0  0  0  0  0
    4.9639   -1.7897    3.3040 C   0  0  0  0  0  0  0  0  0  0  0  0
    6.4321   -1.5882    4.2492 S   0  0  0  0  0  0  0  0  0  0  0  0
    6.4368   -3.0158    5.3684 C   0  0  0  0  0  0  0  0  0  0  0  0
    3.9538   -2.6930    3.6168 C   0  0  0  0  0  0  0  0  0  0  0  0
    2.8379   -2.7864    2.8085 C   0  0  0  0  0  0  0  0  0  0  0  0
    0.7663    0.0367    1.8559 C   0  0  0  0  0  0  0  0  0  0  0  0
    1.5456    0.1152    3.3911 S   0  0  0  0  0  0  0  0  0  0  0  0
   -0.0192   -0.8322   -1.6569 C   0  0  0  0  0  0  0  0  0  0  0  0
    0.9650   -1.3078   -2.5041 C   0  0  0  0  0  0  0  0  0  0  0  0
    2.3044   -1.5611   -2.1439 N   0  0  0  0  0  0  0  0  0  0  0  0
    2.7851   -2.8712   -2.2178 C   0  0  0  0  0  0  0  0  0  0  0  0
    4.0303   -3.1772   -1.6665 C   0  0  0  0  0  0  0  0  0  0  0  0
    4.5372   -4.4595   -1.7140 C   0  0  0  0  0  0  0  0  0  0  0  0
    3.8027   -5.4780   -2.3057 C   0  0  0  0  0  0  0  0  0  0  0  0
    4.3344   -7.1561   -2.4243 S   0  0  0  0  0  0  0  0  0  0  0  0
    6.0136   -7.1329   -1.7340 C   0  0  0  0  0  0  0  0  0  0  0  0
    2.5412   -5.1903   -2.8187 C   0  0  0  0  0  0  0  0  0  0  0  0
    2.0352   -3.9112   -2.7702 C   0  0  0  0  0  0  0  0  0  0  0  0
    3.1874   -0.4686   -2.2884 C   0  0  0  0  0  0  0  0  0  0  0  0
    2.8921    0.7569   -1.6988 C   0  0  0  0  0  0  0  0  0  0  0  0
    3.7546    1.8317   -1.8165 C   0  0  0  0  0  0  0  0  0  0  0  0
    4.9320    1.7041   -2.5381 C   0  0  0  0  0  0  0  0  0  0  0  0
    6.1215    2.9906   -2.7428 S   0  0  0  0  0  0  0  0  0  0  0  0
    5.4669    4.3564   -1.7419 C   0  0  0  0  0  0  0  0  0  0  0  0
    5.2130    0.4915   -3.1667 C   0  0  0  0  0  0  0  0  0  0  0  0
    4.3524   -0.5756   -3.0510 C   0  0  0  0  0  0  0  0  0  0  0  0
    0.4871   -1.4153   -3.8279 C   0  0  0  0  0  0  0  0  0  0  0  0
    1.2438   -1.7969   -5.3283 S   0  0  0  0  0  0  0  0  0  0  0  0
   -0.2816   -1.5369   -6.1944 C   0  0  0  0  0  0  0  0  0  0  0  0
   -1.3042   -1.0762   -5.3294 C   0  0  0  0  0  0  0  0  0  0  0  0
   -2.5388   -0.6103   -5.6773 N   0  0  0  0  0  0  0  0  0  0  0  0
   -2.8235   -0.0230   -6.9143 C   0  0  0  0  0  0  0  0  0  0  0  0
   -4.0713   -0.2365   -7.5092 C   0  0  0  0  0  0  0  0  0  0  0  0
   -4.3618    0.3164   -8.7343 C   0  0  0  0  0  0  0  0  0  0  0  0
   -3.4226    1.1056   -9.4001 C   0  0  0  0  0  0  0  0  0  0  0  0
   -3.9002    1.7217  -10.9731 S   0  0  0  0  0  0  0  0  0  0  0  0
   -2.5724    2.8656  -11.4413 C   0  0  0  0  0  0  0  0  0  0  0  0
   -2.1921    1.3474   -8.7959 C   0  0  0  0  0  0  0  0  0  0  0  0
   -1.8977    0.7876   -7.5692 C   0  0  0  0  0  0  0  0  0  0  0  0
   -3.5832   -0.6971   -4.7312 C   0  0  0  0  0  0  0  0  0  0  0  0
   -4.4093    0.3973   -4.5001 C   0  0  0  0  0  0  0  0  0  0  0  0
   -5.4470    0.3114   -3.5928 C   0  0  0  0  0  0  0  0  0  0  0  0
   -5.6742   -0.8780   -2.9125 C   0  0  0  0  0  0  0  0  0  0  0  0
   -6.9846   -1.0995   -1.7558 S   0  0  0  0  0  0  0  0  0  0  0  0
   -8.1256    0.2601   -2.1395 C   0  0  0  0  0  0  0  0  0  0  0  0
   -4.8409   -1.9728   -3.1369 C   0  0  0  0  0  0  0  0  0  0  0  0
   -3.8041   -1.8860   -4.0377 C   0  0  0  0  0  0  0  0  0  0  0  0
   -0.8432   -1.0537   -3.9949 C   0  0  0  0  0  0  0  0  0  0  0  0
   -1.5380   -0.5484   -2.4909 S   0  0  0  0  0  0  0  0  0  0  0  0
   -0.2621   -1.7799   -7.5636 C   0  0  0  0  0  0  0  0  0  0  0  0
   -1.3648   -2.0127   -8.3687 C   0  0  0  0  0  0  0  0  0  0  0  0
   -2.6108   -2.5967   -7.8792 C   0  0  0  0  0  0  0  0  0  0  0  0
   -2.8613   -2.9655   -6.7471 O   0  0  0  0  0  0  0  0  0  0  0  0
   -3.4519   -2.7965   -9.0861 C   0  0  0  0  0  0  0  0  0  0  0  0
   -4.7286   -3.3146   -9.1705 C   0  0  0  0  0  0  0  0  0  0  0  0
   -5.6179   -3.7107   -7.7665 Cl  0  0  0  0  0  0  0  0  0  0  0  0
   -5.2948   -3.4906  -10.4402 C   0  0  0  0  0  0  0  0  0  0  0  0
   -6.8926   -4.0833  -10.5898 Cl  0  0  0  0  0  0  0  0  0  0  0  0
   -4.5452   -3.2114  -11.5796 C   0  0  0  0  0  0  0  0  0  0  0  0
   -5.2214   -3.5134  -13.1222 Cl  0  0  0  0  0  0  0  0  0  0  0  0
   -3.2429   -2.6920  -11.4870 C   0  0  0  0  0  0  0  0  0  0  0  0
   -2.3348   -2.5165  -12.9303 Cl  0  0  0  0  0  0  0  0  0  0  0  0
   -2.7204   -2.4216  -10.2307 C   0  0  0  0  0  0  0  0  0  0  0  0
   -1.4641   -1.8169   -9.7874 C   0  0  0  0  0  0  0  0  0  0  0  0
   -0.6471   -0.9601  -10.4857 C   0  0  0  0  0  0  0  0  0  0  0  0
   -0.8513   -0.4042  -11.7620 C   0  0  0  0  0  0  0  0  0  0  0  0
   -0.9338    0.2172  -12.7254 N   0  0  0  0  0  0  0  0  0  0  0  0
    0.4566   -0.3097   -9.8908 C   0  0  0  0  0  0  0  0  0  0  0  0
    1.3450    0.2921   -9.4804 N   0  0  0  0  0  0  0  0  0  0  0  0
    1.6096    2.9825    9.5842 H   0  0  0  0  0  0  0  0  0  0  0  0
    2.5779    9.3255    4.9051 H   0  0  0  0  0  0  0  0  0  0  0  0
    4.3037    8.9580    5.1115 H   0  0  0  0  0  0  0  0  0  0  0  0
    4.4463    8.3140    2.6918 H   0  0  0  0  0  0  0  0  0  0  0  0
    2.7299    8.6766    2.4934 H   0  0  0  0  0  0  0  0  0  0  0  0
    3.8693    9.9789    2.8657 H   0  0  0  0  0  0  0  0  0  0  0  0
   -1.6983    3.5230    5.3664 H   0  0  0  0  0  0  0  0  0  0  0  0
   -1.3286    5.6398    6.5350 H   0  0  0  0  0  0  0  0  0  0  0  0
   -1.4509    7.7220    7.5441 H   0  0  0  0  0  0  0  0  0  0  0  0
   -0.1224    8.8798    7.7795 H   0  0  0  0  0  0  0  0  0  0  0  0
    0.2537    7.1552    7.6445 H   0  0  0  0  0  0  0  0  0  0  0  0
    0.1616    7.3726    2.9193 H   0  0  0  0  0  0  0  0  0  0  0  0
   -0.1413    5.2052    1.7653 H   0  0  0  0  0  0  0  0  0  0  0  0
   -2.4800    0.6901    2.7342 H   0  0  0  0  0  0  0  0  0  0  0  0
   -4.6909    0.3273    1.7932 H   0  0  0  0  0  0  0  0  0  0  0  0
   -7.0188    0.7628    2.4401 H   0  0  0  0  0  0  0  0  0  0  0  0
   -8.3148    0.7328    1.2235 H   0  0  0  0  0  0  0  0  0  0  0  0
   -6.8123   -0.1601    0.9134 H   0  0  0  0  0  0  0  0  0  0  0  0
   -4.9716    4.4855    0.8385 H   0  0  0  0  0  0  0  0  0  0  0  0
   -2.7197    4.8470    1.7437 H   0  0  0  0  0  0  0  0  0  0  0  0
   -0.9255   -2.6341   -0.0027 H   0  0  0  0  0  0  0  0  0  0  0  0
   -1.6900   -4.7652   -0.8170 H   0  0  0  0  0  0  0  0  0  0  0  0
   -1.8882   -6.3899   -2.5381 H   0  0  0  0  0  0  0  0  0  0  0  0
   -2.1855   -8.1087   -2.1987 H   0  0  0  0  0  0  0  0  0  0  0  0
   -2.6238   -6.8928   -0.9807 H   0  0  0  0  0  0  0  0  0  0  0  0
    2.1397   -6.4746    0.0082 H   0  0  0  0  0  0  0  0  0  0  0  0
    2.9503   -4.2903    0.7558 H   0  0  0  0  0  0  0  0  0  0  0  0
    3.6149   -0.4301    0.5092 H   0  0  0  0  0  0  0  0  0  0  0  0
    5.6134   -0.2671    1.9502 H   0  0  0  0  0  0  0  0  0  0  0  0
    5.6207   -2.9436    6.0827 H   0  0  0  0  0  0  0  0  0  0  0  0
    7.3878   -2.9713    5.8901 H   0  0  0  0  0  0  0  0  0  0  0  0
    6.3741   -3.9316    4.7881 H   0  0  0  0  0  0  0  0  0  0  0  0
    4.0147   -3.3098    4.4985 H   0  0  0  0  0  0  0  0  0  0  0  0
    2.0500   -3.4809    3.0601 H   0  0  0  0  0  0  0  0  0  0  0  0
    4.6061   -2.4014   -1.1845 H   0  0  0  0  0  0  0  0  0  0  0  0
    5.5038   -4.6484   -1.2753 H   0  0  0  0  0  0  0  0  0  0  0  0
    6.3856   -8.1475   -1.8375 H   0  0  0  0  0  0  0  0  0  0  0  0
    5.9825   -6.8582   -0.6837 H   0  0  0  0  0  0  0  0  0  0  0  0
    6.6386   -6.4508   -2.3027 H   0  0  0  0  0  0  0  0  0  0  0  0
    1.9602   -5.9868   -3.2571 H   0  0  0  0  0  0  0  0  0  0  0  0
    1.0448   -3.7317   -3.1554 H   0  0  0  0  0  0  0  0  0  0  0  0
    1.9790    0.8825   -1.1392 H   0  0  0  0  0  0  0  0  0  0  0  0
    3.4905    2.7594   -1.3349 H   0  0  0  0  0  0  0  0  0  0  0  0
    4.5183    4.6958   -2.1479 H   0  0  0  0  0  0  0  0  0  0  0  0
    6.2035    5.1503   -1.8168 H   0  0  0  0  0  0  0  0  0  0  0  0
    5.3663    4.0433   -0.7068 H   0  0  0  0  0  0  0  0  0  0  0  0
    6.1121    0.4027   -3.7566 H   0  0  0  0  0  0  0  0  0  0  0  0
    4.5739   -1.5002   -3.5615 H   0  0  0  0  0  0  0  0  0  0  0  0
   -4.8016   -0.8498   -7.0043 H   0  0  0  0  0  0  0  0  0  0  0  0
   -5.3187    0.1384   -9.1998 H   0  0  0  0  0  0  0  0  0  0  0  0
   -2.4182    3.5931  -10.6503 H   0  0  0  0  0  0  0  0  0  0  0  0
   -1.6653    2.3134  -11.6683 H   0  0  0  0  0  0  0  0  0  0  0  0
   -2.9276    3.3629  -12.3384 H   0  0  0  0  0  0  0  0  0  0  0  0
   -1.4497    1.9650   -9.2755 H   0  0  0  0  0  0  0  0  0  0  0  0
   -0.9377    0.9864   -7.1168 H   0  0  0  0  0  0  0  0  0  0  0  0
   -4.2353    1.3211   -5.0320 H   0  0  0  0  0  0  0  0  0  0  0  0
   -6.0641    1.1777   -3.4184 H   0  0  0  0  0  0  0  0  0  0  0  0
   -8.3065    0.2847   -3.2095 H   0  0  0  0  0  0  0  0  0  0  0  0
   -7.7247    1.2035   -1.7798 H   0  0  0  0  0  0  0  0  0  0  0  0
   -9.0469    0.0284   -1.6142 H   0  0  0  0  0  0  0  0  0  0  0  0
   -5.0326   -2.8948   -2.6099 H   0  0  0  0  0  0  0  0  0  0  0  0
   -3.1840   -2.7420   -4.2510 H   0  0  0  0  0  0  0  0  0  0  0  0
    0.7215   -1.8328   -8.0141 H   0  0  0  0  0  0  0  0  0  0  0  0
  1  2  2  0  0  0  0
  2  3  1  0  0  0  0
  3  4  2  0  0  0  0
  3  5  1  0  0  0  0
  5  6  2  0  0  0  0
  6  7  1  0  0  0  0
  6  8  1  0  0  0  0
  8  9  1  0  0  0  0
  8 10  2  0  0  0  0
 10 11  1  0  0  0  0
 10 12  1  0  0  0  0
 12 13  1  0  0  0  0
 12 14  2  0  0  0  0
 14 15  1  0  0  0  0
 15 16  2  0  0  0  0
 16 17  1  0  0  0  0
 17 18  3  0  0  0  0
 16 19  1  0  0  0  0
 19 20  3  0  0  0  0
  1 21  1  0  0  0  0
 21 22  1  0  0  0  0
 22 23  1  0  0  0  0
 23 24  2  0  0  0  0
 24 25  1  0  0  0  0
 25 26  1  0  0  0  0
 26 27  1  0  0  0  0
 27 28  2  0  0  0  0
 27 29  1  0  0  0  0
 29 30  1  0  0  0  0
 30 31  1  0  0  0  0
 26 32  2  0  0  0  0
 32 33  1  0  0  0  0
 32 34  1  0  0  0  0
 23 35  1  0  0  0  0
 35 36  2  0  0  0  0
 36 37  1  0  0  0  0
 37 38  1  0  0  0  0
 38 39  2  0  0  0  0
 39 40  1  0  0  0  0
 40 41  2  0  0  0  0
 41 42  1  0  0  0  0
 42 43  1  0  0  0  0
 41 44  1  0  0  0  0
 44 45  2  0  0  0  0
 37 46  1  0  0  0  0
 46 47  2  0  0  0  0
 47 48  1  0  0  0  0
 48 49  2  0  0  0  0
 49 50  1  0  0  0  0
 50 51  1  0  0  0  0
 49 52  1  0  0  0  0
 52 53  2  0  0  0  0
 36 54  1  0  0  0  0
 54 55  1  0  0  0  0
 55 56  1  0  0  0  0
 56 57  2  0  0  0  0
 57 58  1  0  0  0  0
 58 59  1  0  0  0  0
 59 60  2  0  0  0  0
 60 61  1  0  0  0  0
 61 62  2  0  0  0  0
 62 63  1  0  0  0  0
 63 64  1  0  0  0  0
 62 65  1  0  0  0  0
 65 66  2  0  0  0  0
 58 67  1  0  0  0  0
 67 68  2  0  0  0  0
 68 69  1  0  0  0  0
 69 70  2  0  0  0  0
 70 71  1  0  0  0  0
 71 72  1  0  0  0  0
 70 73  1  0  0  0  0
 73 74  2  0  0  0  0
 57 75  1  0  0  0  0
 75 76  1  0  0  0  0
 56 77  1  0  0  0  0
 77 78  2  0  0  0  0
 78 79  1  0  0  0  0
 79 80  1  0  0  0  0
 80 81  2  0  0  0  0
 81 82  1  0  0  0  0
 82 83  2  0  0  0  0
 83 84  1  0  0  0  0
 84 85  1  0  0  0  0
 83 86  1  0  0  0  0
 86 87  2  0  0  0  0
 79 88  1  0  0  0  0
 88 89  2  0  0  0  0
 89 90  1  0  0  0  0
 90 91  2  0  0  0  0
 91 92  1  0  0  0  0
 92 93  1  0  0  0  0
 91 94  1  0  0  0  0
 94 95  2  0  0  0  0
 78 96  1  0  0  0  0
 96 97  1  0  0  0  0
 97 98  1  0  0  0  0
 98 99  2  0  0  0  0
 99100  1  0  0  0  0
100101  1  0  0  0  0
101102  2  0  0  0  0
102103  1  0  0  0  0
103104  2  0  0  0  0
104105  1  0  0  0  0
105106  1  0  0  0  0
104107  1  0  0  0  0
107108  2  0  0  0  0
100109  1  0  0  0  0
109110  2  0  0  0  0
110111  1  0  0  0  0
111112  2  0  0  0  0
112113  1  0  0  0  0
113114  1  0  0  0  0
112115  1  0  0  0  0
115116  2  0  0  0  0
 99117  1  0  0  0  0
117118  1  0  0  0  0
 98119  1  0  0  0  0
119120  2  0  0  0  0
120121  1  0  0  0  0
121122  2  0  0  0  0
121123  1  0  0  0  0
123124  2  0  0  0  0
124125  1  0  0  0  0
124126  1  0  0  0  0
126127  1  0  0  0  0
126128  2  0  0  0  0
128129  1  0  0  0  0
128130  1  0  0  0  0
130131  1  0  0  0  0
130132  2  0  0  0  0
132133  1  0  0  0  0
133134  2  0  0  0  0
134135  1  0  0  0  0
135136  3  0  0  0  0
134137  1  0  0  0  0
137138  3  0  0  0  0
 15  2  1  0  0  0  0
 33 21  2  0  0  0  0
 76 35  1  0  0  0  0
118 77  1  0  0  0  0
133120  1  0  0  0  0
 14  5  1  0  0  0  0
 33 24  1  0  0  0  0
 45 38  1  0  0  0  0
 53 46  1  0  0  0  0
 75 54  2  0  0  0  0
 87 80  1  0  0  0  0
 95 88  1  0  0  0  0
117 96  2  0  0  0  0
132123  1  0  0  0  0
 66 59  1  0  0  0  0
 74 67  1  0  0  0  0
108101  1  0  0  0  0
116109  1  0  0  0  0
  1139  1  0  0  0  0
 30140  1  0  0  0  0
 30141  1  0  0  0  0
 31142  1  0  0  0  0
 31143  1  0  0  0  0
 31144  1  0  0  0  0
 39145  1  0  0  0  0
 40146  1  0  0  0  0
 43147  1  0  0  0  0
 43148  1  0  0  0  0
 43149  1  0  0  0  0
 44150  1  0  0  0  0
 45151  1  0  0  0  0
 47152  1  0  0  0  0
 48153  1  0  0  0  0
 51154  1  0  0  0  0
 51155  1  0  0  0  0
 51156  1  0  0  0  0
 52157  1  0  0  0  0
 53158  1  0  0  0  0
 60159  1  0  0  0  0
 61160  1  0  0  0  0
 64161  1  0  0  0  0
 64162  1  0  0  0  0
 64163  1  0  0  0  0
 65164  1  0  0  0  0
 66165  1  0  0  0  0
 68166  1  0  0  0  0
 69167  1  0  0  0  0
 72168  1  0  0  0  0
 72169  1  0  0  0  0
 72170  1  0  0  0  0
 73171  1  0  0  0  0
 74172  1  0  0  0  0
 81173  1  0  0  0  0
 82174  1  0  0  0  0
 85175  1  0  0  0  0
 85176  1  0  0  0  0
 85177  1  0  0  0  0
 86178  1  0  0  0  0
 87179  1  0  0  0  0
 89180  1  0  0  0  0
 90181  1  0  0  0  0
 93182  1  0  0  0  0
 93183  1  0  0  0  0
 93184  1  0  0  0  0
 94185  1  0  0  0  0
 95186  1  0  0  0  0
102187  1  0  0  0  0
103188  1  0  0  0  0
106189  1  0  0  0  0
106190  1  0  0  0  0
106191  1  0  0  0  0
107192  1  0  0  0  0
108193  1  0  0  0  0
110194  1  0  0  0  0
111195  1  0  0  0  0
114196  1  0  0  0  0
114197  1  0  0  0  0
114198  1  0  0  0  0
115199  1  0  0  0  0
116200  1  0  0  0  0
119201  1  0  0  0  0
M  END
