
  xtb     02042203003D
 energy: -332.660413967668 gnorm: 0.000521298559 xtb: 6.4.1 (unknown)
166183  0     0  0            999 V2000
   -6.5669    3.3725    6.5403 C   0  0  0  0  0  0  0  0  0  0  0  0
   -7.4078    2.7479    7.4205 C   0  0  0  0  0  0  0  0  0  0  0  0
   -7.3195    1.3533    7.8737 C   0  0  0  0  0  0  0  0  0  0  0  0
   -6.4204    0.5609    7.6869 O   0  0  0  0  0  0  0  0  0  0  0  0
   -8.5884    1.0835    8.5869 C   0  0  0  0  0  0  0  0  0  0  0  0
   -9.0457   -0.1166    9.1018 C   0  0  0  0  0  0  0  0  0  0  0  0
   -8.0687   -1.5144    9.1020 Cl  0  0  0  0  0  0  0  0  0  0  0  0
  -10.3479   -0.1615    9.6195 C   0  0  0  0  0  0  0  0  0  0  0  0
  -10.9460   -1.6110   10.3002 Cl  0  0  0  0  0  0  0  0  0  0  0  0
  -11.1702    0.9616    9.5387 C   0  0  0  0  0  0  0  0  0  0  0  0
  -12.7872    0.8538   10.0842 Cl  0  0  0  0  0  0  0  0  0  0  0  0
  -10.7027    2.1740    9.0041 C   0  0  0  0  0  0  0  0  0  0  0  0
  -11.8271    3.4478    8.7732 Cl  0  0  0  0  0  0  0  0  0  0  0  0
   -9.3774    2.2520    8.5940 C   0  0  0  0  0  0  0  0  0  0  0  0
   -8.5794    3.3448    8.0431 C   0  0  0  0  0  0  0  0  0  0  0  0
   -8.7643    4.6838    8.2630 C   0  0  0  0  0  0  0  0  0  0  0  0
   -9.6693    5.2540    9.1856 C   0  0  0  0  0  0  0  0  0  0  0  0
  -10.2848    5.8115    9.9773 N   0  0  0  0  0  0  0  0  0  0  0  0
   -7.9488    5.7041    7.7228 C   0  0  0  0  0  0  0  0  0  0  0  0
   -7.3511    6.5954    7.3152 N   0  0  0  0  0  0  0  0  0  0  0  0
   -5.3928    2.9120    5.9160 C   0  0  0  0  0  0  0  0  0  0  0  0
   -4.7168    3.6706    4.9763 C   0  0  0  0  0  0  0  0  0  0  0  0
   -3.5752    3.0522    4.4507 C   0  0  0  0  0  0  0  0  0  0  0  0
   -2.7022    3.5375    3.4447 C   0  0  0  0  0  0  0  0  0  0  0  0
   -2.8096    4.8787    2.9166 C   0  0  0  0  0  0  0  0  0  0  0  0
   -2.6034    5.3093    1.6347 C   0  0  0  0  0  0  0  0  0  0  0  0
   -2.7359    6.7063    1.5025 C   0  0  0  0  0  0  0  0  0  0  0  0
   -2.5397    7.5133   -0.0049 Cl  0  0  0  0  0  0  0  0  0  0  0  0
   -3.0354    7.3605    2.6641 C   0  0  0  0  0  0  0  0  0  0  0  0
   -3.1903    8.8223    2.8960 C   0  0  0  0  0  0  0  0  0  0  0  0
   -1.8567    9.4542    3.3036 C   0  0  0  0  0  0  0  0  0  0  0  0
   -3.1587    6.2300    3.9629 S   0  0  0  0  0  0  0  0  0  0  0  0
   -1.7445    2.6438    2.9879 C   0  0  0  0  0  0  0  0  0  0  0  0
   -1.5593    1.3493    3.5400 C   0  0  0  0  0  0  0  0  0  0  0  0
   -2.3591    0.9094    4.6125 C   0  0  0  0  0  0  0  0  0  0  0  0
   -2.1250   -0.3743    5.2381 C   0  0  0  0  0  0  0  0  0  0  0  0
   -3.4357   -1.3911    5.7658 S   0  0  0  0  0  0  0  0  0  0  0  0
   -2.3551   -2.6115    6.3416 C   0  0  0  0  0  0  0  0  0  0  0  0
   -2.8787   -3.8355    7.0066 C   0  0  0  0  0  0  0  0  0  0  0  0
   -3.4872   -3.4997    8.3700 C   0  0  0  0  0  0  0  0  0  0  0  0
   -1.0628   -2.2237    6.1359 C   0  0  0  0  0  0  0  0  0  0  0  0
   -0.9235   -0.9667    5.5098 C   0  0  0  0  0  0  0  0  0  0  0  0
    0.2976   -3.1787    6.5904 Cl  0  0  0  0  0  0  0  0  0  0  0  0
   -3.3864    1.7596    5.0095 C   0  0  0  0  0  0  0  0  0  0  0  0
   -4.5968    1.3784    6.1948 S   0  0  0  0  0  0  0  0  0  0  0  0
   -0.6045    0.6004    2.8174 C   0  0  0  0  0  0  0  0  0  0  0  0
   -0.0761    1.2653    1.7484 C   0  0  0  0  0  0  0  0  0  0  0  0
   -0.6512    2.9180    1.6572 S   0  0  0  0  0  0  0  0  0  0  0  0
    0.6756    0.6896    0.6816 C   0  0  0  0  0  0  0  0  0  0  0  0
    0.4385   -0.5553    0.1043 C   0  0  0  0  0  0  0  0  0  0  0  0
   -0.5959   -1.4150    0.4184 N   0  0  0  0  0  0  0  0  0  0  0  0
   -0.3998   -2.7918    0.2149 C   0  0  0  0  0  0  0  0  0  0  0  0
    0.7989   -3.3934    0.5989 C   0  0  0  0  0  0  0  0  0  0  0  0
    1.0189   -4.7271    0.3398 C   0  0  0  0  0  0  0  0  0  0  0  0
    0.0453   -5.4914   -0.3004 C   0  0  0  0  0  0  0  0  0  0  0  0
    0.4513   -7.1789   -0.6118 S   0  0  0  0  0  0  0  0  0  0  0  0
   -0.8783   -7.7495   -1.7089 C   0  0  0  0  0  0  0  0  0  0  0  0
   -1.1656   -4.9053   -0.6456 C   0  0  0  0  0  0  0  0  0  0  0  0
   -1.3833   -3.5656   -0.3920 C   0  0  0  0  0  0  0  0  0  0  0  0
   -1.8498   -0.9361    0.8238 C   0  0  0  0  0  0  0  0  0  0  0  0
   -2.5778   -1.6178    1.7952 C   0  0  0  0  0  0  0  0  0  0  0  0
   -3.7652   -1.1049    2.2805 C   0  0  0  0  0  0  0  0  0  0  0  0
   -4.2376    0.1136    1.8140 C   0  0  0  0  0  0  0  0  0  0  0  0
   -5.6688    0.9299    2.4435 S   0  0  0  0  0  0  0  0  0  0  0  0
   -6.4247   -0.2893    3.5553 C   0  0  0  0  0  0  0  0  0  0  0  0
   -3.5437    0.7707    0.7987 C   0  0  0  0  0  0  0  0  0  0  0  0
   -2.3742    0.2467    0.2983 C   0  0  0  0  0  0  0  0  0  0  0  0
    1.3610   -0.8045   -0.9391 C   0  0  0  0  0  0  0  0  0  0  0  0
    1.5424   -2.0960   -2.0764 S   0  0  0  0  0  0  0  0  0  0  0  0
    2.8720   -1.2440   -2.8558 C   0  0  0  0  0  0  0  0  0  0  0  0
    3.0588    0.0492   -2.3270 C   0  0  0  0  0  0  0  0  0  0  0  0
    3.8047    1.0679   -2.8592 N   0  0  0  0  0  0  0  0  0  0  0  0
    4.0314    1.2151   -4.2274 C   0  0  0  0  0  0  0  0  0  0  0  0
    5.1812    1.8705   -4.6800 C   0  0  0  0  0  0  0  0  0  0  0  0
    5.4441    1.9671   -6.0248 C   0  0  0  0  0  0  0  0  0  0  0  0
    4.5684    1.4192   -6.9664 C   0  0  0  0  0  0  0  0  0  0  0  0
    5.0408    1.5625   -8.6491 S   0  0  0  0  0  0  0  0  0  0  0  0
    3.6926    0.7798   -9.5746 C   0  0  0  0  0  0  0  0  0  0  0  0
    3.3971    0.8129   -6.5229 C   0  0  0  0  0  0  0  0  0  0  0  0
    3.1282    0.7279   -5.1726 C   0  0  0  0  0  0  0  0  0  0  0  0
    4.3246    2.0244   -1.9662 C   0  0  0  0  0  0  0  0  0  0  0  0
    4.9917    1.6052   -0.8148 C   0  0  0  0  0  0  0  0  0  0  0  0
    5.4859    2.5333    0.0718 C   0  0  0  0  0  0  0  0  0  0  0  0
    5.3254    3.8985   -0.1696 C   0  0  0  0  0  0  0  0  0  0  0  0
    5.9921    4.9858    1.0422 S   0  0  0  0  0  0  0  0  0  0  0  0
    5.6199    6.6445    0.4058 C   0  0  0  0  0  0  0  0  0  0  0  0
    4.6693    4.3169   -1.3215 C   0  0  0  0  0  0  0  0  0  0  0  0
    4.1738    3.3852   -2.2118 C   0  0  0  0  0  0  0  0  0  0  0  0
    2.2265    0.2454   -1.1983 C   0  0  0  0  0  0  0  0  0  0  0  0
    1.9456    1.5844   -0.1325 S   0  0  0  0  0  0  0  0  0  0  0  0
    3.5670   -1.9376   -3.8699 C   0  0  0  0  0  0  0  0  0  0  0  0
    4.8759   -1.6603   -4.3302 C   0  0  0  0  0  0  0  0  0  0  0  0
    5.4611   -2.3322   -5.4738 C   0  0  0  0  0  0  0  0  0  0  0  0
    6.6708   -1.8565   -5.7518 N   0  0  0  0  0  0  0  0  0  0  0  0
    7.0854   -0.7752   -4.6450 S   0  0  0  0  0  4  0  0  0  0  0  0
    5.7243   -0.7833   -3.7895 N   0  0  0  0  0  0  0  0  0  0  0  0
    4.7753   -3.3277   -6.2111 C   0  0  0  0  0  0  0  0  0  0  0  0
    3.5025   -3.6670   -5.6915 C   0  0  0  0  0  0  0  0  0  0  0  0
    2.6992   -4.6178   -6.1641 N   0  0  0  0  0  0  0  0  0  0  0  0
    1.3859   -4.7114   -5.2402 S   0  0  0  0  0  0  0  0  0  0  0  0
    1.7608   -3.5421   -4.1975 N   0  0  0  0  0  0  0  0  0  0  0  0
    2.9443   -3.0299   -4.5257 C   0  0  0  0  0  0  0  0  0  0  0  0
    5.2304   -3.8866   -7.4181 C   0  0  0  0  0  0  0  0  0  0  0  0
    6.5381   -4.0489   -7.8108 C   0  0  0  0  0  0  0  0  0  0  0  0
    7.6766   -4.2412   -6.9012 C   0  0  0  0  0  0  0  0  0  0  0  0
    7.6933   -4.1928   -5.6919 O   0  0  0  0  0  0  0  0  0  0  0  0
    8.7921   -4.6970   -7.7772 C   0  0  0  0  0  0  0  0  0  0  0  0
   10.0671   -5.0851   -7.4105 C   0  0  0  0  0  0  0  0  0  0  0  0
   10.6198   -4.9178   -5.8044 Cl  0  0  0  0  0  0  0  0  0  0  0  0
   10.9096   -5.6236   -8.3943 C   0  0  0  0  0  0  0  0  0  0  0  0
   12.5069   -6.0829   -7.9917 Cl  0  0  0  0  0  0  0  0  0  0  0  0
   10.4345   -5.8208   -9.6882 C   0  0  0  0  0  0  0  0  0  0  0  0
   11.4468   -6.5670  -10.8489 Cl  0  0  0  0  0  0  0  0  0  0  0  0
    9.1359   -5.4305  -10.0545 C   0  0  0  0  0  0  0  0  0  0  0  0
    8.5692   -5.8449  -11.6200 Cl  0  0  0  0  0  0  0  0  0  0  0  0
    8.3356   -4.8086   -9.1069 C   0  0  0  0  0  0  0  0  0  0  0  0
    6.9874   -4.2487   -9.1652 C   0  0  0  0  0  0  0  0  0  0  0  0
    6.3237   -3.7208  -10.2459 C   0  0  0  0  0  0  0  0  0  0  0  0
    5.1033   -3.0263  -10.1001 C   0  0  0  0  0  0  0  0  0  0  0  0
    4.1355   -2.4079  -10.0585 N   0  0  0  0  0  0  0  0  0  0  0  0
    6.7877   -3.5854  -11.5696 C   0  0  0  0  0  0  0  0  0  0  0  0
    7.0757   -3.3535  -12.6568 N   0  0  0  0  0  0  0  0  0  0  0  0
   -6.8407    4.3751    6.2338 H   0  0  0  0  0  0  0  0  0  0  0  0
   -5.0739    4.6368    4.6703 H   0  0  0  0  0  0  0  0  0  0  0  0
   -2.4036    4.6605    0.8030 H   0  0  0  0  0  0  0  0  0  0  0  0
   -3.9269    8.9901    3.6836 H   0  0  0  0  0  0  0  0  0  0  0  0
   -3.5490    9.2891    1.9763 H   0  0  0  0  0  0  0  0  0  0  0  0
   -1.4849    8.9947    4.2167 H   0  0  0  0  0  0  0  0  0  0  0  0
   -1.1176    9.3149    2.5183 H   0  0  0  0  0  0  0  0  0  0  0  0
   -1.9856   10.5191    3.4766 H   0  0  0  0  0  0  0  0  0  0  0  0
   -3.6433   -4.2960    6.3760 H   0  0  0  0  0  0  0  0  0  0  0  0
   -2.0588   -4.5455    7.1293 H   0  0  0  0  0  0  0  0  0  0  0  0
   -4.2998   -2.7855    8.2550 H   0  0  0  0  0  0  0  0  0  0  0  0
   -2.7342   -3.0646    9.0228 H   0  0  0  0  0  0  0  0  0  0  0  0
   -3.8753   -4.4001    8.8388 H   0  0  0  0  0  0  0  0  0  0  0  0
    0.0298   -0.5081    5.3228 H   0  0  0  0  0  0  0  0  0  0  0  0
   -0.3490   -0.4162    3.0495 H   0  0  0  0  0  0  0  0  0  0  0  0
    1.5576   -2.8047    1.0929 H   0  0  0  0  0  0  0  0  0  0  0  0
    1.9488   -5.1935    0.6259 H   0  0  0  0  0  0  0  0  0  0  0  0
   -0.9528   -7.0882   -2.5671 H   0  0  0  0  0  0  0  0  0  0  0  0
   -0.5839   -8.7434   -2.0315 H   0  0  0  0  0  0  0  0  0  0  0  0
   -1.8182   -7.8043   -1.1671 H   0  0  0  0  0  0  0  0  0  0  0  0
   -1.9445   -5.4771   -1.1233 H   0  0  0  0  0  0  0  0  0  0  0  0
   -2.3190   -3.1086   -0.6781 H   0  0  0  0  0  0  0  0  0  0  0  0
   -2.1968   -2.5478    2.1911 H   0  0  0  0  0  0  0  0  0  0  0  0
   -4.2955   -1.6507    3.0431 H   0  0  0  0  0  0  0  0  0  0  0  0
   -7.3520    0.1636    3.8928 H   0  0  0  0  0  0  0  0  0  0  0  0
   -6.6382   -1.2014    3.0061 H   0  0  0  0  0  0  0  0  0  0  0  0
   -5.7794   -0.4785    4.4083 H   0  0  0  0  0  0  0  0  0  0  0  0
   -3.9355    1.6995    0.4131 H   0  0  0  0  0  0  0  0  0  0  0  0
   -1.8477    0.7612   -0.4915 H   0  0  0  0  0  0  0  0  0  0  0  0
    5.8876    2.2607   -3.9641 H   0  0  0  0  0  0  0  0  0  0  0  0
    6.3427    2.4539   -6.3707 H   0  0  0  0  0  0  0  0  0  0  0  0
    3.9468    0.9171  -10.6212 H   0  0  0  0  0  0  0  0  0  0  0  0
    3.6497   -0.2829   -9.3527 H   0  0  0  0  0  0  0  0  0  0  0  0
    2.7546    1.2813   -9.3561 H   0  0  0  0  0  0  0  0  0  0  0  0
    2.6877    0.4021   -7.2227 H   0  0  0  0  0  0  0  0  0  0  0  0
    2.2047    0.2714   -4.8496 H   0  0  0  0  0  0  0  0  0  0  0  0
    5.1266    0.5492   -0.6371 H   0  0  0  0  0  0  0  0  0  0  0  0
    6.0076    2.2169    0.9616 H   0  0  0  0  0  0  0  0  0  0  0  0
    4.5453    6.7806    0.3287 H   0  0  0  0  0  0  0  0  0  0  0  0
    6.0264    7.3345    1.1387 H   0  0  0  0  0  0  0  0  0  0  0  0
    6.1103    6.7945   -0.5515 H   0  0  0  0  0  0  0  0  0  0  0  0
    4.5293    5.3640   -1.5339 H   0  0  0  0  0  0  0  0  0  0  0  0
    3.6565    3.7131   -3.1012 H   0  0  0  0  0  0  0  0  0  0  0  0
    4.4474   -4.2555   -8.0712 H   0  0  0  0  0  0  0  0  0  0  0  0
  1  2  2  0  0  0  0
  2  3  1  0  0  0  0
  3  4  2  0  0  0  0
  3  5  1  0  0  0  0
  5  6  2  0  0  0  0
  6  7  1  0  0  0  0
  6  8  1  0  0  0  0
  8  9  1  0  0  0  0
  8 10  2  0  0  0  0
 10 11  1  0  0  0  0
 10 12  1  0  0  0  0
 12 13  1  0  0  0  0
 12 14  2  0  0  0  0
 14 15  1  0  0  0  0
 15 16  2  0  0  0  0
 16 17  1  0  0  0  0
 17 18  3  0  0  0  0
 16 19  1  0  0  0  0
 19 20  3  0  0  0  0
  1 21  1  0  0  0  0
 21 22  2  0  0  0  0
 22 23  1  0  0  0  0
 23 24  2  0  0  0  0
 24 25  1  0  0  0  0
 25 26  2  0  0  0  0
 26 27  1  0  0  0  0
 27 28  1  0  0  0  0
 27 29  2  0  0  0  0
 29 30  1  0  0  0  0
 30 31  1  0  0  0  0
 29 32  1  0  0  0  0
 24 33  1  0  0  0  0
 33 34  2  0  0  0  0
 34 35  1  0  0  0  0
 35 36  1  0  0  0  0
 36 37  1  0  0  0  0
 37 38  1  0  0  0  0
 38 39  1  0  0  0  0
 39 40  1  0  0  0  0
 38 41  2  0  0  0  0
 41 42  1  0  0  0  0
 41 43  1  0  0  0  0
 35 44  2  0  0  0  0
 44 45  1  0  0  0  0
 34 46  1  0  0  0  0
 46 47  2  0  0  0  0
 47 48  1  0  0  0  0
 47 49  1  0  0  0  0
 49 50  2  0  0  0  0
 50 51  1  0  0  0  0
 51 52  1  0  0  0  0
 52 53  2  0  0  0  0
 53 54  1  0  0  0  0
 54 55  2  0  0  0  0
 55 56  1  0  0  0  0
 56 57  1  0  0  0  0
 55 58  1  0  0  0  0
 58 59  2  0  0  0  0
 51 60  1  0  0  0  0
 60 61  2  0  0  0  0
 61 62  1  0  0  0  0
 62 63  2  0  0  0  0
 63 64  1  0  0  0  0
 64 65  1  0  0  0  0
 63 66  1  0  0  0  0
 66 67  2  0  0  0  0
 50 68  1  0  0  0  0
 68 69  1  0  0  0  0
 69 70  1  0  0  0  0
 70 71  2  0  0  0  0
 71 72  1  0  0  0  0
 72 73  1  0  0  0  0
 73 74  2  0  0  0  0
 74 75  1  0  0  0  0
 75 76  2  0  0  0  0
 76 77  1  0  0  0  0
 77 78  1  0  0  0  0
 76 79  1  0  0  0  0
 79 80  2  0  0  0  0
 72 81  1  0  0  0  0
 81 82  2  0  0  0  0
 82 83  1  0  0  0  0
 83 84  2  0  0  0  0
 84 85  1  0  0  0  0
 85 86  1  0  0  0  0
 84 87  1  0  0  0  0
 87 88  2  0  0  0  0
 71 89  1  0  0  0  0
 89 90  1  0  0  0  0
 70 91  1  0  0  0  0
 91 92  2  0  0  0  0
 92 93  1  0  0  0  0
 93 94  1  0  0  0  0
 94 95  2  0  0  0  0
 95 96  2  0  0  0  0
 93 97  2  0  0  0  0
 97 98  1  0  0  0  0
 98 99  2  0  0  0  0
 99100  1  0  0  0  0
100101  1  0  0  0  0
101102  2  0  0  0  0
 97103  1  0  0  0  0
103104  2  0  0  0  0
104105  1  0  0  0  0
105106  2  0  0  0  0
105107  1  0  0  0  0
107108  2  0  0  0  0
108109  1  0  0  0  0
108110  1  0  0  0  0
110111  1  0  0  0  0
110112  2  0  0  0  0
112113  1  0  0  0  0
112114  1  0  0  0  0
114115  1  0  0  0  0
114116  2  0  0  0  0
116117  1  0  0  0  0
117118  2  0  0  0  0
118119  1  0  0  0  0
119120  3  0  0  0  0
118121  1  0  0  0  0
121122  3  0  0  0  0
 15  2  1  0  0  0  0
 45 21  1  0  0  0  0
 90 49  1  0  0  0  0
102 91  1  0  0  0  0
117104  1  0  0  0  0
 14  5  1  0  0  0  0
 44 23  1  0  0  0  0
 59 52  1  0  0  0  0
 67 60  1  0  0  0  0
 89 68  2  0  0  0  0
 96 92  1  0  0  0  0
102 98  1  0  0  0  0
116107  1  0  0  0  0
 32 25  1  0  0  0  0
 48 33  1  0  0  0  0
 80 73  1  0  0  0  0
 88 81  1  0  0  0  0
 42 36  2  0  0  0  0
  1123  1  0  0  0  0
 22124  1  0  0  0  0
 26125  1  0  0  0  0
 30126  1  0  0  0  0
 30127  1  0  0  0  0
 31128  1  0  0  0  0
 31129  1  0  0  0  0
 31130  1  0  0  0  0
 39131  1  0  0  0  0
 39132  1  0  0  0  0
 40133  1  0  0  0  0
 40134  1  0  0  0  0
 40135  1  0  0  0  0
 42136  1  0  0  0  0
 46137  1  0  0  0  0
 53138  1  0  0  0  0
 54139  1  0  0  0  0
 57140  1  0  0  0  0
 57141  1  0  0  0  0
 57142  1  0  0  0  0
 58143  1  0  0  0  0
 59144  1  0  0  0  0
 61145  1  0  0  0  0
 62146  1  0  0  0  0
 65147  1  0  0  0  0
 65148  1  0  0  0  0
 65149  1  0  0  0  0
 66150  1  0  0  0  0
 67151  1  0  0  0  0
 74152  1  0  0  0  0
 75153  1  0  0  0  0
 78154  1  0  0  0  0
 78155  1  0  0  0  0
 78156  1  0  0  0  0
 79157  1  0  0  0  0
 80158  1  0  0  0  0
 82159  1  0  0  0  0
 83160  1  0  0  0  0
 86161  1  0  0  0  0
 86162  1  0  0  0  0
 86163  1  0  0  0  0
 87164  1  0  0  0  0
 88165  1  0  0  0  0
103166  1  0  0  0  0
M  END
