
  xtb     02042201343D
 energy: -275.537744773612 gnorm: 0.000586431296 xtb: 6.4.1 (unknown)
150162  0     0  0            999 V2000
   -6.7076    2.0455   -4.0292 C   0  0  0  0  0  0  0  0  0  0  0  0
   -7.5888    3.0759   -3.8487 C   0  0  0  0  0  0  0  0  0  0  0  0
   -7.2634    4.3900   -3.2634 C   0  0  0  0  0  0  0  0  0  0  0  0
   -6.1698    4.8527   -3.0335 O   0  0  0  0  0  0  0  0  0  0  0  0
   -8.5668    5.0940   -3.1407 C   0  0  0  0  0  0  0  0  0  0  0  0
   -8.8452    6.2852   -2.4979 C   0  0  0  0  0  0  0  0  0  0  0  0
   -7.6039    7.2345   -1.8123 Cl  0  0  0  0  0  0  0  0  0  0  0  0
  -10.1837    6.6900   -2.3991 C   0  0  0  0  0  0  0  0  0  0  0  0
  -10.5750    8.1694   -1.6363 Cl  0  0  0  0  0  0  0  0  0  0  0  0
  -11.1981    5.8661   -2.8821 C   0  0  0  0  0  0  0  0  0  0  0  0
  -12.8299    6.3353   -2.6667 Cl  0  0  0  0  0  0  0  0  0  0  0  0
  -10.9091    4.6523   -3.5261 C   0  0  0  0  0  0  0  0  0  0  0  0
  -12.2169    3.6169   -3.9254 Cl  0  0  0  0  0  0  0  0  0  0  0  0
   -9.5781    4.3018   -3.7189 C   0  0  0  0  0  0  0  0  0  0  0  0
   -8.9493    3.1391   -4.3456 C   0  0  0  0  0  0  0  0  0  0  0  0
   -9.4944    2.3510   -5.3271 C   0  0  0  0  0  0  0  0  0  0  0  0
   -8.9083    1.1816   -5.8545 C   0  0  0  0  0  0  0  0  0  0  0  0
   -8.5493    0.1994   -6.3308 N   0  0  0  0  0  0  0  0  0  0  0  0
  -10.6474    2.6637   -6.0797 C   0  0  0  0  0  0  0  0  0  0  0  0
  -11.4967    2.8806   -6.8210 N   0  0  0  0  0  0  0  0  0  0  0  0
   -5.4644    1.8609   -3.3834 C   0  0  0  0  0  0  0  0  0  0  0  0
   -4.4731    1.0611   -4.0009 C   0  0  0  0  0  0  0  0  0  0  0  0
   -3.2270    0.7122   -3.3602 C   0  0  0  0  0  0  0  0  0  0  0  0
   -2.4299    0.0120   -4.1700 N   0  0  0  0  0  0  0  0  0  0  0  0
   -3.1702   -0.1923   -5.5803 S   0  0  0  0  0  4  0  0  0  0  0  0
   -4.5364    0.5822   -5.2429 N   0  0  0  0  0  0  0  0  0  0  0  0
   -2.9260    1.1141   -2.0416 C   0  0  0  0  0  0  0  0  0  0  0  0
   -3.8540    2.0090   -1.4703 C   0  0  0  0  0  0  0  0  0  0  0  0
   -3.7609    2.5180   -0.2400 N   0  0  0  0  0  0  0  0  0  0  0  0
   -5.1148    3.3088    0.0982 S   0  0  0  0  0  0  0  0  0  0  0  0
   -5.8976    3.0320   -1.2729 N   0  0  0  0  0  0  0  0  0  0  0  0
   -5.1167    2.3375   -2.0991 C   0  0  0  0  0  0  0  0  0  0  0  0
   -1.8397    0.5909   -1.2918 C   0  0  0  0  0  0  0  0  0  0  0  0
   -1.3539   -0.7217   -1.2979 C   0  0  0  0  0  0  0  0  0  0  0  0
   -1.9472   -1.7958   -1.9243 N   0  0  0  0  0  0  0  0  0  0  0  0
   -3.3357   -1.8405   -2.1067 C   0  0  0  0  0  0  0  0  0  0  0  0
   -3.8854   -2.3764   -3.2680 C   0  0  0  0  0  0  0  0  0  0  0  0
   -5.2433   -2.2971   -3.5117 C   0  0  0  0  0  0  0  0  0  0  0  0
   -6.0832   -1.6865   -2.5889 C   0  0  0  0  0  0  0  0  0  0  0  0
   -7.8092   -1.4432   -2.8222 S   0  0  0  0  0  0  0  0  0  0  0  0
   -8.1677   -2.2924   -4.3843 C   0  0  0  0  0  0  0  0  0  0  0  0
   -5.5457   -1.2197   -1.3875 C   0  0  0  0  0  0  0  0  0  0  0  0
   -4.1952   -1.3035   -1.1444 C   0  0  0  0  0  0  0  0  0  0  0  0
   -1.1302   -2.8291   -2.3977 C   0  0  0  0  0  0  0  0  0  0  0  0
    0.1019   -2.5310   -2.9829 C   0  0  0  0  0  0  0  0  0  0  0  0
    0.9224   -3.5438   -3.4212 C   0  0  0  0  0  0  0  0  0  0  0  0
    0.5321   -4.8771   -3.2944 C   0  0  0  0  0  0  0  0  0  0  0  0
    1.6791   -6.0818   -3.8764 S   0  0  0  0  0  0  0  0  0  0  0  0
    0.8289   -7.6649   -3.6234 C   0  0  0  0  0  0  0  0  0  0  0  0
   -0.7027   -5.1757   -2.7319 C   0  0  0  0  0  0  0  0  0  0  0  0
   -1.5245   -4.1593   -2.2861 C   0  0  0  0  0  0  0  0  0  0  0  0
   -0.2573   -0.8458   -0.4140 C   0  0  0  0  0  0  0  0  0  0  0  0
    0.7725   -2.1592    0.0528 S   0  0  0  0  0  0  0  0  0  0  0  0
    1.5566   -1.1403    1.2330 C   0  0  0  0  0  0  0  0  0  0  0  0
    1.1036    0.1662    1.2088 C   0  0  0  0  0  0  0  0  0  0  0  0
    1.6678    1.2024    1.9357 N   0  0  0  0  0  0  0  0  0  0  0  0
    3.0521    1.2215    2.1506 C   0  0  0  0  0  0  0  0  0  0  0  0
    3.5879    1.6198    3.3720 C   0  0  0  0  0  0  0  0  0  0  0  0
    4.9434    1.5164    3.6213 C   0  0  0  0  0  0  0  0  0  0  0  0
    5.7995    1.0373    2.6393 C   0  0  0  0  0  0  0  0  0  0  0  0
    7.5314    0.7797    2.8516 S   0  0  0  0  0  0  0  0  0  0  0  0
    7.9082    1.5076    4.4721 C   0  0  0  0  0  0  0  0  0  0  0  0
    5.2780    0.7147    1.3874 C   0  0  0  0  0  0  0  0  0  0  0  0
    3.9269    0.8023    1.1459 C   0  0  0  0  0  0  0  0  0  0  0  0
    0.8310    2.1913    2.4623 C   0  0  0  0  0  0  0  0  0  0  0  0
   -0.4460    1.8601    2.9191 C   0  0  0  0  0  0  0  0  0  0  0  0
   -1.2896    2.8386    3.3933 C   0  0  0  0  0  0  0  0  0  0  0  0
   -0.8764    4.1687    3.4359 C   0  0  0  0  0  0  0  0  0  0  0  0
   -2.0476    5.3326    4.0596 S   0  0  0  0  0  0  0  0  0  0  0  0
   -1.2408    6.9406    3.8178 C   0  0  0  0  0  0  0  0  0  0  0  0
    0.4029    4.4988    3.0078 C   0  0  0  0  0  0  0  0  0  0  0  0
    1.2454    3.5188    2.5204 C   0  0  0  0  0  0  0  0  0  0  0  0
    0.0448    0.3173    0.2800 C   0  0  0  0  0  0  0  0  0  0  0  0
   -1.0289    1.6115   -0.1204 S   0  0  0  0  0  0  0  0  0  0  0  0
    2.5886   -1.6337    2.1259 C   0  0  0  0  0  0  0  0  0  0  0  0
    3.7299   -2.2494    1.6353 C   0  0  0  0  0  0  0  0  0  0  0  0
    4.8168   -2.5256    2.4545 C   0  0  0  0  0  0  0  0  0  0  0  0
    6.0009   -3.0062    2.0155 O   0  0  0  0  0  0  0  0  0  0  0  0
    6.2706   -3.1120    0.6283 C   0  0  0  0  0  0  0  0  0  0  0  0
    5.7816   -4.4286    0.0323 C   0  0  0  0  0  0  0  0  0  0  0  0
    4.7342   -2.1706    3.8222 C   0  0  0  0  0  0  0  0  0  0  0  0
    3.5418   -1.6339    4.3232 C   0  0  0  0  0  0  0  0  0  0  0  0
    2.4578   -1.3832    3.5099 C   0  0  0  0  0  0  0  0  0  0  0  0
    1.2530   -0.9040    3.9124 O   0  0  0  0  0  0  0  0  0  0  0  0
    0.9247   -0.8720    5.2898 C   0  0  0  0  0  0  0  0  0  0  0  0
    1.3298    0.4263    5.9783 C   0  0  0  0  0  0  0  0  0  0  0  0
    5.9000   -2.1399    4.6611 C   0  0  0  0  0  0  0  0  0  0  0  0
    7.0069   -2.9304    4.6449 C   0  0  0  0  0  0  0  0  0  0  0  0
    8.2195   -2.3126    5.2366 C   0  0  0  0  0  0  0  0  0  0  0  0
    8.1677   -1.3599    5.9914 O   0  0  0  0  0  0  0  0  0  0  0  0
    9.4207   -2.8259    4.8074 N   0  0  0  0  0  0  0  0  0  0  0  0
   10.6391   -2.1063    5.1657 C   0  0  0  0  0  0  0  0  0  0  0  0
   11.0792   -1.1932    4.0280 C   0  0  0  0  0  0  0  0  0  0  0  0
    9.5754   -3.9602    4.0173 C   0  0  0  0  0  0  0  0  0  0  0  0
   10.6698   -4.2942    3.6194 O   0  0  0  0  0  0  0  0  0  0  0  0
    8.3475   -4.7315    3.7884 C   0  0  0  0  0  0  0  0  0  0  0  0
    7.1105   -4.2515    4.0965 C   0  0  0  0  0  0  0  0  0  0  0  0
    5.9052   -5.1279    3.9776 C   0  0  0  0  0  0  0  0  0  0  0  0
    8.4924   -6.0139    3.2217 C   0  0  0  0  0  0  0  0  0  0  0  0
    8.5655   -7.0555    2.7467 N   0  0  0  0  0  0  0  0  0  0  0  0
   -6.9573    1.2638   -4.7348 H   0  0  0  0  0  0  0  0  0  0  0  0
   -3.2348   -2.8229   -4.0058 H   0  0  0  0  0  0  0  0  0  0  0  0
   -5.6293   -2.6895   -4.4382 H   0  0  0  0  0  0  0  0  0  0  0  0
   -7.8705   -3.3344   -4.3130 H   0  0  0  0  0  0  0  0  0  0  0  0
   -7.6778   -1.7827   -5.2083 H   0  0  0  0  0  0  0  0  0  0  0  0
   -9.2437   -2.2229   -4.5101 H   0  0  0  0  0  0  0  0  0  0  0  0
   -6.2068   -0.7868   -0.6526 H   0  0  0  0  0  0  0  0  0  0  0  0
   -3.7935   -0.9369   -0.2115 H   0  0  0  0  0  0  0  0  0  0  0  0
    0.3944   -1.4994   -3.1040 H   0  0  0  0  0  0  0  0  0  0  0  0
    1.8743   -3.3185   -3.8767 H   0  0  0  0  0  0  0  0  0  0  0  0
    0.6488   -7.8267   -2.5647 H   0  0  0  0  0  0  0  0  0  0  0  0
    1.5082   -8.4231   -4.0005 H   0  0  0  0  0  0  0  0  0  0  0  0
   -0.0964   -7.6844   -4.1916 H   0  0  0  0  0  0  0  0  0  0  0  0
   -1.0337   -6.1958   -2.6243 H   0  0  0  0  0  0  0  0  0  0  0  0
   -2.4774   -4.3974   -1.8371 H   0  0  0  0  0  0  0  0  0  0  0  0
    2.9314    1.9944    4.1418 H   0  0  0  0  0  0  0  0  0  0  0  0
    5.3175    1.7974    4.5931 H   0  0  0  0  0  0  0  0  0  0  0  0
    7.4672    2.4968    4.5422 H   0  0  0  0  0  0  0  0  0  0  0  0
    8.9905    1.5872    4.5112 H   0  0  0  0  0  0  0  0  0  0  0  0
    7.5691    0.8506    5.2678 H   0  0  0  0  0  0  0  0  0  0  0  0
    5.9532    0.3906    0.6099 H   0  0  0  0  0  0  0  0  0  0  0  0
    3.5348    0.5416    0.1741 H   0  0  0  0  0  0  0  0  0  0  0  0
   -0.7613    0.8282    2.9073 H   0  0  0  0  0  0  0  0  0  0  0  0
   -2.2800    2.5862    3.7393 H   0  0  0  0  0  0  0  0  0  0  0  0
   -1.0038    7.0797    2.7671 H   0  0  0  0  0  0  0  0  0  0  0  0
   -1.9681    7.6823    4.1335 H   0  0  0  0  0  0  0  0  0  0  0  0
   -0.3519    7.0116    4.4382 H   0  0  0  0  0  0  0  0  0  0  0  0
    0.7546    5.5174    3.0358 H   0  0  0  0  0  0  0  0  0  0  0  0
    2.2322    3.7853    2.1717 H   0  0  0  0  0  0  0  0  0  0  0  0
    3.7688   -2.4521    0.5770 H   0  0  0  0  0  0  0  0  0  0  0  0
    5.8503   -2.2546    0.0913 H   0  0  0  0  0  0  0  0  0  0  0  0
    7.3612   -3.0614    0.5613 H   0  0  0  0  0  0  0  0  0  0  0  0
    6.0051   -4.4502   -1.0304 H   0  0  0  0  0  0  0  0  0  0  0  0
    4.7088   -4.5477    0.1673 H   0  0  0  0  0  0  0  0  0  0  0  0
    6.2885   -5.2644    0.5087 H   0  0  0  0  0  0  0  0  0  0  0  0
    3.5071   -1.4027    5.3760 H   0  0  0  0  0  0  0  0  0  0  0  0
    1.3560   -1.7393    5.8035 H   0  0  0  0  0  0  0  0  0  0  0  0
   -0.1656   -0.9655    5.3105 H   0  0  0  0  0  0  0  0  0  0  0  0
    2.4099    0.5471    5.9868 H   0  0  0  0  0  0  0  0  0  0  0  0
    0.8842    1.2713    5.4580 H   0  0  0  0  0  0  0  0  0  0  0  0
    0.9700    0.4169    7.0036 H   0  0  0  0  0  0  0  0  0  0  0  0
    5.9603   -1.2783    5.3189 H   0  0  0  0  0  0  0  0  0  0  0  0
   10.4171   -1.5287    6.0643 H   0  0  0  0  0  0  0  0  0  0  0  0
   11.4147   -2.8451    5.3767 H   0  0  0  0  0  0  0  0  0  0  0  0
   10.2728   -0.5169    3.7520 H   0  0  0  0  0  0  0  0  0  0  0  0
   11.3518   -1.7865    3.1590 H   0  0  0  0  0  0  0  0  0  0  0  0
   11.9416   -0.6098    4.3381 H   0  0  0  0  0  0  0  0  0  0  0  0
    5.7081   -5.3708    2.9356 H   0  0  0  0  0  0  0  0  0  0  0  0
    6.0885   -6.0687    4.4967 H   0  0  0  0  0  0  0  0  0  0  0  0
    5.0263   -4.6507    4.4002 H   0  0  0  0  0  0  0  0  0  0  0  0
  1  2  2  0  0  0  0
  2  3  1  0  0  0  0
  3  4  2  0  0  0  0
  3  5  1  0  0  0  0
  5  6  2  0  0  0  0
  6  7  1  0  0  0  0
  6  8  1  0  0  0  0
  8  9  1  0  0  0  0
  8 10  2  0  0  0  0
 10 11  1  0  0  0  0
 10 12  1  0  0  0  0
 12 13  1  0  0  0  0
 12 14  2  0  0  0  0
 14 15  1  0  0  0  0
 15 16  2  0  0  0  0
 16 17  1  0  0  0  0
 17 18  3  0  0  0  0
 16 19  1  0  0  0  0
 19 20  3  0  0  0  0
  1 21  1  0  0  0  0
 21 22  2  0  0  0  0
 22 23  1  0  0  0  0
 23 24  1  0  0  0  0
 24 25  2  0  0  0  0
 25 26  2  0  0  0  0
 23 27  2  0  0  0  0
 27 28  1  0  0  0  0
 28 29  2  0  0  0  0
 29 30  1  0  0  0  0
 30 31  1  0  0  0  0
 31 32  2  0  0  0  0
 27 33  1  0  0  0  0
 33 34  2  0  0  0  0
 34 35  1  0  0  0  0
 35 36  1  0  0  0  0
 36 37  2  0  0  0  0
 37 38  1  0  0  0  0
 38 39  2  0  0  0  0
 39 40  1  0  0  0  0
 40 41  1  0  0  0  0
 39 42  1  0  0  0  0
 42 43  2  0  0  0  0
 35 44  1  0  0  0  0
 44 45  2  0  0  0  0
 45 46  1  0  0  0  0
 46 47  2  0  0  0  0
 47 48  1  0  0  0  0
 48 49  1  0  0  0  0
 47 50  1  0  0  0  0
 50 51  2  0  0  0  0
 34 52  1  0  0  0  0
 52 53  1  0  0  0  0
 53 54  1  0  0  0  0
 54 55  2  0  0  0  0
 55 56  1  0  0  0  0
 56 57  1  0  0  0  0
 57 58  2  0  0  0  0
 58 59  1  0  0  0  0
 59 60  2  0  0  0  0
 60 61  1  0  0  0  0
 61 62  1  0  0  0  0
 60 63  1  0  0  0  0
 63 64  2  0  0  0  0
 56 65  1  0  0  0  0
 65 66  2  0  0  0  0
 66 67  1  0  0  0  0
 67 68  2  0  0  0  0
 68 69  1  0  0  0  0
 69 70  1  0  0  0  0
 68 71  1  0  0  0  0
 71 72  2  0  0  0  0
 55 73  1  0  0  0  0
 73 74  1  0  0  0  0
 54 75  1  0  0  0  0
 75 76  2  0  0  0  0
 76 77  1  0  0  0  0
 77 78  1  0  0  0  0
 78 79  1  0  0  0  0
 79 80  1  0  0  0  0
 77 81  2  0  0  0  0
 81 82  1  0  0  0  0
 82 83  2  0  0  0  0
 83 84  1  0  0  0  0
 84 85  1  0  0  0  0
 85 86  1  0  0  0  0
 81 87  1  0  0  0  0
 87 88  2  0  0  0  0
 88 89  1  0  0  0  0
 89 90  2  0  0  0  0
 89 91  1  0  0  0  0
 91 92  1  0  0  0  0
 92 93  1  0  0  0  0
 91 94  1  0  0  0  0
 94 95  2  0  0  0  0
 94 96  1  0  0  0  0
 96 97  2  0  0  0  0
 97 98  1  0  0  0  0
 96 99  1  0  0  0  0
 99100  3  0  0  0  0
 15  2  1  0  0  0  0
 32 21  1  0  0  0  0
 74 33  1  0  0  0  0
 83 75  1  0  0  0  0
 97 88  1  0  0  0  0
 14  5  1  0  0  0  0
 26 22  1  0  0  0  0
 32 28  1  0  0  0  0
 43 36  1  0  0  0  0
 51 44  1  0  0  0  0
 73 52  2  0  0  0  0
 64 57  1  0  0  0  0
 72 65  1  0  0  0  0
  1101  1  0  0  0  0
 37102  1  0  0  0  0
 38103  1  0  0  0  0
 41104  1  0  0  0  0
 41105  1  0  0  0  0
 41106  1  0  0  0  0
 42107  1  0  0  0  0
 43108  1  0  0  0  0
 45109  1  0  0  0  0
 46110  1  0  0  0  0
 49111  1  0  0  0  0
 49112  1  0  0  0  0
 49113  1  0  0  0  0
 50114  1  0  0  0  0
 51115  1  0  0  0  0
 58116  1  0  0  0  0
 59117  1  0  0  0  0
 62118  1  0  0  0  0
 62119  1  0  0  0  0
 62120  1  0  0  0  0
 63121  1  0  0  0  0
 64122  1  0  0  0  0
 66123  1  0  0  0  0
 67124  1  0  0  0  0
 70125  1  0  0  0  0
 70126  1  0  0  0  0
 70127  1  0  0  0  0
 71128  1  0  0  0  0
 72129  1  0  0  0  0
 76130  1  0  0  0  0
 79131  1  0  0  0  0
 79132  1  0  0  0  0
 80133  1  0  0  0  0
 80134  1  0  0  0  0
 80135  1  0  0  0  0
 82136  1  0  0  0  0
 85137  1  0  0  0  0
 85138  1  0  0  0  0
 86139  1  0  0  0  0
 86140  1  0  0  0  0
 86141  1  0  0  0  0
 87142  1  0  0  0  0
 92143  1  0  0  0  0
 92144  1  0  0  0  0
 93145  1  0  0  0  0
 93146  1  0  0  0  0
 93147  1  0  0  0  0
 98148  1  0  0  0  0
 98149  1  0  0  0  0
 98150  1  0  0  0  0
M  END
