139

C          4.58660        4.17090        4.91260
C          3.70450        4.37480        5.93900
C          2.29270        3.94750        5.94490
O          1.61840        3.53520        5.02640
C          1.87690        4.00060        7.36950
C          0.68640        3.57490        7.92810
Cl        -0.62040        3.06840        6.95690
C          0.57540        3.55500        9.32500
Cl        -0.89240        3.07450       10.05850
C          1.67510        3.88000       10.11590
Cl         1.55200        3.74560       11.81750
C          2.88700        4.29530        9.54210
Cl         4.24920        4.49430       10.56760
C          2.96120        4.42550        8.16220
C          4.04110        4.83680        7.26990
C          5.07810        5.68810        7.54790
C          5.24740        6.44600        8.72570
N          5.42680        7.17010        9.59800
C          6.05250        6.05850        6.59330
N          6.88660        6.40210        5.88370
C          4.24170        3.80410        3.59180
C          5.05780        2.90780        2.86180
C          4.58790        2.24160        1.66710
N          5.50780        1.41750        1.16570
S          6.81710        1.46470        2.09520
N          6.28220        2.50670        3.19880
C          3.30210        2.48270        1.13130
C          2.64850        3.60870        1.67330
N          1.52660        4.15720        1.20810
S          1.10090        5.36480        2.17740
N          2.30010        5.25530        3.23410
C          3.09390        4.24140        2.89600
C          2.66950        1.64350        0.18170
C          2.78540        0.25260        0.06150
N          3.40910       -0.57440        0.97040
C          3.39200       -0.26600        2.33640
C          4.49250       -0.54640        3.14390
C          4.52120       -0.13930        4.46310
C          3.44000        0.54460        5.00440
S          3.40560        1.14760        6.66280
C          5.16940        1.31200        7.07150
C          2.30110        0.75070        4.22780
C          2.27950        0.35400        2.91060
C          4.03460       -1.73730        0.50900
C          4.72200       -1.72390       -0.70180
C          5.34220       -2.86370       -1.17260
C          5.28940       -4.03900       -0.43400
S          6.04960       -5.55250       -0.91880
C          6.78790       -5.17830       -2.53440
C          4.60420       -4.05390        0.78150
C          3.98090       -2.92010        1.24830
C          2.00030       -0.21890       -1.01520
S          1.65140       -1.78800       -1.66510
C          0.46970       -1.09870       -2.74390
C          0.37670        0.27190       -2.62650
N         -0.47930        1.03360       -3.41550
C         -1.35340        1.95330       -2.84650
C         -1.86240        2.99880       -3.61400
C         -2.68780        3.95010       -3.04900
C         -3.01320        3.87760       -1.70080
S         -4.02900        5.04810       -0.85850
C         -4.58390        6.17460       -2.16920
C         -2.51780        2.82420       -0.93360
C         -1.70440        1.86900       -1.49740
C         -0.54300        0.63700       -4.75660
C         -1.74980        0.34480       -5.39020
C         -1.74230       -0.24360       -6.63550
C         -0.53600       -0.51810       -7.27620
S         -0.61050       -1.50990       -8.73370
C          1.03900       -1.33010       -9.47660
C          0.66510       -0.13020       -6.69250
C          0.65600        0.44570       -5.44260
C          1.25890        0.77250       -1.64260
S          1.50520        2.33030       -0.93460
C         -0.51720       -1.94570       -3.41100
C         -1.73310       -2.11450       -2.72790
C         -2.81340       -2.95000       -3.20580
N         -3.82390       -2.97760       -2.33390
S         -3.47670       -2.02690       -1.08390
N         -2.02200       -1.54930       -1.54910
C         -2.71750       -3.65280       -4.42550
C         -1.49010       -3.47650       -5.10320
N         -1.18350       -4.04540       -6.26960
S          0.28180       -3.58160       -6.71100
N          0.64010       -2.64790       -5.45860
C         -0.40680       -2.63830       -4.61490
C         -3.66230       -4.57870       -4.94050
C         -4.97030       -4.79940       -4.62470
C         -5.56760       -6.12710       -4.94140
O         -5.11010       -6.97930       -5.66700
C         -6.80360       -6.19810       -4.13240
C         -7.65390       -7.26300       -3.96230
C         -8.75090       -7.09260       -3.10990
C         -9.76090       -8.03340       -2.76700
C        -10.66320       -7.51640       -1.90020
Br       -12.15240       -8.40380       -1.18430
S        -10.34790       -5.86230       -1.44670
C         -8.93940       -5.84780       -2.46400
C         -8.08560       -4.76610       -2.64410
C         -7.01060       -4.95130       -3.49090
C         -5.95790       -4.03280       -3.90760
C         -6.01940       -2.66490       -3.82730
C         -7.02570       -1.95470       -3.14620
N         -7.80490       -1.32500       -2.58460
C         -5.11320       -1.81720       -4.48800
N         -4.42000       -1.08620       -5.03940
H          5.64850        4.16140        5.12860
H          5.34370       -1.06170        2.72350
H          5.39660       -0.34960        5.05610
H          5.68480        1.79740        6.24770
H          5.59980        0.33890        7.28870
H          5.21060        1.93420        7.96050
H          1.44680        1.24620        4.65960
H          1.39800        0.53290        2.31400
H          4.78630       -0.80470       -1.26380
H          5.87150       -2.81750       -2.11010
H          7.54820       -4.41000       -2.42800
H          7.24620       -6.10470       -2.86620
H          6.01400       -4.87780       -3.23440
H          4.56350       -4.97140        1.34810
H          3.44160       -2.94280        2.18310
H         -1.59940        3.07080       -4.65880
H         -3.05880        4.74870       -3.67060
H         -5.25290        6.87900       -1.68480
H         -3.73470        6.70450       -2.59070
H         -5.12260        5.61860       -2.93080
H         -2.78710        2.76360        0.10950
H         -1.35520        1.03800       -0.90450
H         -2.68580        0.51250       -4.88250
H         -2.67320       -0.53900       -7.09290
H          1.78630       -1.83490       -8.87160
H          1.27080       -0.27620       -9.59430
H          0.97320       -1.80470      -10.45070
H          1.60750       -0.30050       -7.18560
H          1.58760        0.70970       -4.96600
H         -3.24190       -5.28540       -5.65060
H         -7.48020       -8.19970       -4.46830
H         -9.80310       -9.03690       -3.14950
H         -8.26270       -3.83660       -2.12850
