108

C          3.31890        6.30420        7.86740
C          4.47660        6.56100        8.52230
C          5.68580        5.69340        8.53900
O          5.77410        4.52370        8.25770
C          6.80000        6.60260        8.89960
C          8.15770        6.32800        8.90900
Cl         8.75190        4.75940        8.60210
C          9.04510        7.38190        9.17130
Cl        10.72690        7.08540        9.22390
C          8.56130        8.67820        9.34990
Cl         9.66900        9.96040        9.57470
C          7.18410        8.95160        9.33380
Cl         6.67260       10.58670        9.39690
C          6.29850        7.89290        9.17070
C          4.84310        7.83250        9.13980
C          3.95230        8.65680        9.76590
C          2.55240        8.45070        9.72210
N          1.41080        8.34060        9.73050
C          4.26110        9.69990       10.66760
N          4.39870       10.49860       11.47890
C          2.91100        5.05380        7.27400
C          2.22900        5.09270        6.04370
C          1.88800        3.90890        5.43900
C          1.23240        3.67800        4.12110
O          0.84000        4.50700        3.33620
C          1.17860        2.19780        3.99400
C          1.72160        1.60600        5.15170
C          2.16610        2.66700        6.04770
C          2.77360        2.62690        7.28850
C          3.14660        3.81990        7.88920
C          1.78260        0.23040        5.25700
C          1.32810       -0.54030        4.19460
C          0.81550        0.04140        3.03600
C          0.72590        1.43660        2.94220
C          0.40780       -0.78180        1.89250
C          1.16880       -1.83940        1.44340
F          2.30790       -2.17860        2.07400
C          0.84360       -2.56170        0.28380
F          1.70260       -3.52500       -0.09630
C         -0.26350       -2.26760       -0.48240
C         -1.10230       -1.21970       -0.01360
N         -2.23370       -0.93370       -0.68290
C         -3.00430        0.03980       -0.27090
C         -4.21260        0.32150       -1.10910
C         -3.87580        1.35840       -2.18520
C         -2.66130        0.78950        0.89360
N         -1.57900        0.50540        1.57130
C         -0.76840       -0.48330        1.15180
C         -3.51990        1.88120        1.45420
C         -4.55160        1.29420        2.42150
C         -0.53460       -2.94120       -1.75640
C         -0.93170       -2.17620       -2.86130
C         -1.11760       -2.80750       -4.06830
C         -1.49520       -2.22110       -5.38060
O         -1.75960       -1.07100       -5.63230
C         -1.46010       -3.37740       -6.32200
C         -1.11640       -4.54580       -5.61220
C         -0.91180       -4.19370       -4.21290
C         -0.54810       -4.95320       -3.11830
C         -0.36410       -4.31760       -1.89690
C         -0.98040       -5.74720       -6.28330
C         -1.20980       -5.77510       -7.64870
C         -1.56550       -4.62340       -8.36120
C         -1.67010       -3.39890       -7.67790
C         -1.74450       -4.64020       -9.79010
C         -2.14320       -5.64700      -10.60220
C         -1.86360       -5.55220      -12.06560
O         -1.52690       -4.56800      -12.67610
C         -2.02990       -6.93080      -12.57690
C         -1.75740       -7.41740      -13.84000
C         -1.96520       -8.76940      -14.08570
Cl        -1.64330       -9.44080      -15.63450
C         -2.43960       -9.58860      -13.05620
F         -2.62290      -10.89070      -13.29680
C         -2.72470       -9.10670      -11.78880
C         -2.51720       -7.75740      -11.54770
C         -2.73870       -6.94900      -10.35190
C         -3.55930       -7.28360       -9.31070
C         -4.18150       -8.54340       -9.17670
N         -4.69220       -9.55750       -9.01350
C         -3.94070       -6.38830       -8.28790
N         -4.31820       -5.69460       -7.45610
H          2.64420        7.13430        7.69000
H          2.01290        6.03500        5.56260
H          2.96710        1.68830        7.78420
H          3.60230        3.79790        8.86530
H          2.18390       -0.24540        6.13870
H          1.37290       -1.61590        4.27310
H          0.33390        1.90630        2.05520
H         -5.03590        0.67990       -0.49190
H         -4.51050       -0.60750       -1.59630
H         -4.76150        1.58250       -2.77360
H         -3.51240        2.28200       -1.73880
H         -3.10950        0.97120       -2.85170
H         -4.02460        2.42390        0.65550
H         -2.87590        2.57070        2.00120
H         -4.04580        0.78670        3.23920
H         -5.16950        2.08790        2.83330
H         -5.19710        0.57710        1.91830
H         -1.06700       -1.11090       -2.77460
H         -0.39930       -6.01890       -3.20160
H         -0.08390       -4.90820       -1.03810
H         -0.69520       -6.64790       -5.76180
H         -1.06740       -6.70120       -8.18710
H         -1.92940       -2.49500       -8.20810
H         -1.45550       -3.73030      -10.30860
H         -1.39200       -6.76200      -14.61430
H         -3.08440       -9.79020      -11.03660
