153

C         -3.49680        0.34360      -10.42460
C         -2.83780       -0.19610      -11.47330
C         -3.54240       -0.38160      -12.77390
O         -4.72530       -0.25630      -12.97140
C         -2.47580       -0.68770      -13.75290
C         -2.56310       -0.79610      -15.13070
Cl        -4.06600       -0.71550      -15.93330
C         -1.37730       -0.96560      -15.85910
Cl        -1.43820       -1.13470      -17.55970
C         -0.14450       -0.95530      -15.20510
Cl         1.29260       -1.06560      -16.12610
C         -0.06260       -0.84240      -13.81000
Cl         1.48370       -0.66430      -13.08650
C         -1.24080       -0.77490      -13.07610
C         -1.48130       -0.69440      -11.63910
C         -0.70970       -1.29800      -10.67950
C         -0.89880       -1.27640       -9.28520
N         -0.88310       -1.33070       -8.13570
C          0.35420       -2.18770      -10.95480
N          1.15680       -3.00100      -11.06290
C         -2.93550        0.76720       -9.16650
C         -3.64640        0.49800       -7.98570
C         -3.03370        0.74810       -6.78460
C         -3.50530        0.42930       -5.41030
O         -4.56880       -0.03620       -5.07880
C         -2.35460        0.78570       -4.54240
C         -1.32040        1.33270       -5.32770
C         -1.74770        1.32480       -6.71790
C         -1.10450        1.71390       -7.87870
C         -1.69450        1.40920       -9.09480
C         -0.13100        1.70660       -4.72980
C          0.04400        1.44750       -3.37940
C         -0.95090        0.83730       -2.61170
C         -2.19940        0.56620       -3.19720
C         -0.69190        0.43490       -1.25010
C         -1.18680       -0.67730       -0.58800
N         -1.99230       -1.66780       -1.12660
C         -1.84260       -2.11460       -2.44530
C         -0.59300       -2.16000       -3.05850
C         -0.46140       -2.59310       -4.36300
C         -1.57850       -3.00200       -5.08080
S         -1.52840       -3.60950       -6.73410
C          0.23660       -3.89900       -7.03050
C         -2.83310       -2.95060       -4.47330
C         -2.96500       -2.51350       -3.17660
C         -2.94200       -2.27390       -0.28930
C         -3.16230       -3.65090       -0.34030
C         -4.08740       -4.23410        0.49360
C         -4.81100       -3.46240        1.40300
S         -5.96270       -4.32840        2.41960
C         -6.69610       -3.03160        3.45730
C         -4.59530       -2.09260        1.45670
C         -3.67170       -1.50590        0.61350
C         -0.70320       -0.72700        0.74610
S         -0.88220       -1.85710        2.03740
C          0.18750       -0.90210        3.04610
C          0.68270        0.21710        2.39910
N          1.62540        1.09960        2.90100
C          1.58650        2.43370        2.47350
C          0.36440        3.06850        2.23990
C          0.32770        4.37550        1.80970
C          1.50740        5.08740        1.60330
S          1.32900        6.75590        1.05870
C          3.03490        7.35900        0.91670
C          2.72590        4.46100        1.83090
C          2.76240        3.14770        2.25640
C          2.62990        0.66870        3.77560
C          3.09690        1.50140        4.79240
C          4.06820        1.06430        5.66660
C          4.56680       -0.23370        5.57340
S          5.70300       -0.73640        6.82930
C          6.05650       -2.47370        6.43520
C          4.13850       -1.05500        4.53980
C          3.19840       -0.59780        3.63910
C          0.15630        0.30380        1.08240
S          0.41850        1.36670       -0.25750
C          0.53180       -1.39500        4.36380
C          1.01890       -2.68360        4.53880
F          1.07760       -3.51280        3.47720
C          1.59180       -3.12630        5.72050
C          1.63910       -2.29430        6.82990
C          0.89670       -1.08470        6.77520
N          0.57040       -0.44870        7.91950
C         -0.02770        0.69530        7.83570
C         -0.29520        1.29890        6.56990
O         -0.78910        2.52910        6.57190
C         -1.03710        3.12490        5.30170
C         -1.59950        4.51600        5.52500
N         -0.11910        0.63870        5.45090
C          0.43580       -0.59060        5.52960
C          2.48570       -2.67050        7.92880
C          3.25560       -1.85730        8.69350
C          3.37110       -0.37570        8.63260
O          2.89310        0.39120        7.82710
C          4.17150        0.00040        9.82180
C          4.45580        1.26690       10.29960
Cl         4.01370        2.66200        9.42540
C          5.10880        1.38220       11.53380
Cl         5.50490        2.92670       12.14870
C          5.40000        0.24050       12.28080
Cl         6.10720        0.41020       13.82910
C          5.11360       -1.04210       11.79010
Cl         5.34600       -2.38890       12.82560
C          4.55720       -1.15850       10.52230
C          4.20130       -2.31480        9.71000
C          4.83360       -3.52690        9.71720
C          6.00390       -3.83550       10.44760
N          7.00740       -4.14850       10.90670
C          4.54140       -4.59110        8.83440
N          4.38640       -5.49320        8.14100
H         -4.56740        0.46430      -10.55350
H         -4.61990        0.03330       -8.02270
H         -0.14240        2.20200       -7.84750
H         -1.19070        1.67220      -10.01450
H          0.66520        2.15600       -5.30360
H          0.98550        1.68870       -2.90670
H         -3.02250        0.19290       -2.61000
H          0.28560       -1.85800       -2.50800
H          0.51980       -2.61000       -4.80830
H          0.63460       -4.54860       -6.25680
H          0.76190       -2.94970       -7.07060
H          0.29930       -4.38810       -7.99790
H         -3.70310       -3.25070       -5.03560
H         -3.94320       -2.46990       -2.72260
H         -2.59800       -4.25580       -1.03340
H         -4.25680       -5.29910        0.45980
H         -7.21040       -2.30420        2.83600
H         -5.92730       -2.56270        4.06470
H         -7.41130       -3.54000        4.09630
H         -5.14230       -1.46680        2.14300
H         -3.51850       -0.43690        0.65250
H         -0.55680        2.53100        2.40290
H         -0.61770        4.86340        1.62890
H          3.57130        6.78510        0.16660
H          3.52870        7.30940        1.88270
H          2.95210        8.39370        0.59860
H          3.65760        4.97890        1.67150
H          3.71590        2.66720        2.41750
H          2.68890        2.49450        4.90240
H          4.43910        1.72140        6.43580
H          6.54010       -2.54200        5.46530
H          5.14030       -3.05800        6.46250
H          6.74000       -2.81840        7.20560
H          4.53550       -2.04940        4.41430
H          2.89980       -1.23410        2.81930
H          2.07730       -4.09050        5.73030
H         -0.33410        1.18140        8.75010
H         -1.73870        2.49300        4.74530
H         -0.09650        3.16670        4.74190
H         -2.54560        4.46130        6.05650
H         -1.75440        5.00310        4.56690
H         -0.90440        5.10730        6.11440
H          2.56650       -3.73880        8.08820
