177

C          8.31670        4.01350       -4.92040
C          9.27650        3.27560       -5.57850
C          9.70210        1.92620       -5.18920
O          9.25000        1.21080       -4.32200
C         10.94640        1.67770       -5.96990
C         11.78110        0.57720       -5.92740
Cl        11.37300       -0.81340       -5.02520
C         12.98230        0.62170       -6.64950
Cl        14.02670       -0.73320       -6.65440
C         13.34290        1.78050       -7.33130
Cl        14.85600        1.84790       -8.12860
C         12.49370        2.89890       -7.36710
Cl        13.07180        4.34000       -8.09790
C         11.26210        2.82060       -6.73350
C         10.14240        3.75400       -6.62260
C          9.76000        4.74550       -7.49470
C          8.51830        5.40370       -7.36040
N          7.50460        5.94510       -7.34600
C         10.36480        5.11820       -8.71070
N         10.72100        5.46580       -9.74580
C          7.21370        3.49560       -4.22420
C          6.56760        2.27760       -4.55550
C          5.33850        1.84220       -3.92530
N          4.94610        0.65220       -4.38160
S          5.97830        0.15900       -5.51380
N          6.96390        1.42350       -5.49280
C          4.67580        2.61010       -2.93620
C          5.39730        3.76050       -2.52230
N          5.03230        4.56650       -1.52840
S          6.08610        5.78170       -1.41580
N          7.05240        5.34380       -2.62660
C          6.59590        4.21930       -3.17470
C          3.43970        2.31300       -2.33340
C          2.40510        1.42610       -2.71160
N          2.17650        0.91300       -3.95810
C          1.44340       -0.28680       -4.04960
C          0.34380       -0.38420       -4.90160
C         -0.38960       -1.54720       -4.94590
C         -0.04160       -2.63580       -4.14480
S         -1.07220       -4.05670       -4.26950
C         -0.45720       -5.15890       -2.96470
C          1.07190       -2.54980       -3.31830
C          1.80700       -1.38170       -3.27260
C          2.58970        1.54500       -5.13230
C          2.84770        0.78590       -6.27850
C          3.33560        1.38480       -7.41450
C          3.57840        2.76070       -7.44960
S          4.27040        3.39700       -8.93010
C          4.56950        5.15080       -8.58160
C          3.25390        3.52950       -6.33600
C          2.75040        2.92890       -5.20090
C          1.50880        1.23740       -1.63410
S          0.12030        0.23350       -1.37670
C         -0.10400        0.90450        0.23340
C          0.80800        1.92130        0.51320
N          0.82390        2.73340        1.63610
C         -0.33940        3.28070        2.18720
C         -0.30070        3.79120        3.48710
C         -1.42150        4.35890        4.04820
C         -2.61890        4.41010        3.33950
S         -3.98710        5.20020        4.12410
C         -5.41730        4.56330        3.20560
C         -2.66780        3.89280        2.05380
C         -1.53830        3.34170        1.48200
C          2.07410        3.31690        1.94590
C          2.24000        4.70070        1.96750
C          3.50020        5.24020        2.09520
C          4.61320        4.41090        2.20630
S          6.20130        5.18330        2.22800
C          7.27600        3.87560        1.56480
C          4.44160        3.03570        2.27910
C          3.17780        2.49390        2.14620
C          1.74160        2.05670       -0.53990
S          3.10830        3.09230       -0.79050
C         -1.10530        0.33160        1.06190
S         -2.35130       -0.65930        0.32270
C         -3.00260       -1.00840        1.87150
C         -4.06430       -1.81510        2.39740
C         -4.02430       -1.67690        3.80230
C         -2.89130       -0.75850        4.22840
C         -1.95110       -1.57850        5.09800
C         -0.88540       -2.27690        4.54920
C         -0.06530       -3.05020        5.35060
C         -0.29110       -3.15330        6.71600
C          0.57490       -4.02590        7.57770
C          0.00110       -5.44230        7.65030
C         -1.36950       -2.46600        7.25790
C         -2.19040       -1.69060        6.46220
C         -3.34590        0.49630        4.94910
C         -4.67240        0.90190        4.95230
C         -5.05920        2.02350        5.66450
C         -4.13500        2.77310        6.37850
C         -4.57150        3.92970        7.22870
C         -4.88240        3.45460        8.64930
C         -2.80110        2.38770        6.33290
C         -2.40870        1.27080        5.62240
C         -2.30000       -0.39220        2.89070
C         -1.22720        0.37510        2.43930
C         -4.92710       -2.36180        4.58670
C         -5.85310       -3.19520        3.98030
C         -5.89130       -3.34950        2.58980
C         -5.00270       -2.62370        1.78770
C         -6.85880       -4.20630        1.94270
C         -7.28770       -5.42000        2.36210
C         -6.63350       -6.26730        3.40510
O         -5.77480       -5.95220        4.19750
C         -7.20290       -7.61330        3.21880
C         -6.88590       -8.78400        3.88340
C         -7.55690       -9.94230        3.53150
C         -8.52530       -9.94430        2.52660
C         -9.21200      -11.22050        2.15830
C         -8.83790       -8.76190        1.86070
C         -8.17990       -7.59300        2.20860
C         -8.30320       -6.23160        1.70250
C         -9.26030       -5.77830        0.83770
C         -9.41960       -4.43050        0.44710
N         -9.62270       -3.35490        0.10120
C        -10.24850       -6.59800        0.25130
N        -11.07210       -7.21460       -0.25750
H          8.42110        5.09200       -4.88820
H          0.06440        0.46130       -5.51190
H         -1.25080       -1.62610       -5.59100
H         -1.13160       -6.00950       -2.95970
H          0.54990       -5.49180       -3.19810
H         -0.49650       -4.65010       -2.00620
H          1.37950       -3.38290       -2.70810
H          2.67740       -1.31230       -2.63760
H          2.71010       -0.28370       -6.25080
H          3.55910        0.79370       -8.28900
H          5.00550        5.55340       -9.49080
H          5.28010        5.25680       -7.76700
H          3.63060        5.65450       -8.37160
H          3.39010        4.59870       -6.34310
H          2.48680        3.54570       -4.35510
H          0.62040        3.74610        4.04890
H         -1.38250        4.77200        5.04350
H         -6.29100        4.85590        3.77920
H         -5.46560        5.01070        2.21710
H         -5.35170        3.48070        3.15040
H         -3.57570        3.93150        1.47380
H         -1.58880        2.98350        0.46570
H          1.38240        5.34370        1.83900
H          3.64170        6.30930        2.07130
H          8.18760        4.36950        1.24300
H          7.50910        3.14590        2.33470
H          6.78420        3.40710        0.71760
H          5.28440        2.37820        2.41960
H          3.04440        1.42200        2.16280
H         -0.68810       -2.21610        3.48880
H          0.76490       -3.58080        4.90600
H          0.63290       -3.60960        8.58550
H          1.58550       -4.06740        7.16640
H         -0.05390       -5.87930        6.65580
H          0.62730       -6.07510        8.27500
H         -1.00230       -5.42270        8.06930
H         -1.56780       -2.53610        8.31790
H         -3.01610       -1.15570        6.90850
H         -5.41350        0.33130        4.41080
H         -6.10070        2.31340        5.67320
H         -3.78310        4.68300        7.26170
H         -5.46160        4.39220        6.79950
H         -4.00220        2.99950        9.09800
H         -5.19550        4.29100        9.26950
H         -5.68000        2.71480        8.63530
H         -2.06200        2.96330        6.87080
H         -1.36840        0.97930        5.61100
H         -0.54230        0.90130        3.07620
H         -4.91600       -2.25640        5.66050
H         -6.57770       -3.71090        4.58830
H         -5.02830       -2.72220        0.71230
H         -7.22970       -3.83480        0.99380
H         -6.13410       -8.77850        4.65770
H         -7.33030      -10.86780        4.04050
H         -8.52290      -11.86980        1.61780
H        -10.07400      -11.03200        1.52430
H         -9.53640      -11.75280        3.05030
H         -9.58190       -8.77290        1.08040
