
  xtb     02112204233D
 energy: -359.660154329843 gnorm: 0.000237231287 xtb: 6.4.1 (unknown)
198216  0     0  0            999 V2000
    6.8135   -7.6049    8.1734 C   0  0  0  0  0  0  0  0  0  0  0  0
    5.8854   -8.4878    8.6220 C   0  0  0  0  0  0  0  0  0  0  0  0
    4.4157   -8.3633    8.4343 C   0  0  0  0  0  0  0  0  0  0  0  0
    3.8140   -7.6243    7.6933 O   0  0  0  0  0  0  0  0  0  0  0  0
    3.8219   -9.2678    9.4478 C   0  0  0  0  0  0  0  0  0  0  0  0
    2.4844   -9.4308    9.7672 C   0  0  0  0  0  0  0  0  0  0  0  0
    1.2548   -8.6568    8.8741 Cl  0  0  0  0  0  0  0  0  0  0  0  0
    2.1579  -10.2508   10.8567 C   0  0  0  0  0  0  0  0  0  0  0  0
    0.5193  -10.5113   11.2668 Cl  0  0  0  0  0  0  0  0  0  0  0  0
    3.1684  -10.8193   11.6319 C   0  0  0  0  0  0  0  0  0  0  0  0
    2.7472  -11.7327   13.0145 Cl  0  0  0  0  0  0  0  0  0  0  0  0
    4.5232  -10.6437   11.3081 C   0  0  0  0  0  0  0  0  0  0  0  0
    5.7066  -11.2270   12.4035 Cl  0  0  0  0  0  0  0  0  0  0  0  0
    4.8462   -9.9193   10.1663 C   0  0  0  0  0  0  0  0  0  0  0  0
    6.1223   -9.5912    9.5437 C   0  0  0  0  0  0  0  0  0  0  0  0
    7.2901  -10.3023    9.5998 C   0  0  0  0  0  0  0  0  0  0  0  0
    7.4732  -11.5745   10.1844 C   0  0  0  0  0  0  0  0  0  0  0  0
    7.7049  -12.6406   10.5393 N   0  0  0  0  0  0  0  0  0  0  0  0
    8.4639   -9.9173    8.9112 C   0  0  0  0  0  0  0  0  0  0  0  0
    9.4534   -9.6636    8.3884 N   0  0  0  0  0  0  0  0  0  0  0  0
    6.6048   -6.5612    7.2030 C   0  0  0  0  0  0  0  0  0  0  0  0
    5.8012   -6.7521    6.0651 C   0  0  0  0  0  0  0  0  0  0  0  0
    5.6119   -5.6952    5.2100 C   0  0  0  0  0  0  0  0  0  0  0  0
    4.7953   -5.6292    3.9688 C   0  0  0  0  0  0  0  0  0  0  0  0
    4.1703   -6.5148    3.4352 O   0  0  0  0  0  0  0  0  0  0  0  0
    4.8909   -4.2070    3.5463 C   0  0  0  0  0  0  0  0  0  0  0  0
    5.7176   -3.5006    4.4451 C   0  0  0  0  0  0  0  0  0  0  0  0
    6.1855   -4.4283    5.4591 C   0  0  0  0  0  0  0  0  0  0  0  0
    7.0271   -4.2551    6.5453 C   0  0  0  0  0  0  0  0  0  0  0  0
    7.2450   -5.3281    7.3914 C   0  0  0  0  0  0  0  0  0  0  0  0
    5.8781   -2.1359    4.2871 C   0  0  0  0  0  0  0  0  0  0  0  0
    5.1961   -1.4867    3.2701 C   0  0  0  0  0  0  0  0  0  0  0  0
    4.3745   -2.1782    2.3688 C   0  0  0  0  0  0  0  0  0  0  0  0
    4.2493   -3.5744    2.5154 C   0  0  0  0  0  0  0  0  0  0  0  0
    3.5400   -1.5167    1.4008 C   0  0  0  0  0  0  0  0  0  0  0  0
    3.4630   -0.1844    1.0120 C   0  0  0  0  0  0  0  0  0  0  0  0
    4.4299    0.7868    1.2215 N   0  0  0  0  0  0  0  0  0  0  0  0
    5.7873    0.5188    1.0176 C   0  0  0  0  0  0  0  0  0  0  0  0
    6.7539    1.2805    1.6802 C   0  0  0  0  0  0  0  0  0  0  0  0
    8.0919    1.0129    1.5068 C   0  0  0  0  0  0  0  0  0  0  0  0
    8.5064   -0.0270    0.6759 C   0  0  0  0  0  0  0  0  0  0  0  0
   10.2479   -0.2822    0.5473 S   0  0  0  0  0  0  0  0  0  0  0  0
   10.4031   -1.7192   -0.5499 C   0  0  0  0  0  0  0  0  0  0  0  0
    7.5513   -0.7837    0.0119 C   0  0  0  0  0  0  0  0  0  0  0  0
    6.2080   -0.5102    0.1799 C   0  0  0  0  0  0  0  0  0  0  0  0
    3.9918    2.1022    1.4533 C   0  0  0  0  0  0  0  0  0  0  0  0
    3.0025    2.3307    2.4088 C   0  0  0  0  0  0  0  0  0  0  0  0
    2.5366    3.6063    2.6313 C   0  0  0  0  0  0  0  0  0  0  0  0
    3.0526    4.6817    1.9098 C   0  0  0  0  0  0  0  0  0  0  0  0
    2.3701    6.2660    2.2774 S   0  0  0  0  0  0  0  0  0  0  0  0
    3.2207    7.3897    1.1341 C   0  0  0  0  0  0  0  0  0  0  0  0
    4.0502    4.4584    0.9697 C   0  0  0  0  0  0  0  0  0  0  0  0
    4.5136    3.1774    0.7426 C   0  0  0  0  0  0  0  0  0  0  0  0
    2.2674    0.0678    0.2910 C   0  0  0  0  0  0  0  0  0  0  0  0
    1.5287    1.4926   -0.3450 S   0  0  0  0  0  0  0  0  0  0  0  0
    0.1491    0.5492   -0.9106 C   0  0  0  0  0  0  0  0  0  0  0  0
    0.3202   -0.8147   -0.7131 C   0  0  0  0  0  0  0  0  0  0  0  0
   -0.4847   -1.7980   -1.2491 N   0  0  0  0  0  0  0  0  0  0  0  0
   -1.2114   -1.5720   -2.4329 C   0  0  0  0  0  0  0  0  0  0  0  0
   -2.4479   -2.1956   -2.5902 C   0  0  0  0  0  0  0  0  0  0  0  0
   -3.1807   -2.0089   -3.7419 C   0  0  0  0  0  0  0  0  0  0  0  0
   -2.7025   -1.1846   -4.7585 C   0  0  0  0  0  0  0  0  0  0  0  0
   -3.7549   -0.9663   -6.1602 S   0  0  0  0  0  0  0  0  0  0  0  0
   -2.6427   -0.3112   -7.4388 C   0  0  0  0  0  0  0  0  0  0  0  0
   -1.4614   -0.5793   -4.6153 C   0  0  0  0  0  0  0  0  0  0  0  0
   -0.7178   -0.7850   -3.4696 C   0  0  0  0  0  0  0  0  0  0  0  0
   -0.3311   -3.1423   -0.8466 C   0  0  0  0  0  0  0  0  0  0  0  0
   -0.3584   -3.4991    0.4970 C   0  0  0  0  0  0  0  0  0  0  0  0
   -0.1365   -4.8079    0.8861 C   0  0  0  0  0  0  0  0  0  0  0  0
    0.1112   -5.7852   -0.0666 C   0  0  0  0  0  0  0  0  0  0  0  0
    0.4516   -7.4712    0.3209 S   0  0  0  0  0  0  0  0  0  0  0  0
    0.9642   -7.4224    2.0617 C   0  0  0  0  0  0  0  0  0  0  0  0
    0.0842   -5.4405   -1.4181 C   0  0  0  0  0  0  0  0  0  0  0  0
   -0.1306   -4.1376   -1.8048 C   0  0  0  0  0  0  0  0  0  0  0  0
    1.5026   -1.0584    0.0322 C   0  0  0  0  0  0  0  0  0  0  0  0
    2.2322   -2.4673    0.7029 S   0  0  0  0  0  0  0  0  0  0  0  0
   -0.9711    1.2543   -1.4582 C   0  0  0  0  0  0  0  0  0  0  0  0
   -2.3080    1.1815   -1.0850 C   0  0  0  0  0  0  0  0  0  0  0  0
   -2.8052    0.4277   -0.0413 N   0  0  0  0  0  0  0  0  0  0  0  0
   -2.0359    0.2226    1.1143 C   0  0  0  0  0  0  0  0  0  0  0  0
   -1.1623    1.1990    1.5867 C   0  0  0  0  0  0  0  0  0  0  0  0
   -0.3788    0.9547    2.6957 C   0  0  0  0  0  0  0  0  0  0  0  0
   -0.4488   -0.2551    3.3749 C   0  0  0  0  0  0  0  0  0  0  0  0
    0.4599   -0.5457    4.5302 C   0  0  0  0  0  0  0  0  0  0  0  0
   -1.3738   -1.1969    2.9402 C   0  0  0  0  0  0  0  0  0  0  0  0
   -2.1570   -0.9684    1.8244 C   0  0  0  0  0  0  0  0  0  0  0  0
   -4.1783    0.1086   -0.0087 C   0  0  0  0  0  0  0  0  0  0  0  0
   -4.9109    0.2592    1.1649 C   0  0  0  0  0  0  0  0  0  0  0  0
   -6.2595   -0.0355    1.1831 C   0  0  0  0  0  0  0  0  0  0  0  0
   -6.9147   -0.4813    0.0421 C   0  0  0  0  0  0  0  0  0  0  0  0
   -8.3849   -0.7603    0.0505 C   0  0  0  0  0  0  0  0  0  0  0  0
   -6.1744   -0.6347   -1.1228 C   0  0  0  0  0  0  0  0  0  0  0  0
   -4.8250   -0.3452   -1.1544 C   0  0  0  0  0  0  0  0  0  0  0  0
   -3.1000    2.0681   -1.8559 C   0  0  0  0  0  0  0  0  0  0  0  0
   -4.7739    2.4817   -1.8185 S   0  0  0  0  0  0  0  0  0  0  0  0
   -4.5090    3.7140   -3.0560 C   0  0  0  0  0  0  0  0  0  0  0  0
   -3.1354    3.8195   -3.4128 C   0  0  0  0  0  0  0  0  0  0  0  0
   -2.6073    4.7485   -4.2667 N   0  0  0  0  0  0  0  0  0  0  0  0
   -1.4670    4.4201   -5.0212 C   0  0  0  0  0  0  0  0  0  0  0  0
   -1.3788    3.1792   -5.6474 C   0  0  0  0  0  0  0  0  0  0  0  0
   -0.2653    2.8634   -6.3984 C   0  0  0  0  0  0  0  0  0  0  0  0
    0.7804    3.7674   -6.5501 C   0  0  0  0  0  0  0  0  0  0  0  0
    1.9886    3.4018   -7.3552 C   0  0  0  0  0  0  0  0  0  0  0  0
    0.6792    5.0042   -5.9259 C   0  0  0  0  0  0  0  0  0  0  0  0
   -0.4276    5.3328   -5.1686 C   0  0  0  0  0  0  0  0  0  0  0  0
   -3.0961    6.0692   -4.3272 C   0  0  0  0  0  0  0  0  0  0  0  0
   -3.1617    6.7334   -5.5493 C   0  0  0  0  0  0  0  0  0  0  0  0
   -3.6513    8.0228   -5.6052 C   0  0  0  0  0  0  0  0  0  0  0  0
   -4.0862    8.6784   -4.4585 C   0  0  0  0  0  0  0  0  0  0  0  0
   -4.6480   10.0635   -4.5460 C   0  0  0  0  0  0  0  0  0  0  0  0
   -3.9937    8.0136   -3.2412 C   0  0  0  0  0  0  0  0  0  0  0  0
   -3.4977    6.7273   -3.1677 C   0  0  0  0  0  0  0  0  0  0  0  0
   -2.3728    2.8466   -2.7487 C   0  0  0  0  0  0  0  0  0  0  0  0
   -0.6794    2.4821   -2.6864 S   0  0  0  0  0  0  0  0  0  0  0  0
   -5.5200    4.4264   -3.6880 C   0  0  0  0  0  0  0  0  0  0  0  0
   -6.8798    4.4667   -3.4491 C   0  0  0  0  0  0  0  0  0  0  0  0
   -7.5965    3.7824   -2.3813 C   0  0  0  0  0  0  0  0  0  0  0  0
   -7.1712    2.9635   -1.5882 O   0  0  0  0  0  0  0  0  0  0  0  0
   -8.9805    4.3143   -2.4187 C   0  0  0  0  0  0  0  0  0  0  0  0
  -10.0249    4.0560   -1.5515 C   0  0  0  0  0  0  0  0  0  0  0  0
   -9.8934    2.8745   -0.3280 Cl  0  0  0  0  0  0  0  0  0  0  0  0
  -11.2037    4.8018   -1.6917 C   0  0  0  0  0  0  0  0  0  0  0  0
  -12.5384    4.4918   -0.6678 Cl  0  0  0  0  0  0  0  0  0  0  0  0
  -11.2689    5.8268   -2.6322 C   0  0  0  0  0  0  0  0  0  0  0  0
  -12.6764    6.7968   -2.7141 Cl  0  0  0  0  0  0  0  0  0  0  0  0
  -10.1980    6.0909   -3.5027 C   0  0  0  0  0  0  0  0  0  0  0  0
  -10.2889    7.4877   -4.4943 Cl  0  0  0  0  0  0  0  0  0  0  0  0
   -9.0766    5.2739   -3.4464 C   0  0  0  0  0  0  0  0  0  0  0  0
   -7.8304    5.2414   -4.2140 C   0  0  0  0  0  0  0  0  0  0  0  0
   -7.6539    5.6860   -5.5024 C   0  0  0  0  0  0  0  0  0  0  0  0
   -6.4441    5.6047   -6.2224 C   0  0  0  0  0  0  0  0  0  0  0  0
   -5.5068    5.5895   -6.8881 N   0  0  0  0  0  0  0  0  0  0  0  0
   -8.6688    6.1174   -6.3819 C   0  0  0  0  0  0  0  0  0  0  0  0
   -9.4162    6.3869   -7.2110 N   0  0  0  0  0  0  0  0  0  0  0  0
    7.7977   -7.6272    8.6269 H   0  0  0  0  0  0  0  0  0  0  0  0
    5.3628   -7.7121    5.8481 H   0  0  0  0  0  0  0  0  0  0  0  0
    7.5016   -3.3043    6.7349 H   0  0  0  0  0  0  0  0  0  0  0  0
    7.8905   -5.2053    8.2493 H   0  0  0  0  0  0  0  0  0  0  0  0
    6.4958   -1.5662    4.9648 H   0  0  0  0  0  0  0  0  0  0  0  0
    5.2752   -0.4150    3.2061 H   0  0  0  0  0  0  0  0  0  0  0  0
    3.6258   -4.1417    1.8399 H   0  0  0  0  0  0  0  0  0  0  0  0
    6.4460    2.0800    2.3378 H   0  0  0  0  0  0  0  0  0  0  0  0
    8.8361    1.6005    2.0219 H   0  0  0  0  0  0  0  0  0  0  0  0
   10.0026   -1.4838   -1.5317 H   0  0  0  0  0  0  0  0  0  0  0  0
    9.9010   -2.5768   -0.1116 H   0  0  0  0  0  0  0  0  0  0  0  0
   11.4684   -1.9143   -0.6248 H   0  0  0  0  0  0  0  0  0  0  0  0
    7.8355   -1.5883   -0.6466 H   0  0  0  0  0  0  0  0  0  0  0  0
    5.4802   -1.1024   -0.3535 H   0  0  0  0  0  0  0  0  0  0  0  0
    2.6119    1.4941    2.9691 H   0  0  0  0  0  0  0  0  0  0  0  0
    1.7724    3.7941    3.3704 H   0  0  0  0  0  0  0  0  0  0  0  0
    2.7996    8.3720    1.3246 H   0  0  0  0  0  0  0  0  0  0  0  0
    4.2863    7.3999    1.3441 H   0  0  0  0  0  0  0  0  0  0  0  0
    3.0205    7.0952    0.1080 H   0  0  0  0  0  0  0  0  0  0  0  0
    4.4700    5.2703    0.3985 H   0  0  0  0  0  0  0  0  0  0  0  0
    5.2811    3.0065    0.0024 H   0  0  0  0  0  0  0  0  0  0  0  0
   -2.8281   -2.8269   -1.8013 H   0  0  0  0  0  0  0  0  0  0  0  0
   -4.1390   -2.4904   -3.8622 H   0  0  0  0  0  0  0  0  0  0  0  0
   -3.1969   -0.3795   -8.3699 H   0  0  0  0  0  0  0  0  0  0  0  0
   -1.7496   -0.9263   -7.4932 H   0  0  0  0  0  0  0  0  0  0  0  0
   -2.3993    0.7278   -7.2373 H   0  0  0  0  0  0  0  0  0  0  0  0
   -1.0554    0.0511   -5.3893 H   0  0  0  0  0  0  0  0  0  0  0  0
    0.2599   -0.3341   -3.3892 H   0  0  0  0  0  0  0  0  0  0  0  0
   -0.5494   -2.7440    1.2418 H   0  0  0  0  0  0  0  0  0  0  0  0
   -0.1508   -5.0487    1.9367 H   0  0  0  0  0  0  0  0  0  0  0  0
    1.3249   -8.4214    2.2856 H   0  0  0  0  0  0  0  0  0  0  0  0
    1.7724   -6.7093    2.1927 H   0  0  0  0  0  0  0  0  0  0  0  0
    0.1176   -7.1892    2.7007 H   0  0  0  0  0  0  0  0  0  0  0  0
    0.2581   -6.2068   -2.1575 H   0  0  0  0  0  0  0  0  0  0  0  0
   -0.1230   -3.8776   -2.8530 H   0  0  0  0  0  0  0  0  0  0  0  0
   -1.1038    2.1557    1.0893 H   0  0  0  0  0  0  0  0  0  0  0  0
    0.2899    1.7275    3.0421 H   0  0  0  0  0  0  0  0  0  0  0  0
    0.7744    0.3732    5.0199 H   0  0  0  0  0  0  0  0  0  0  0  0
   -0.0307   -1.1843    5.2612 H   0  0  0  0  0  0  0  0  0  0  0  0
    1.3534   -1.0666    4.1790 H   0  0  0  0  0  0  0  0  0  0  0  0
   -1.4754   -2.1291    3.4782 H   0  0  0  0  0  0  0  0  0  0  0  0
   -2.8643   -1.7133    1.4900 H   0  0  0  0  0  0  0  0  0  0  0  0
   -4.4227    0.6204    2.0584 H   0  0  0  0  0  0  0  0  0  0  0  0
   -6.8156    0.0983    2.0997 H   0  0  0  0  0  0  0  0  0  0  0  0
   -8.9160    0.0763   -0.4032 H   0  0  0  0  0  0  0  0  0  0  0  0
   -8.6141   -1.6536   -0.5271 H   0  0  0  0  0  0  0  0  0  0  0  0
   -8.7544   -0.8889    1.0649 H   0  0  0  0  0  0  0  0  0  0  0  0
   -6.6611   -0.9793   -2.0234 H   0  0  0  0  0  0  0  0  0  0  0  0
   -4.2662   -0.4662   -2.0689 H   0  0  0  0  0  0  0  0  0  0  0  0
   -2.1960    2.4799   -5.5432 H   0  0  0  0  0  0  0  0  0  0  0  0
   -0.2019    1.9033   -6.8913 H   0  0  0  0  0  0  0  0  0  0  0  0
    2.6412    2.7507   -6.7727 H   0  0  0  0  0  0  0  0  0  0  0  0
    2.5535    4.2875   -7.6339 H   0  0  0  0  0  0  0  0  0  0  0  0
    1.7038    2.8666   -8.2588 H   0  0  0  0  0  0  0  0  0  0  0  0
    1.4802    5.7213   -6.0304 H   0  0  0  0  0  0  0  0  0  0  0  0
   -0.4918    6.2961   -4.6850 H   0  0  0  0  0  0  0  0  0  0  0  0
   -2.8468    6.2299   -6.4494 H   0  0  0  0  0  0  0  0  0  0  0  0
   -3.7122    8.5233   -6.5597 H   0  0  0  0  0  0  0  0  0  0  0  0
   -3.9779   10.7146   -5.1045 H   0  0  0  0  0  0  0  0  0  0  0  0
   -5.6040   10.0464   -5.0691 H   0  0  0  0  0  0  0  0  0  0  0  0
   -4.8046   10.4854   -3.5566 H   0  0  0  0  0  0  0  0  0  0  0  0
   -4.3077    8.5106   -2.3349 H   0  0  0  0  0  0  0  0  0  0  0  0
   -3.4272    6.2237   -2.2147 H   0  0  0  0  0  0  0  0  0  0  0  0
   -5.1748    5.0692   -4.4867 H   0  0  0  0  0  0  0  0  0  0  0  0
  1  2  2  0  0  0  0
  2  3  1  0  0  0  0
  3  4  2  0  0  0  0
  3  5  1  0  0  0  0
  5  6  2  0  0  0  0
  6  7  1  0  0  0  0
  6  8  1  0  0  0  0
  8  9  1  0  0  0  0
  8 10  2  0  0  0  0
 10 11  1  0  0  0  0
 10 12  1  0  0  0  0
 12 13  1  0  0  0  0
 12 14  2  0  0  0  0
 14 15  1  0  0  0  0
 15 16  2  0  0  0  0
 16 17  1  0  0  0  0
 17 18  3  0  0  0  0
 16 19  1  0  0  0  0
 19 20  3  0  0  0  0
  1 21  1  0  0  0  0
 21 22  2  0  0  0  0
 22 23  1  0  0  0  0
 23 24  1  0  0  0  0
 24 25  2  0  0  0  0
 24 26  1  0  0  0  0
 26 27  2  0  0  0  0
 27 28  1  0  0  0  0
 28 29  1  0  0  0  0
 29 30  2  0  0  0  0
 27 31  1  0  0  0  0
 31 32  2  0  0  0  0
 32 33  1  0  0  0  0
 33 34  2  0  0  0  0
 33 35  1  0  0  0  0
 35 36  2  0  0  0  0
 36 37  1  0  0  0  0
 37 38  1  0  0  0  0
 38 39  2  0  0  0  0
 39 40  1  0  0  0  0
 40 41  2  0  0  0  0
 41 42  1  0  0  0  0
 42 43  1  0  0  0  0
 41 44  1  0  0  0  0
 44 45  2  0  0  0  0
 37 46  1  0  0  0  0
 46 47  2  0  0  0  0
 47 48  1  0  0  0  0
 48 49  2  0  0  0  0
 49 50  1  0  0  0  0
 50 51  1  0  0  0  0
 49 52  1  0  0  0  0
 52 53  2  0  0  0  0
 36 54  1  0  0  0  0
 54 55  1  0  0  0  0
 55 56  1  0  0  0  0
 56 57  2  0  0  0  0
 57 58  1  0  0  0  0
 58 59  1  0  0  0  0
 59 60  2  0  0  0  0
 60 61  1  0  0  0  0
 61 62  2  0  0  0  0
 62 63  1  0  0  0  0
 63 64  1  0  0  0  0
 62 65  1  0  0  0  0
 65 66  2  0  0  0  0
 58 67  1  0  0  0  0
 67 68  2  0  0  0  0
 68 69  1  0  0  0  0
 69 70  2  0  0  0  0
 70 71  1  0  0  0  0
 71 72  1  0  0  0  0
 70 73  1  0  0  0  0
 73 74  2  0  0  0  0
 57 75  1  0  0  0  0
 75 76  1  0  0  0  0
 56 77  1  0  0  0  0
 77 78  2  0  0  0  0
 78 79  1  0  0  0  0
 79 80  1  0  0  0  0
 80 81  2  0  0  0  0
 81 82  1  0  0  0  0
 82 83  2  0  0  0  0
 83 84  1  0  0  0  0
 83 85  1  0  0  0  0
 85 86  2  0  0  0  0
 79 87  1  0  0  0  0
 87 88  2  0  0  0  0
 88 89  1  0  0  0  0
 89 90  2  0  0  0  0
 90 91  1  0  0  0  0
 90 92  1  0  0  0  0
 92 93  2  0  0  0  0
 78 94  1  0  0  0  0
 94 95  1  0  0  0  0
 95 96  1  0  0  0  0
 96 97  2  0  0  0  0
 97 98  1  0  0  0  0
 98 99  1  0  0  0  0
 99100  2  0  0  0  0
100101  1  0  0  0  0
101102  2  0  0  0  0
102103  1  0  0  0  0
102104  1  0  0  0  0
104105  2  0  0  0  0
 98106  1  0  0  0  0
106107  2  0  0  0  0
107108  1  0  0  0  0
108109  2  0  0  0  0
109110  1  0  0  0  0
109111  1  0  0  0  0
111112  2  0  0  0  0
 97113  1  0  0  0  0
113114  1  0  0  0  0
 96115  1  0  0  0  0
115116  2  0  0  0  0
116117  1  0  0  0  0
117118  2  0  0  0  0
117119  1  0  0  0  0
119120  2  0  0  0  0
120121  1  0  0  0  0
120122  1  0  0  0  0
122123  1  0  0  0  0
122124  2  0  0  0  0
124125  1  0  0  0  0
124126  1  0  0  0  0
126127  1  0  0  0  0
126128  2  0  0  0  0
128129  1  0  0  0  0
129130  2  0  0  0  0
130131  1  0  0  0  0
131132  3  0  0  0  0
130133  1  0  0  0  0
133134  3  0  0  0  0
 15  2  1  0  0  0  0
 30 21  1  0  0  0  0
 76 35  1  0  0  0  0
114 77  1  0  0  0  0
129116  1  0  0  0  0
 14  5  1  0  0  0  0
 28 23  2  0  0  0  0
 45 38  1  0  0  0  0
 53 46  1  0  0  0  0
 75 54  2  0  0  0  0
 86 80  1  0  0  0  0
 93 87  1  0  0  0  0
113 94  2  0  0  0  0
128119  1  0  0  0  0
 34 26  1  0  0  0  0
 66 59  1  0  0  0  0
 74 67  1  0  0  0  0
105 99  1  0  0  0  0
112106  1  0  0  0  0
  1135  1  0  0  0  0
 22136  1  0  0  0  0
 29137  1  0  0  0  0
 30138  1  0  0  0  0
 31139  1  0  0  0  0
 32140  1  0  0  0  0
 34141  1  0  0  0  0
 39142  1  0  0  0  0
 40143  1  0  0  0  0
 43144  1  0  0  0  0
 43145  1  0  0  0  0
 43146  1  0  0  0  0
 44147  1  0  0  0  0
 45148  1  0  0  0  0
 47149  1  0  0  0  0
 48150  1  0  0  0  0
 51151  1  0  0  0  0
 51152  1  0  0  0  0
 51153  1  0  0  0  0
 52154  1  0  0  0  0
 53155  1  0  0  0  0
 60156  1  0  0  0  0
 61157  1  0  0  0  0
 64158  1  0  0  0  0
 64159  1  0  0  0  0
 64160  1  0  0  0  0
 65161  1  0  0  0  0
 66162  1  0  0  0  0
 68163  1  0  0  0  0
 69164  1  0  0  0  0
 72165  1  0  0  0  0
 72166  1  0  0  0  0
 72167  1  0  0  0  0
 73168  1  0  0  0  0
 74169  1  0  0  0  0
 81170  1  0  0  0  0
 82171  1  0  0  0  0
 84172  1  0  0  0  0
 84173  1  0  0  0  0
 84174  1  0  0  0  0
 85175  1  0  0  0  0
 86176  1  0  0  0  0
 88177  1  0  0  0  0
 89178  1  0  0  0  0
 91179  1  0  0  0  0
 91180  1  0  0  0  0
 91181  1  0  0  0  0
 92182  1  0  0  0  0
 93183  1  0  0  0  0
100184  1  0  0  0  0
101185  1  0  0  0  0
103186  1  0  0  0  0
103187  1  0  0  0  0
103188  1  0  0  0  0
104189  1  0  0  0  0
105190  1  0  0  0  0
107191  1  0  0  0  0
108192  1  0  0  0  0
110193  1  0  0  0  0
110194  1  0  0  0  0
110195  1  0  0  0  0
111196  1  0  0  0  0
112197  1  0  0  0  0
115198  1  0  0  0  0
M  END
