
  xtb     02042204543D
 energy: -315.558891255672 gnorm: 0.000445766875 xtb: 6.4.1 (unknown)
177194  0     0  0            999 V2000
    8.3167    4.0135   -4.9204 C   0  0  0  0  0  0  0  0  0  0  0  0
    9.2765    3.2756   -5.5785 C   0  0  0  0  0  0  0  0  0  0  0  0
    9.7021    1.9262   -5.1892 C   0  0  0  0  0  0  0  0  0  0  0  0
    9.2500    1.2108   -4.3220 O   0  0  0  0  0  0  0  0  0  0  0  0
   10.9464    1.6777   -5.9699 C   0  0  0  0  0  0  0  0  0  0  0  0
   11.7811    0.5772   -5.9274 C   0  0  0  0  0  0  0  0  0  0  0  0
   11.3730   -0.8134   -5.0252 Cl  0  0  0  0  0  0  0  0  0  0  0  0
   12.9823    0.6217   -6.6495 C   0  0  0  0  0  0  0  0  0  0  0  0
   14.0267   -0.7332   -6.6544 Cl  0  0  0  0  0  0  0  0  0  0  0  0
   13.3429    1.7805   -7.3313 C   0  0  0  0  0  0  0  0  0  0  0  0
   14.8560    1.8479   -8.1286 Cl  0  0  0  0  0  0  0  0  0  0  0  0
   12.4937    2.8989   -7.3671 C   0  0  0  0  0  0  0  0  0  0  0  0
   13.0718    4.3400   -8.0979 Cl  0  0  0  0  0  0  0  0  0  0  0  0
   11.2621    2.8206   -6.7335 C   0  0  0  0  0  0  0  0  0  0  0  0
   10.1424    3.7540   -6.6226 C   0  0  0  0  0  0  0  0  0  0  0  0
    9.7600    4.7455   -7.4947 C   0  0  0  0  0  0  0  0  0  0  0  0
    8.5183    5.4037   -7.3604 C   0  0  0  0  0  0  0  0  0  0  0  0
    7.5046    5.9451   -7.3460 N   0  0  0  0  0  0  0  0  0  0  0  0
   10.3648    5.1182   -8.7107 C   0  0  0  0  0  0  0  0  0  0  0  0
   10.7210    5.4658   -9.7458 N   0  0  0  0  0  0  0  0  0  0  0  0
    7.2137    3.4956   -4.2242 C   0  0  0  0  0  0  0  0  0  0  0  0
    6.5676    2.2776   -4.5555 C   0  0  0  0  0  0  0  0  0  0  0  0
    5.3385    1.8422   -3.9253 C   0  0  0  0  0  0  0  0  0  0  0  0
    4.9461    0.6522   -4.3816 N   0  0  0  0  0  0  0  0  0  0  0  0
    5.9783    0.1590   -5.5138 S   0  0  0  0  0  4  0  0  0  0  0  0
    6.9639    1.4235   -5.4928 N   0  0  0  0  0  0  0  0  0  0  0  0
    4.6758    2.6101   -2.9362 C   0  0  0  0  0  0  0  0  0  0  0  0
    5.3973    3.7605   -2.5223 C   0  0  0  0  0  0  0  0  0  0  0  0
    5.0323    4.5665   -1.5284 N   0  0  0  0  0  0  0  0  0  0  0  0
    6.0861    5.7817   -1.4158 S   0  0  0  0  0  0  0  0  0  0  0  0
    7.0524    5.3438   -2.6266 N   0  0  0  0  0  0  0  0  0  0  0  0
    6.5959    4.2193   -3.1747 C   0  0  0  0  0  0  0  0  0  0  0  0
    3.4397    2.3130   -2.3334 C   0  0  0  0  0  0  0  0  0  0  0  0
    2.4051    1.4261   -2.7116 C   0  0  0  0  0  0  0  0  0  0  0  0
    2.1765    0.9130   -3.9581 N   0  0  0  0  0  0  0  0  0  0  0  0
    1.4434   -0.2868   -4.0496 C   0  0  0  0  0  0  0  0  0  0  0  0
    0.3438   -0.3842   -4.9016 C   0  0  0  0  0  0  0  0  0  0  0  0
   -0.3896   -1.5472   -4.9459 C   0  0  0  0  0  0  0  0  0  0  0  0
   -0.0416   -2.6358   -4.1448 C   0  0  0  0  0  0  0  0  0  0  0  0
   -1.0722   -4.0567   -4.2695 S   0  0  0  0  0  0  0  0  0  0  0  0
   -0.4572   -5.1589   -2.9647 C   0  0  0  0  0  0  0  0  0  0  0  0
    1.0719   -2.5498   -3.3183 C   0  0  0  0  0  0  0  0  0  0  0  0
    1.8070   -1.3817   -3.2726 C   0  0  0  0  0  0  0  0  0  0  0  0
    2.5897    1.5450   -5.1323 C   0  0  0  0  0  0  0  0  0  0  0  0
    2.8477    0.7859   -6.2785 C   0  0  0  0  0  0  0  0  0  0  0  0
    3.3356    1.3848   -7.4145 C   0  0  0  0  0  0  0  0  0  0  0  0
    3.5784    2.7607   -7.4496 C   0  0  0  0  0  0  0  0  0  0  0  0
    4.2704    3.3970   -8.9301 S   0  0  0  0  0  0  0  0  0  0  0  0
    4.5695    5.1508   -8.5816 C   0  0  0  0  0  0  0  0  0  0  0  0
    3.2539    3.5295   -6.3360 C   0  0  0  0  0  0  0  0  0  0  0  0
    2.7504    2.9289   -5.2009 C   0  0  0  0  0  0  0  0  0  0  0  0
    1.5088    1.2374   -1.6341 C   0  0  0  0  0  0  0  0  0  0  0  0
    0.1203    0.2335   -1.3767 S   0  0  0  0  0  0  0  0  0  0  0  0
   -0.1040    0.9045    0.2334 C   0  0  0  0  0  0  0  0  0  0  0  0
    0.8080    1.9213    0.5132 C   0  0  0  0  0  0  0  0  0  0  0  0
    0.8239    2.7334    1.6361 N   0  0  0  0  0  0  0  0  0  0  0  0
   -0.3394    3.2807    2.1872 C   0  0  0  0  0  0  0  0  0  0  0  0
   -0.3007    3.7912    3.4871 C   0  0  0  0  0  0  0  0  0  0  0  0
   -1.4215    4.3589    4.0482 C   0  0  0  0  0  0  0  0  0  0  0  0
   -2.6189    4.4101    3.3395 C   0  0  0  0  0  0  0  0  0  0  0  0
   -3.9871    5.2002    4.1241 S   0  0  0  0  0  0  0  0  0  0  0  0
   -5.4173    4.5633    3.2056 C   0  0  0  0  0  0  0  0  0  0  0  0
   -2.6678    3.8928    2.0538 C   0  0  0  0  0  0  0  0  0  0  0  0
   -1.5383    3.3417    1.4820 C   0  0  0  0  0  0  0  0  0  0  0  0
    2.0741    3.3169    1.9459 C   0  0  0  0  0  0  0  0  0  0  0  0
    2.2400    4.7007    1.9675 C   0  0  0  0  0  0  0  0  0  0  0  0
    3.5002    5.2402    2.0952 C   0  0  0  0  0  0  0  0  0  0  0  0
    4.6132    4.4109    2.2063 C   0  0  0  0  0  0  0  0  0  0  0  0
    6.2013    5.1833    2.2280 S   0  0  0  0  0  0  0  0  0  0  0  0
    7.2760    3.8756    1.5648 C   0  0  0  0  0  0  0  0  0  0  0  0
    4.4416    3.0357    2.2791 C   0  0  0  0  0  0  0  0  0  0  0  0
    3.1778    2.4939    2.1462 C   0  0  0  0  0  0  0  0  0  0  0  0
    1.7416    2.0567   -0.5399 C   0  0  0  0  0  0  0  0  0  0  0  0
    3.1083    3.0923   -0.7905 S   0  0  0  0  0  0  0  0  0  0  0  0
   -1.1053    0.3316    1.0619 C   0  0  0  0  0  0  0  0  0  0  0  0
   -2.3513   -0.6593    0.3227 S   0  0  0  0  0  0  0  0  0  0  0  0
   -3.0026   -1.0084    1.8715 C   0  0  0  0  0  0  0  0  0  0  0  0
   -4.0643   -1.8151    2.3974 C   0  0  0  0  0  0  0  0  0  0  0  0
   -4.0243   -1.6769    3.8023 C   0  0  0  0  0  0  0  0  0  0  0  0
   -2.8913   -0.7585    4.2284 C   0  0  0  0  0  0  0  0  0  0  0  0
   -1.9511   -1.5785    5.0980 C   0  0  0  0  0  0  0  0  0  0  0  0
   -0.8854   -2.2769    4.5492 C   0  0  0  0  0  0  0  0  0  0  0  0
   -0.0653   -3.0502    5.3506 C   0  0  0  0  0  0  0  0  0  0  0  0
   -0.2911   -3.1533    6.7160 C   0  0  0  0  0  0  0  0  0  0  0  0
    0.5749   -4.0259    7.5777 C   0  0  0  0  0  0  0  0  0  0  0  0
    0.0011   -5.4423    7.6503 C   0  0  0  0  0  0  0  0  0  0  0  0
   -1.3695   -2.4660    7.2579 C   0  0  0  0  0  0  0  0  0  0  0  0
   -2.1904   -1.6906    6.4622 C   0  0  0  0  0  0  0  0  0  0  0  0
   -3.3459    0.4963    4.9491 C   0  0  0  0  0  0  0  0  0  0  0  0
   -4.6724    0.9019    4.9523 C   0  0  0  0  0  0  0  0  0  0  0  0
   -5.0592    2.0235    5.6645 C   0  0  0  0  0  0  0  0  0  0  0  0
   -4.1350    2.7731    6.3785 C   0  0  0  0  0  0  0  0  0  0  0  0
   -4.5715    3.9297    7.2287 C   0  0  0  0  0  0  0  0  0  0  0  0
   -4.8824    3.4546    8.6493 C   0  0  0  0  0  0  0  0  0  0  0  0
   -2.8011    2.3877    6.3329 C   0  0  0  0  0  0  0  0  0  0  0  0
   -2.4087    1.2708    5.6224 C   0  0  0  0  0  0  0  0  0  0  0  0
   -2.3000   -0.3922    2.8907 C   0  0  0  0  0  0  0  0  0  0  0  0
   -1.2272    0.3751    2.4393 C   0  0  0  0  0  0  0  0  0  0  0  0
   -4.9271   -2.3618    4.5867 C   0  0  0  0  0  0  0  0  0  0  0  0
   -5.8531   -3.1952    3.9803 C   0  0  0  0  0  0  0  0  0  0  0  0
   -5.8913   -3.3495    2.5898 C   0  0  0  0  0  0  0  0  0  0  0  0
   -5.0027   -2.6237    1.7877 C   0  0  0  0  0  0  0  0  0  0  0  0
   -6.8588   -4.2063    1.9427 C   0  0  0  0  0  0  0  0  0  0  0  0
   -7.2877   -5.4200    2.3621 C   0  0  0  0  0  0  0  0  0  0  0  0
   -6.6335   -6.2673    3.4051 C   0  0  0  0  0  0  0  0  0  0  0  0
   -5.7748   -5.9522    4.1975 O   0  0  0  0  0  0  0  0  0  0  0  0
   -7.2029   -7.6133    3.2188 C   0  0  0  0  0  0  0  0  0  0  0  0
   -6.8859   -8.7840    3.8834 C   0  0  0  0  0  0  0  0  0  0  0  0
   -7.5569   -9.9423    3.5315 C   0  0  0  0  0  0  0  0  0  0  0  0
   -8.5253   -9.9443    2.5266 C   0  0  0  0  0  0  0  0  0  0  0  0
   -9.2120  -11.2205    2.1583 C   0  0  0  0  0  0  0  0  0  0  0  0
   -8.8379   -8.7619    1.8607 C   0  0  0  0  0  0  0  0  0  0  0  0
   -8.1799   -7.5930    2.2086 C   0  0  0  0  0  0  0  0  0  0  0  0
   -8.3032   -6.2316    1.7025 C   0  0  0  0  0  0  0  0  0  0  0  0
   -9.2603   -5.7783    0.8377 C   0  0  0  0  0  0  0  0  0  0  0  0
   -9.4196   -4.4305    0.4471 C   0  0  0  0  0  0  0  0  0  0  0  0
   -9.6227   -3.3549    0.1012 N   0  0  0  0  0  0  0  0  0  0  0  0
  -10.2485   -6.5980    0.2513 C   0  0  0  0  0  0  0  0  0  0  0  0
  -11.0721   -7.2146   -0.2575 N   0  0  0  0  0  0  0  0  0  0  0  0
    8.4211    5.0920   -4.8882 H   0  0  0  0  0  0  0  0  0  0  0  0
    0.0644    0.4613   -5.5119 H   0  0  0  0  0  0  0  0  0  0  0  0
   -1.2508   -1.6261   -5.5910 H   0  0  0  0  0  0  0  0  0  0  0  0
   -1.1316   -6.0095   -2.9597 H   0  0  0  0  0  0  0  0  0  0  0  0
    0.5499   -5.4918   -3.1981 H   0  0  0  0  0  0  0  0  0  0  0  0
   -0.4965   -4.6501   -2.0062 H   0  0  0  0  0  0  0  0  0  0  0  0
    1.3795   -3.3829   -2.7081 H   0  0  0  0  0  0  0  0  0  0  0  0
    2.6774   -1.3123   -2.6376 H   0  0  0  0  0  0  0  0  0  0  0  0
    2.7101   -0.2837   -6.2508 H   0  0  0  0  0  0  0  0  0  0  0  0
    3.5591    0.7937   -8.2890 H   0  0  0  0  0  0  0  0  0  0  0  0
    5.0055    5.5534   -9.4908 H   0  0  0  0  0  0  0  0  0  0  0  0
    5.2801    5.2568   -7.7670 H   0  0  0  0  0  0  0  0  0  0  0  0
    3.6306    5.6545   -8.3716 H   0  0  0  0  0  0  0  0  0  0  0  0
    3.3901    4.5987   -6.3431 H   0  0  0  0  0  0  0  0  0  0  0  0
    2.4868    3.5457   -4.3551 H   0  0  0  0  0  0  0  0  0  0  0  0
    0.6204    3.7461    4.0489 H   0  0  0  0  0  0  0  0  0  0  0  0
   -1.3825    4.7720    5.0435 H   0  0  0  0  0  0  0  0  0  0  0  0
   -6.2910    4.8559    3.7792 H   0  0  0  0  0  0  0  0  0  0  0  0
   -5.4656    5.0107    2.2171 H   0  0  0  0  0  0  0  0  0  0  0  0
   -5.3517    3.4807    3.1504 H   0  0  0  0  0  0  0  0  0  0  0  0
   -3.5757    3.9315    1.4738 H   0  0  0  0  0  0  0  0  0  0  0  0
   -1.5888    2.9835    0.4657 H   0  0  0  0  0  0  0  0  0  0  0  0
    1.3824    5.3437    1.8390 H   0  0  0  0  0  0  0  0  0  0  0  0
    3.6417    6.3093    2.0713 H   0  0  0  0  0  0  0  0  0  0  0  0
    8.1876    4.3695    1.2430 H   0  0  0  0  0  0  0  0  0  0  0  0
    7.5091    3.1459    2.3347 H   0  0  0  0  0  0  0  0  0  0  0  0
    6.7842    3.4071    0.7176 H   0  0  0  0  0  0  0  0  0  0  0  0
    5.2844    2.3782    2.4196 H   0  0  0  0  0  0  0  0  0  0  0  0
    3.0444    1.4220    2.1628 H   0  0  0  0  0  0  0  0  0  0  0  0
   -0.6881   -2.2161    3.4888 H   0  0  0  0  0  0  0  0  0  0  0  0
    0.7649   -3.5808    4.9060 H   0  0  0  0  0  0  0  0  0  0  0  0
    0.6329   -3.6096    8.5855 H   0  0  0  0  0  0  0  0  0  0  0  0
    1.5855   -4.0674    7.1664 H   0  0  0  0  0  0  0  0  0  0  0  0
   -0.0539   -5.8793    6.6558 H   0  0  0  0  0  0  0  0  0  0  0  0
    0.6273   -6.0751    8.2750 H   0  0  0  0  0  0  0  0  0  0  0  0
   -1.0023   -5.4227    8.0693 H   0  0  0  0  0  0  0  0  0  0  0  0
   -1.5678   -2.5361    8.3179 H   0  0  0  0  0  0  0  0  0  0  0  0
   -3.0161   -1.1557    6.9085 H   0  0  0  0  0  0  0  0  0  0  0  0
   -5.4135    0.3313    4.4108 H   0  0  0  0  0  0  0  0  0  0  0  0
   -6.1007    2.3134    5.6732 H   0  0  0  0  0  0  0  0  0  0  0  0
   -3.7831    4.6830    7.2617 H   0  0  0  0  0  0  0  0  0  0  0  0
   -5.4616    4.3922    6.7995 H   0  0  0  0  0  0  0  0  0  0  0  0
   -4.0022    2.9995    9.0980 H   0  0  0  0  0  0  0  0  0  0  0  0
   -5.1955    4.2910    9.2695 H   0  0  0  0  0  0  0  0  0  0  0  0
   -5.6800    2.7148    8.6353 H   0  0  0  0  0  0  0  0  0  0  0  0
   -2.0620    2.9633    6.8708 H   0  0  0  0  0  0  0  0  0  0  0  0
   -1.3684    0.9793    5.6110 H   0  0  0  0  0  0  0  0  0  0  0  0
   -0.5423    0.9013    3.0762 H   0  0  0  0  0  0  0  0  0  0  0  0
   -4.9160   -2.2564    5.6605 H   0  0  0  0  0  0  0  0  0  0  0  0
   -6.5777   -3.7109    4.5883 H   0  0  0  0  0  0  0  0  0  0  0  0
   -5.0283   -2.7222    0.7123 H   0  0  0  0  0  0  0  0  0  0  0  0
   -7.2297   -3.8348    0.9938 H   0  0  0  0  0  0  0  0  0  0  0  0
   -6.1341   -8.7785    4.6577 H   0  0  0  0  0  0  0  0  0  0  0  0
   -7.3303  -10.8678    4.0405 H   0  0  0  0  0  0  0  0  0  0  0  0
   -8.5229  -11.8698    1.6178 H   0  0  0  0  0  0  0  0  0  0  0  0
  -10.0740  -11.0320    1.5243 H   0  0  0  0  0  0  0  0  0  0  0  0
   -9.5364  -11.7528    3.0503 H   0  0  0  0  0  0  0  0  0  0  0  0
   -9.5819   -8.7729    1.0804 H   0  0  0  0  0  0  0  0  0  0  0  0
  1  2  2  0  0  0  0
  2  3  1  0  0  0  0
  3  4  2  0  0  0  0
  3  5  1  0  0  0  0
  5  6  2  0  0  0  0
  6  7  1  0  0  0  0
  6  8  1  0  0  0  0
  8  9  1  0  0  0  0
  8 10  2  0  0  0  0
 10 11  1  0  0  0  0
 10 12  1  0  0  0  0
 12 13  1  0  0  0  0
 12 14  2  0  0  0  0
 14 15  1  0  0  0  0
 15 16  2  0  0  0  0
 16 17  1  0  0  0  0
 17 18  3  0  0  0  0
 16 19  1  0  0  0  0
 19 20  3  0  0  0  0
  1 21  1  0  0  0  0
 21 22  2  0  0  0  0
 22 23  1  0  0  0  0
 23 24  1  0  0  0  0
 24 25  2  0  0  0  0
 25 26  2  0  0  0  0
 23 27  2  0  0  0  0
 27 28  1  0  0  0  0
 28 29  2  0  0  0  0
 29 30  1  0  0  0  0
 30 31  1  0  0  0  0
 31 32  2  0  0  0  0
 27 33  1  0  0  0  0
 33 34  2  0  0  0  0
 34 35  1  0  0  0  0
 35 36  1  0  0  0  0
 36 37  2  0  0  0  0
 37 38  1  0  0  0  0
 38 39  2  0  0  0  0
 39 40  1  0  0  0  0
 40 41  1  0  0  0  0
 39 42  1  0  0  0  0
 42 43  2  0  0  0  0
 35 44  1  0  0  0  0
 44 45  2  0  0  0  0
 45 46  1  0  0  0  0
 46 47  2  0  0  0  0
 47 48  1  0  0  0  0
 48 49  1  0  0  0  0
 47 50  1  0  0  0  0
 50 51  2  0  0  0  0
 34 52  1  0  0  0  0
 52 53  1  0  0  0  0
 53 54  1  0  0  0  0
 54 55  2  0  0  0  0
 55 56  1  0  0  0  0
 56 57  1  0  0  0  0
 57 58  2  0  0  0  0
 58 59  1  0  0  0  0
 59 60  2  0  0  0  0
 60 61  1  0  0  0  0
 61 62  1  0  0  0  0
 60 63  1  0  0  0  0
 63 64  2  0  0  0  0
 56 65  1  0  0  0  0
 65 66  2  0  0  0  0
 66 67  1  0  0  0  0
 67 68  2  0  0  0  0
 68 69  1  0  0  0  0
 69 70  1  0  0  0  0
 68 71  1  0  0  0  0
 71 72  2  0  0  0  0
 55 73  1  0  0  0  0
 73 74  1  0  0  0  0
 54 75  1  0  0  0  0
 75 76  1  0  0  0  0
 76 77  1  0  0  0  0
 77 78  1  0  0  0  0
 78 79  2  0  0  0  0
 79 80  1  0  0  0  0
 80 81  1  0  0  0  0
 81 82  2  0  0  0  0
 82 83  1  0  0  0  0
 83 84  2  0  0  0  0
 84 85  1  0  0  0  0
 85 86  1  0  0  0  0
 84 87  1  0  0  0  0
 87 88  2  0  0  0  0
 80 89  1  0  0  0  0
 89 90  2  0  0  0  0
 90 91  1  0  0  0  0
 91 92  2  0  0  0  0
 92 93  1  0  0  0  0
 93 94  1  0  0  0  0
 92 95  1  0  0  0  0
 95 96  2  0  0  0  0
 80 97  1  0  0  0  0
 97 98  1  0  0  0  0
 79 99  1  0  0  0  0
 99100  2  0  0  0  0
100101  1  0  0  0  0
101102  2  0  0  0  0
101103  1  0  0  0  0
103104  2  0  0  0  0
104105  1  0  0  0  0
105106  2  0  0  0  0
105107  1  0  0  0  0
107108  2  0  0  0  0
108109  1  0  0  0  0
109110  2  0  0  0  0
110111  1  0  0  0  0
110112  1  0  0  0  0
112113  2  0  0  0  0
113114  1  0  0  0  0
114115  2  0  0  0  0
115116  1  0  0  0  0
116117  3  0  0  0  0
115118  1  0  0  0  0
118119  3  0  0  0  0
 15  2  1  0  0  0  0
 32 21  1  0  0  0  0
 74 33  1  0  0  0  0
 98 75  2  0  0  0  0
114104  1  0  0  0  0
 14  5  1  0  0  0  0
 26 22  1  0  0  0  0
 32 28  1  0  0  0  0
 43 36  1  0  0  0  0
 51 44  1  0  0  0  0
 73 52  2  0  0  0  0
 97 77  2  0  0  0  0
113107  1  0  0  0  0
 64 57  1  0  0  0  0
 72 65  1  0  0  0  0
102 78  1  0  0  0  0
 88 81  1  0  0  0  0
 96 89  1  0  0  0  0
  1120  1  0  0  0  0
 37121  1  0  0  0  0
 38122  1  0  0  0  0
 41123  1  0  0  0  0
 41124  1  0  0  0  0
 41125  1  0  0  0  0
 42126  1  0  0  0  0
 43127  1  0  0  0  0
 45128  1  0  0  0  0
 46129  1  0  0  0  0
 49130  1  0  0  0  0
 49131  1  0  0  0  0
 49132  1  0  0  0  0
 50133  1  0  0  0  0
 51134  1  0  0  0  0
 58135  1  0  0  0  0
 59136  1  0  0  0  0
 62137  1  0  0  0  0
 62138  1  0  0  0  0
 62139  1  0  0  0  0
 63140  1  0  0  0  0
 64141  1  0  0  0  0
 66142  1  0  0  0  0
 67143  1  0  0  0  0
 70144  1  0  0  0  0
 70145  1  0  0  0  0
 70146  1  0  0  0  0
 71147  1  0  0  0  0
 72148  1  0  0  0  0
 82149  1  0  0  0  0
 83150  1  0  0  0  0
 85151  1  0  0  0  0
 85152  1  0  0  0  0
 86153  1  0  0  0  0
 86154  1  0  0  0  0
 86155  1  0  0  0  0
 87156  1  0  0  0  0
 88157  1  0  0  0  0
 90158  1  0  0  0  0
 91159  1  0  0  0  0
 93160  1  0  0  0  0
 93161  1  0  0  0  0
 94162  1  0  0  0  0
 94163  1  0  0  0  0
 94164  1  0  0  0  0
 95165  1  0  0  0  0
 96166  1  0  0  0  0
 98167  1  0  0  0  0
 99168  1  0  0  0  0
100169  1  0  0  0  0
102170  1  0  0  0  0
103171  1  0  0  0  0
108172  1  0  0  0  0
109173  1  0  0  0  0
111174  1  0  0  0  0
111175  1  0  0  0  0
111176  1  0  0  0  0
112177  1  0  0  0  0
M  END
