165

C          1.86780        9.55080        5.45700
C          3.06490        9.78880        6.06350
C          3.23730       10.86820        7.06250
O          2.48090       11.77900        7.29570
C          4.51040       10.53740        7.76020
C          5.05630       11.10000        8.90030
Cl         4.35700       12.47070        9.63820
C          6.20350       10.50690        9.44970
Cl         6.92500       11.18420       10.84400
C          6.73620        9.34730        8.88770
Cl         8.07840        8.59280        9.63020
C          6.18140        8.78140        7.72930
Cl         6.77450        7.27470        7.16210
C          5.10090        9.41860        7.13850
C          4.33090        9.09980        5.94160
C          4.82390        8.56570        4.78050
C          4.04340        8.40280        3.61940
N          3.46170        8.22580        2.64470
C          6.17400        8.25820        4.51460
N          7.24490        8.04900        4.15770
C          1.47980        8.34150        4.82580
C          2.02440        7.07950        5.14320
C          1.58360        5.86890        4.49460
N          2.20840        4.78970        4.98040
S          3.24560        5.24480        6.10570
N          2.95430        6.81950        6.07120
C          0.65600        5.85020        3.43680
C          0.10540        7.11150        3.11380
N         -0.79590        7.36800        2.16320
S         -1.13190        8.93780        2.16470
N         -0.16630        9.38520        3.36370
C          0.47900        8.31570        3.82820
C          0.35370        4.64460        2.75230
C         -0.36270        4.50300        1.58880
C         -0.46630        3.17070        1.15090
C         -1.10880        2.69310       -0.01840
C         -1.45650        3.59930       -1.08210
C         -2.47620        3.56980       -2.00240
C         -2.41200        4.61860       -2.92580
C         -1.33470        5.46280       -2.74480
C         -0.96110        6.54590       -3.60030
C          0.07560        7.40020       -3.47950
C          0.97260        7.54540       -2.36350
C          0.72150        7.62830       -1.01870
C          1.86910        7.80100       -0.23150
C          3.01850        7.85910       -0.97180
S          4.62490        7.99650       -0.31280
C          5.62010        8.14810       -1.84770
C          7.08420        8.30220       -1.48800
S          2.68590        7.72930       -2.67140
S         -0.38510        4.93690       -1.39500
C         -1.25850        1.31410       -0.11030
C         -0.70520        0.40500        0.82860
C          0.04630        0.88390        1.92600
C          0.70200        0.00690        2.87080
C          0.28100       -1.17080        3.43570
C          1.18850       -1.69180        4.36720
C          2.32260       -0.92770        4.52790
C          3.34130       -1.13330        5.51410
C          4.37570       -0.32750        5.80740
C          4.76890        0.84370        5.05130
C          5.13850        0.92140        3.73890
C          5.47770        2.21930        3.31620
C          5.35910        3.14440        4.31160
S          5.65050        4.87360        4.26930
C          5.46920        5.23310        2.48510
C          4.05940        5.01610        1.97600
S          4.85960        2.41590        5.80660
S          2.26510        0.45680        3.48330
C          0.13930        2.26600        2.05850
S          0.93960        3.11570        3.35720
C         -0.93730       -0.93820        0.45430
C         -1.65820       -1.07280       -0.70000
S         -2.06090        0.47410       -1.40700
C         -2.09370       -2.28200       -1.31770
C         -1.98320       -3.55390       -0.82800
C         -2.53210       -4.53590       -1.68270
C         -2.60810       -5.92470       -1.45950
C         -1.96490       -6.53940       -0.31220
S         -2.81720       -7.64150        0.72870
C         -1.43100       -7.88820        1.73450
C         -1.47060       -8.84400        2.87490
C         -1.29540      -10.28280        2.38280
C         -0.37520       -7.16010        1.27310
Cl         1.17730       -7.15060        2.00620
C         -0.67360       -6.39180        0.11620
Cl         0.51570       -5.45330       -0.69350
C         -3.31220       -6.66970       -2.39420
C         -3.89840       -6.10090       -3.55720
C         -3.79530       -4.71070       -3.80090
C         -4.40650       -4.10190       -4.95950
C         -5.60950       -4.39070       -5.54800
C         -5.89110       -3.57460       -6.65870
C         -4.90980       -2.67030       -6.93510
C         -4.87160       -1.63560       -8.00530
C         -5.06340       -0.23360       -7.42270
S         -3.61030       -2.79690       -5.79940
C         -3.10180       -3.96960       -2.85080
S         -2.89380       -2.23950       -2.86950
C         -4.51220       -7.07460       -4.36780
C         -4.45740       -8.34560       -3.85060
S         -3.55310       -8.38790       -2.33860
C         -4.96020       -9.57190       -4.34050
C         -5.96680       -9.79380       -5.23740
C         -6.96740       -8.81290       -5.72460
O         -6.97130       -7.60570       -5.60510
C         -8.02990       -9.61820       -6.35810
C         -9.21940       -9.17870       -6.90630
C        -10.10320      -10.10280       -7.45090
C        -11.40750       -9.70270       -8.05770
C         -9.73260      -11.44920       -7.41150
F        -10.58620      -12.35160       -7.92900
C         -8.54530      -11.91550       -6.87160
C         -7.67770      -10.97720       -6.33430
C         -6.37330      -11.11270       -5.69590
C         -5.64120      -12.26690       -5.61980
C         -4.33570      -12.37350       -5.09320
N         -3.26880      -12.54280       -4.70420
C         -6.08940      -13.51490       -6.10310
N         -6.40080      -14.55640       -6.47090
H          1.11880       10.33220        5.50870
H         -0.81410        5.34940        1.10750
H         -3.26360        2.83770       -1.98950
H         -3.13390        4.76100       -3.71060
H         -1.57060        6.62230       -4.49230
H          0.29330        8.04270       -4.32430
H         -0.27230        7.59690       -0.60870
H          1.87720        7.88250        0.83880
H          5.44800        7.24890       -2.44010
H          5.24970        9.01740       -2.39170
H          7.67860        8.39650       -2.39400
H          7.43280        7.43700       -0.92900
H          7.23490        9.18850       -0.87660
H         -0.67780       -1.61550        3.23630
H          1.01020       -2.59420        4.92550
H          3.18130       -2.00720        6.13290
H          4.96690       -0.54050        6.68870
H          5.18130        0.06250        3.09340
H          5.79440        2.44330        2.31460
H          5.76390        6.27800        2.39160
H          6.19780        4.61530        1.96250
H          4.04410        5.13980        0.89570
H          3.38370        5.75240        2.40370
H          3.69800        4.01960        2.22330
H         -0.55970       -1.77900        1.00390
H         -1.55010       -3.77940        0.12800
H         -0.66850       -8.59280        3.57100
H         -2.42680       -8.75270        3.39330
H         -0.34050      -10.39450        1.87540
H         -1.32610      -10.97100        3.22310
H         -2.09010      -10.54270        1.68760
H         -6.29150       -5.13470       -5.17860
H         -6.79340       -3.65910       -7.23790
H         -3.91060       -1.67820       -8.52400
H         -5.66160       -1.84690       -8.72880
H         -5.03360        0.51070       -8.21420
H         -6.02220       -0.16380       -6.91430
H         -4.27550       -0.01350       -6.70610
H         -4.94740       -6.85910       -5.32310
H         -4.50520      -10.44440       -3.88570
H         -9.45300       -8.12480       -6.90630
H        -11.53510       -8.62480       -8.02490
H        -12.23050      -10.17600       -7.52300
H        -11.45980      -10.03840       -9.09280
H         -8.34090      -12.97330       -6.87880
