191

C          2.10330       -2.73850      -10.96070
C          1.24570       -3.08210      -11.95910
C          1.60780       -2.89320      -13.38390
O          2.71310       -2.74200      -13.84320
C          0.30370       -2.84890      -14.09690
C          0.04150       -2.51650      -15.41480
Cl         1.30360       -2.23090      -16.52670
C         -1.29780       -2.40920      -15.81940
Cl        -1.66600       -2.02300      -17.44390
C         -2.32910       -2.57950      -14.89620
Cl        -3.94910       -2.35550      -15.39440
C         -2.05890       -2.92120      -13.56190
Cl        -3.34800       -2.97520      -12.43400
C         -0.73880       -3.11020      -13.18240
C         -0.13750       -3.51650      -11.91620
C         -0.61840       -4.44310      -11.03120
C         -1.85370       -5.11790      -11.11340
N         -2.80810       -5.75420      -11.12850
C          0.19990       -4.97800      -10.01150
N          0.86390       -5.47930       -9.22090
C          1.78220       -2.44290       -9.61530
C          2.68330       -2.19320       -8.60710
C          2.08980       -1.80830       -7.39000
C          2.72820       -1.51070       -6.16130
C          4.11360       -1.84090       -5.93270
C          4.81330       -2.91610       -6.42150
C          6.11900       -3.01200       -5.90930
C          6.43460       -2.01380       -5.03670
C          7.68650       -1.81840       -4.25510
C          7.45990       -2.13110       -2.77360
S          5.10270       -0.92740       -4.82890
C          1.91390       -0.97250       -5.17030
C          0.50430       -0.86850       -5.27870
C         -0.14650       -1.30780       -6.45170
C         -1.58720       -1.39940       -6.53670
C         -2.45890       -1.81350       -5.56720
C         -3.79700       -1.85730       -6.00180
C         -3.96000       -1.47990       -7.29960
C         -5.21670       -1.38680       -8.09290
C         -5.54540        0.06110       -8.46020
S         -2.44040       -1.05820       -8.01710
C          0.67900       -1.70370       -7.49790
S          0.13270       -2.17340       -9.07950
C         -0.08150       -0.35900       -4.09310
C          0.81540       -0.14420       -3.09080
S          2.46320       -0.43160       -3.61390
C          0.60310        0.23330       -1.72760
C          1.22250       -0.33290       -0.61980
N          1.95690       -1.50690       -0.66320
C          3.00530       -1.72740        0.22990
C          3.29790       -3.01930        0.66940
C          4.29270       -3.22880        1.59780
C          4.99710       -2.15340        2.12820
S          6.19560       -2.48750        3.38470
C          6.08930       -0.98300        4.39880
C          4.75150       -0.87340        1.65290
C          3.77360       -0.66470        0.70190
C          1.58840       -2.49800       -1.59360
C          0.24150       -2.77330       -1.82710
C         -0.12800       -3.60110       -2.86190
C          0.83590       -4.17050       -3.69250
S          0.23860       -5.06430       -5.08940
C          1.72010       -5.29670       -6.10500
C          2.18050       -3.98650       -3.39370
C          2.55180       -3.15950       -2.35130
C          0.90990        0.39040        0.55790
S          1.36280        0.23870        2.22720
C          0.46230        1.69360        2.60040
C         -0.29750        2.15880        1.52520
N         -1.30260        3.10330        1.61660
C         -1.58950        3.92030        0.51490
C         -2.91000        4.24220        0.19890
C         -3.18630        5.03250       -0.89230
C         -2.15520        5.51600       -1.69800
S         -2.63760        6.50660       -3.07500
C         -1.08570        6.79510       -3.97130
C         -0.83980        5.21010       -1.37850
C         -0.56170        4.42210       -0.27840
C         -2.04780        3.23350        2.80030
C         -2.36190        2.11790        3.57320
C         -2.94210        2.25900        4.81700
C         -3.24040        3.52480        5.30610
S         -3.89090        3.82890        6.91780
C         -3.74940        2.22300        7.75180
C         -3.01940        4.63710        4.49740
C         -2.42770        4.49530        3.26230
C          0.01730        1.43330        0.35120
S         -0.47230        1.55260       -1.30720
C          0.53960        2.24610        3.90840
C          0.31520        3.59230        4.19350
C          0.11620        4.03620        5.48610
C          0.14080        3.16650        6.57700
C          0.61760        1.83650        6.33180
N          0.78730        0.97680        7.34430
C          1.22620       -0.23870        7.10450
C          1.27560       -1.14700        8.25310
C          0.89780       -2.48330        8.13760
C          0.92010       -3.30610        9.24690
C          1.31750       -2.80940       10.47780
C          1.67940       -1.47820       10.60150
C          1.65250       -0.64840        9.49800
C          1.59740       -0.62670        5.77800
N          1.35120        0.17970        4.76990
C          0.84370        1.39510        5.00640
C          2.27780       -1.88990        5.47810
C          3.32390       -2.34640        6.27820
C          3.94930       -3.54210        5.98280
C          3.53010       -4.30010        4.90150
C          2.49980       -3.84460        4.09600
C          1.88690       -2.63720        4.37060
C         -0.33040        3.42900        7.89310
C         -1.04640        4.45440        8.44610
C         -1.41410        5.78180        7.89330
O         -1.15890        6.26530        6.80860
C         -2.13700        6.47950        8.97320
C         -2.67320        7.75000        8.95260
C         -3.29200        8.23920       10.09990
C         -3.90780        9.60200       10.11350
C         -3.34450        7.43050       11.23390
C         -2.81180        6.15110       11.25840
C         -2.20180        5.66260       10.11210
C         -1.58560        4.37930        9.79940
C         -1.61580        3.28310       10.62310
C         -1.19580        1.96940       10.32070
N         -0.94800        0.85490       10.18460
C         -2.15500        3.29540       11.92740
N         -2.56660        3.22400       12.99720
H          3.13250       -2.56250      -11.25420
H          3.74570       -2.26130       -8.75730
H          4.39060       -3.64820       -7.08650
H          6.80090       -3.80020       -6.17520
H          8.46120       -2.47410       -4.65730
H          8.02570       -0.78440       -4.35390
H          8.37980       -1.98850       -2.21280
H          6.69600       -1.47530       -2.36110
H          7.13420       -3.16140       -2.64870
H         -2.14080       -2.12860       -4.59020
H         -4.61220       -2.17050       -5.37380
H         -5.11280       -1.97330       -9.00980
H         -6.03210       -1.81490       -7.50620
H         -4.74380        0.48830       -9.05860
H         -6.46820        0.10390       -9.03290
H         -5.66460        0.66240       -7.56170
H         -1.13510       -0.18630       -3.97360
H          2.72580       -3.85370        0.29200
H          4.52160       -4.22570        1.93960
H          5.04490       -0.70610        4.50570
H          6.66640       -0.17920        3.95060
H          6.50960       -1.24000        5.36580
H          5.32390       -0.03310        2.01240
H          3.60680        0.32930        0.31530
H         -0.51310       -2.30780       -1.21040
H         -1.16980       -3.80510       -3.05610
H          2.23440       -4.34560       -6.20120
H          1.36610       -5.62480       -7.07840
H          2.36330       -6.05370       -5.66540
H          2.95020       -4.45820       -3.98300
H          3.59850       -2.98590       -2.14970
H         -3.71260        3.86040        0.81170
H         -4.20640        5.27850       -1.14360
H         -1.36500        7.33280       -4.87200
H         -0.63050        5.84480       -4.23430
H         -0.41510        7.40500       -3.37310
H         -0.01970        5.58280       -1.97000
H          0.46510        4.20060       -0.02640
H         -2.12410        1.12910        3.20960
H         -3.14920        1.37420        5.39710
H         -2.72030        1.87470        7.71540
H         -4.04470        2.39850        8.78200
H         -4.42680        1.50410        7.30050
H         -3.27470        5.61670        4.86880
H         -2.22100        5.36880        2.66240
H          0.27290        4.30290        3.38320
H         -0.12050        5.07420        5.64730
H          0.56410       -2.87060        7.18590
H          0.62020       -4.33940        9.15160
H          1.33520       -3.45790       11.34110
H          1.97530       -1.08480       11.56240
H          1.92670        0.39170        9.58220
H          3.65210       -1.75560        7.12140
H          4.76610       -3.88650        6.59910
H          4.01390       -5.24050        4.68470
H          2.16990       -4.43080        3.25180
H          1.09020       -2.26820        3.74330
H         -0.14090        2.58370        8.54670
H         -2.60680        8.34570        8.05440
H         -3.45990       10.23890        9.35500
H         -3.79230       10.07140       11.08790
H         -4.97520        9.52540        9.90380
H         -3.81810        7.81450       12.12630
H         -2.87330        5.56610       12.16110
