207

C         -5.30570       -4.76800       -7.11700
C         -6.00780       -3.84450       -7.83760
C         -6.57240       -4.19540       -9.15730
O         -6.69660       -5.30160       -9.62780
C         -6.87580       -2.89050       -9.80110
C         -7.28390       -2.63300      -11.09790
Cl        -7.66330       -3.89920      -12.17780
C         -7.37550       -1.29610      -11.51370
Cl        -7.90160       -0.93220      -13.09960
C         -7.00440       -0.26600      -10.65120
Cl        -7.03800        1.35100      -11.20800
C         -6.59220       -0.53250       -9.33600
Cl        -5.99640        0.75490       -8.37450
C         -6.58570       -1.84760       -8.89660
C         -6.28590       -2.44430       -7.59580
C         -6.57670       -1.91580       -6.36540
C         -7.10640       -0.64250       -6.08460
N         -7.58770        0.33650       -5.72460
C         -6.56410       -2.69580       -5.18480
N         -6.63750       -3.29430       -4.20840
C         -4.40570       -4.55300       -6.05690
C         -3.93510       -5.50700       -5.17280
C         -3.08240       -5.01300       -4.18210
C         -2.63830       -5.81680       -3.04000
C         -2.13090       -7.10870       -3.25020
O         -2.03890       -7.49580       -4.54920
C         -1.72540       -8.83780       -4.87070
C         -2.89660       -9.78560       -4.63010
C         -1.74880       -7.88020       -2.15780
C         -1.90880       -7.38570       -0.87780
C         -2.45820       -6.13840       -0.65270
C         -2.82760       -5.34260       -1.73180
O         -3.39910       -4.11430       -1.62110
C         -4.00320       -3.70490       -0.40700
C         -3.05670       -2.92590        0.50220
C         -2.83430       -3.65350       -4.33920
S         -3.69430       -3.00030       -5.69610
C         -2.06790       -2.75780       -3.54300
C         -0.84140       -2.92310       -2.90920
N          0.03230       -3.97880       -3.06490
C          0.14570       -4.70190       -4.25750
C         -0.18300       -4.14310       -5.48920
C         -0.11470       -4.89160       -6.64760
C          0.32140       -6.20730       -6.60110
S          0.40300       -7.27170       -8.00710
C         -0.54960       -6.38200       -9.27020
C          0.73110       -6.74490       -5.38370
C          0.62840       -6.01120       -4.22490
C          0.94260       -4.23750       -2.02060
C          0.48310       -4.35570       -0.71030
C          1.36600       -4.59580        0.31790
C          2.72960       -4.72080        0.06050
S          3.76160       -5.04240        1.45270
C          5.44740       -4.96280        0.78710
C          3.19230       -4.60460       -1.24400
C          2.30450       -4.36440       -2.27420
C         -0.54270       -1.78630       -2.11580
S          0.73930       -1.37040       -1.03360
C         -0.01960        0.18330       -0.67170
C         -1.22730        0.34240       -1.34510
N         -2.12370        1.39340       -1.26240
C         -2.45350        2.01280       -0.05770
C         -2.39230        1.31880        1.15270
C         -2.62370        1.97400        2.34150
C         -2.93800        3.33060        2.35220
S         -3.13100        4.09540        3.93110
C         -4.00700        5.64190        3.55670
C         -3.05010        4.01440        1.14920
C         -2.81360        3.36040       -0.04170
C         -2.77020        1.77650       -2.45410
C         -2.02860        1.92990       -3.62550
C         -2.65120        2.30560       -4.79350
C         -4.02600        2.53850       -4.81940
S         -4.69840        3.05370       -6.36180
C         -6.45060        3.36240       -6.00950
C         -4.76980        2.37100       -3.65780
C         -4.14380        1.99400       -2.48590
C         -1.48830       -0.77670       -2.17750
S         -2.78370       -1.17870       -3.24240
C          0.67090        1.01620        0.24970
C          1.73170        0.63050        1.02970
C          2.19870        1.62980        1.90840
C          3.21990        1.52850        2.88300
C          3.91160        0.28140        3.11860
C          3.38950       -0.98830        3.12120
C          4.34340       -1.98140        3.36930
C          5.60610       -1.48960        3.59230
C          6.80000       -2.27550        3.74920
C          7.90930       -2.02040        4.46650
C          8.16380       -1.00880        5.44790
C          9.40300       -0.68360        5.94180
C          9.36440        0.24630        6.99370
C          8.09930        0.61860        7.33780
C          7.67550        1.56510        8.40660
C          6.98910        2.79990        7.82290
S          6.92470       -0.15950        6.33040
S          5.61650        0.24460        3.46360
C          3.48850        2.68330        3.61000
C          2.71430        3.86810        3.48920
C          1.65550        3.95630        2.55240
C          0.78770        5.10410        2.47260
C          0.15170        5.63000        1.37340
C         -0.65660        6.72990        1.67260
C         -0.68850        7.05700        3.01230
C         -1.33150        8.20850        3.56650
C         -1.45970        8.59220        4.85270
C         -1.16030        7.85030        6.04570
C         -1.33430        6.52430        6.33800
C         -1.00530        6.19620        7.66560
C         -0.58850        7.26010        8.40680
C         -0.16420        7.27880        9.83460
C          1.27010        7.77930        9.99850
S         -0.60340        8.71220        7.46210
S          0.32630        5.97480        3.91050
C          1.47890        2.84120        1.74440
S          0.27630        2.70060        0.49820
C          3.16050        4.87340        4.35450
C          4.23460        4.51720        5.13580
S          4.71950        2.86160        4.82790
C          4.84820        5.31090        6.12850
C          4.66460        6.65060        6.31120
C          4.95590        7.28300        7.61910
O          5.60580        6.81760        8.52430
C          4.20020        8.56400        7.60050
C          3.96940        9.46360        8.62610
Cl         4.73000        9.29630       10.14350
C          3.07180       10.51800        8.39520
Cl         2.77010       11.66180        9.63160
C          2.38760       10.61230        7.18430
Cl         1.22020       11.84030        6.96900
C          2.63270        9.70340        6.14350
Cl         1.65870        9.76190        4.73350
C          3.59010        8.72070        6.33930
C          4.09670        7.67460        5.45580
C          4.32380        7.80390        4.11160
C          4.09400        8.97080        3.35360
N          3.99660        9.89140        2.67540
C          4.97640        6.81270        3.34550
N          5.51270        6.04880        2.67870
H         -5.40230       -5.79450       -7.45590
H         -4.26650       -6.52840       -5.20550
H         -1.48090       -8.80680       -5.93580
H         -0.83600       -9.17290       -4.32540
H         -2.61720      -10.79330       -4.92400
H         -3.18310       -9.78940       -3.58100
H         -3.75510       -9.47440       -5.22000
H         -1.33300       -8.86530       -2.29060
H         -1.61040       -7.99140       -0.03550
H         -2.59770       -5.79820        0.36060
H         -4.43230       -4.56490        0.11870
H         -4.82020       -3.04870       -0.72330
H         -2.60510       -2.10790       -0.05420
H         -3.61740       -2.51420        1.33730
H         -2.26250       -3.55650        0.89510
H         -0.48730       -3.10950       -5.55260
H         -0.39410       -4.42830       -7.58010
H         -0.66580       -7.07760      -10.09540
H         -1.52290       -6.11360       -8.87000
H         -0.00420       -5.50450       -9.60560
H          1.11150       -7.75440       -5.35880
H          0.90760       -6.45330       -3.28030
H         -0.57230       -4.26260       -0.51570
H          1.01280       -4.69230        1.33310
H          5.59700       -5.74660        0.05040
H          5.63070       -3.97850        0.36580
H          6.10370       -5.13180        1.63530
H          4.24200       -4.69160       -1.47280
H          2.66980       -4.27040       -3.28610
H         -2.14210        0.26830        1.15790
H         -2.55600        1.44250        3.27840
H         -4.88070        5.42440        2.95010
H         -4.31170        6.04830        4.51650
H         -3.34200        6.34330        3.06050
H         -3.29440        5.06400        1.12870
H         -2.87090        3.90580       -0.97130
H         -0.96160        1.76250       -3.60640
H         -2.08070        2.43570       -5.70030
H         -6.54100        4.11160       -5.22850
H         -6.94390        2.43190       -5.73940
H         -6.86810        3.74460       -6.93630
H         -5.83740        2.51760       -3.65640
H         -4.72430        1.86220       -1.58470
H          2.15310       -0.35600        0.96780
H          2.34260       -1.19700        2.99330
H          4.11130       -3.03090        3.40590
H          6.78320       -3.19750        3.17910
H          8.74070       -2.70590        4.34520
H         10.31370       -1.09890        5.54710
H         10.24270        0.61860        7.49090
H          6.98340        1.06230        9.08770
H          8.55650        1.86430        8.97760
H          7.65940        3.31440        7.13730
H          6.70750        3.48550        8.61910
H          6.09740        2.49870        7.27600
H          0.30260        5.26750        0.37300
H         -1.20220        7.28260        0.92740
H         -1.70220        8.89000        2.80920
H         -1.83820        9.59130        5.03200
H         -1.72770        5.80710        5.64110
H         -1.08530        5.19920        8.06140
H         -0.25430        6.26660       10.23420
H         -0.83270        7.92960       10.40590
H          1.95910        7.16090        9.42640
H          1.56410        7.74990       11.04430
H          1.34930        8.80390        9.64360
H          2.69000        5.83340        4.43810
H          5.44060        4.80370        6.87940
