232

C          0.49130       12.39470        1.46810
C          0.67840       13.52930        0.72600
C          1.27900       13.60670       -0.61270
O          1.61410       12.69220       -1.33440
C          1.42630       15.05170       -0.90310
C          2.03360       15.65280       -1.99130
Cl         2.59740       14.73640       -3.31460
C          2.18560       17.04660       -1.97760
Cl         2.89580       17.84020       -3.31470
C          1.80100       17.77990       -0.85620
Cl         2.09290       19.46480       -0.81960
C          1.19370       17.16150        0.24910
Cl         0.92160       18.10140        1.65750
C          0.93630       15.79710        0.18870
C          0.29920       14.87450        1.12520
C         -0.65040       15.19510        2.06090
C         -1.31540       16.43670        2.16530
N         -1.99130       17.35980        2.25630
C         -1.23920       14.28090        2.96210
N         -1.75120       13.61780        3.74790
C          0.76260       11.04650        1.17100
C          0.47810       10.03650        2.07490
C          0.78910        8.75010        1.61880
C          0.61430        7.51760        2.29700
C          0.07150        7.42110        3.63390
C         -0.77490        6.46360        4.12710
C         -1.08830        6.64230        5.48680
C         -0.47560        7.72010        6.05100
C         -0.60400        8.24270        7.43940
C         -1.50060        9.48290        7.47980
S          0.49900        8.55320        4.88900
C          0.99570        6.38280        1.59790
C          1.53810        6.40670        0.28490
C          1.69610        7.63200       -0.39800
C          2.21340        7.71880       -1.74720
C          1.85110        8.60530       -2.72570
C          2.56680        8.44260       -3.92540
C          3.48910        7.44220       -3.87990
C          4.38550        6.96660       -4.97040
C          5.79930        6.66620       -4.47970
S          3.47850        6.66820       -2.33190
C          1.31050        8.77910        0.29560
S          1.42490       10.40490       -0.31580
C          1.82530        5.10220       -0.17740
C          1.54270        4.12200        0.73110
S          0.89160        4.75700        2.22220
C          1.64000        2.71730        0.54670
C          1.13070        1.74770        1.38850
N          0.56180        2.01770        2.64830
C          1.38960        1.72110        3.74740
C          2.71560        2.14300        3.73810
C          3.55840        1.86280        4.79680
C          3.08700        1.14980        5.88920
S          4.05840        0.73860        7.30640
C          5.66090        1.52830        6.98450
C          1.76610        0.70530        5.89320
C          0.92930        0.97860        4.83500
C         -0.82870        2.07270        2.78130
C         -1.68430        1.59200        1.79050
C         -3.05040        1.64140        1.96450
C         -3.59930        2.18300        3.12230
S         -5.36260        2.13000        3.25830
C         -5.71720        3.07070        4.77040
C         -2.75550        2.71260        4.08920
C         -1.38720        2.66490        3.91380
C          1.25280        0.46730        0.82030
S          0.64210       -1.07370        1.27320
C          1.13360       -1.75100       -0.28360
C          1.87410       -0.84070       -1.04160
N          2.51140       -1.08770       -2.23970
C          2.65770       -0.02360       -3.15080
C          1.56140        0.76360       -3.50060
C          1.72030        1.82700       -4.36200
C          2.97340        2.12240       -4.89450
S          3.06680        3.52460       -5.95900
C          4.75550        3.45460       -6.62720
C          4.06350        1.32820       -4.56260
C          3.90390        0.26450       -3.69780
C          3.16350       -2.29660       -2.50700
C          3.25230       -2.75300       -3.82450
C          3.82250       -3.97430       -4.09890
C          4.31830       -4.76680       -3.06780
S          4.96240       -6.35790       -3.49140
C          4.49500       -7.34620       -2.03740
C          4.29440       -4.29050       -1.76520
C          3.72270       -3.06390       -1.48670
C          1.86980        0.43860       -0.42210
S          2.34190        2.03760       -0.90770
C          0.54190       -3.00790       -0.58670
C         -0.53670       -3.49860        0.10800
C         -1.07040       -4.69400       -0.40200
C         -2.19780       -5.40660        0.06230
C         -3.09760       -4.82050        1.03050
C         -3.80470       -5.42280        2.03700
C         -4.58060       -4.49920        2.75750
S         -5.60280       -4.56890        4.14730
C         -5.88340       -2.84240        4.08130
Si        -6.87560       -1.93560        5.40720
C         -5.62900       -1.11380        6.61380
C         -4.38030       -0.57380        5.92550
C         -7.90060       -0.56670        4.54510
C         -8.60770       -1.00170        3.26460
C         -7.90400       -3.21160        6.38920
C         -9.03550       -3.85770        5.59780
C         -5.22860       -2.26140        3.03280
C         -4.49310       -3.19200        2.28520
S         -3.43920       -3.09400        0.92640
C         -2.41770       -6.65190       -0.51730
C         -1.59840       -7.17350       -1.55820
C         -0.51020       -6.41920       -2.07030
C          0.36110       -6.92490       -3.10620
S          0.91630       -5.85800       -4.38750
C          1.88910       -7.12290       -5.04930
C          2.76310       -7.24000       -6.14060
C          3.33060       -8.47890       -6.22740
Si         4.57980       -9.09970       -7.50140
C          6.30700       -9.28180       -6.68750
C          6.26580       -9.58680       -5.19290
C          3.96340      -10.76910       -8.21090
C          4.08040      -11.94400       -7.24430
C          4.65210       -7.78180       -8.88250
C          5.62210       -8.14880       -9.99840
S          2.77950       -9.53070       -4.94590
C          1.77560       -8.28830       -4.29590
C          0.90350       -8.18000       -3.20220
C         -0.30570       -5.17830       -1.49210
S          0.96040       -4.05640       -1.92340
C         -2.07790       -8.40560       -2.01480
C         -3.21030       -8.85710       -1.35430
S         -3.72260       -7.72850       -0.11560
C         -3.82160      -10.07900       -1.68740
C         -4.94490      -10.67970       -1.18530
C         -5.83550      -10.14060       -0.14920
O         -5.66180       -9.16630        0.55120
C         -7.02240      -11.02700       -0.14170
C         -8.20110      -10.88020        0.56790
Cl        -8.39260       -9.64750        1.73140
C         -9.25050      -11.77030        0.29670
Cl       -10.71540      -11.65150        1.16940
C         -9.11730      -12.72080       -0.71400
Cl       -10.44730      -13.72560       -1.09680
C         -7.91940      -12.85940       -1.43460
Cl        -7.89640      -13.92520       -2.77790
C         -6.84150      -12.05290       -1.09170
C         -5.47570      -11.96600       -1.60360
C         -4.75180      -12.98180       -2.17200
C         -5.13700      -14.33910       -2.22800
N         -5.30700      -15.47400       -2.22140
C         -3.42300      -12.85800       -2.63470
N         -2.35240      -12.84190       -3.04990
H          0.08060       12.52850        2.46170
H          0.03870       10.24650        3.03320
H         -1.19710        5.67870        3.52560
H         -1.74570        5.98880        6.03250
H          0.38310        8.50200        7.82950
H         -1.02870        7.46040        8.07210
H         -1.59310        9.84690        8.49960
H         -1.07930       10.27480        6.86500
H         -2.49290        9.24540        7.10330
H          1.06880        9.33220       -2.60970
H          2.40160        9.05120       -4.79640
H          3.95410        6.05970       -5.40700
H          4.41350        7.73000       -5.75100
H          6.42860        6.34850       -5.30790
H          6.24140        7.55260       -4.03050
H          5.77940        5.87660       -3.73140
H          2.20420        4.87240       -1.15630
H          3.09450        2.70260        2.89610
H          4.57760        2.21140        4.75360
H          5.53010        2.60060        6.87240
H          6.26890        1.32050        7.85940
H          6.12270        1.09140        6.10380
H          1.40880        0.13170        6.73480
H         -0.08480        0.60900        4.84280
H         -1.28620        1.16650        0.88290
H         -3.70680        1.24720        1.20370
H         -5.32060        4.07760        4.67810
H         -6.79980        3.10630        4.84490
H         -5.30610        2.55890        5.63610
H         -3.14860        3.16580        4.98500
H         -0.73680        3.08770        4.66460
H          0.58760        0.53400       -3.09410
H          0.87550        2.44140       -4.63250
H          4.81210        4.25030       -7.36380
H          5.47960        3.63220       -5.83730
H          4.92030        2.49560       -7.10890
H          5.04500        1.53340       -4.95740
H          4.75520       -0.34510       -3.43320
H          2.83520       -2.15850       -4.62280
H          3.86600       -4.34220       -5.11190
H          4.52340       -8.38420       -2.35460
H          5.20100       -7.19130       -1.22680
H          3.48750       -7.07540       -1.73610
H          4.71310       -4.87170       -0.95870
H          3.69880       -2.70480       -0.46850
H         -0.92920       -2.99790        0.97280
H         -3.73990       -6.46880        2.27240
H         -6.12620       -0.29730        7.13940
H         -5.32530       -1.83060        7.37740
H         -3.81410       -1.38360        5.47250
H         -4.64490        0.12420        5.13660
H         -3.73250       -0.06260        6.63650
H         -8.64220       -0.17700        5.24450
H         -7.23930        0.26650        4.30250
H         -9.32970       -1.78840        3.46360
H         -7.88980       -1.37780        2.54080
H         -9.13430       -0.16110        2.81580
H         -8.32080       -2.73810        7.27940
H         -7.23460       -3.99760        6.74360
H         -9.77980       -3.11670        5.31830
H         -8.65360       -4.32200        4.69210
H         -9.53010       -4.62560        6.19010
H         -5.26690       -1.20890        2.82050
H          2.97190       -6.44930       -6.83610
H          6.87660       -8.36260       -6.83400
H          6.86090      -10.07280       -7.19600
H          7.27140       -9.73520       -4.80350
H          5.68460      -10.48340       -4.99280
H          5.81320       -8.75750       -4.65540
H          2.92140      -10.67180       -8.52180
H          4.53170      -11.00440       -9.11210
H          5.11650      -12.10510       -6.95810
H          3.50170      -11.75990       -6.34250
H          3.70910      -12.85800       -7.70420
H          4.95580       -6.82530       -8.45670
H          3.66090       -7.63210       -9.31080
H          5.66270       -7.36410      -10.75200
H          6.62430       -8.29230       -9.60290
H          5.31440       -9.06950      -10.48680
H          0.72120       -8.96600       -2.49220
H         -1.63330       -8.95730       -2.82380
H         -3.31740      -10.59440       -2.49630
