248

C          8.39800       -3.15790       -0.55030
C          9.15770       -4.28330       -0.79000
C          8.67430       -5.64940       -0.95610
O          7.52630       -6.03010       -1.08380
C          9.87970       -6.50970       -0.92280
C          9.94940       -7.89030       -0.95230
Cl         8.56290       -8.84440       -1.23860
C         11.19740       -8.49180       -0.73310
Cl        11.34530      -10.19390       -0.79140
C         12.30450       -7.70610       -0.42090
Cl        13.79110       -8.46720       -0.04920
C         12.22340       -6.30330       -0.39200
Cl        13.58220       -5.42390        0.17490
C         11.01730       -5.70060       -0.72330
C         10.60370       -4.30220       -0.84860
C         11.40660       -3.22980       -1.14770
C         10.94020       -1.91810       -1.37370
N         10.67230       -0.82180       -1.59370
C         12.78200       -3.24790       -1.46310
N         13.86690       -3.11780       -1.81640
C          7.02870       -3.01000       -0.35060
C          6.40320       -1.78170       -0.00400
N          7.03000       -0.60490        0.30020
C          8.28570       -0.55060        0.93300
C          9.21200        0.41500        0.55150
C         10.47490        0.43160        1.11070
C         10.83320       -0.52870        2.04690
S         12.45250       -0.66830        2.72850
C         13.48020        0.24260        1.54100
C          9.88060       -1.44960        2.48580
C          8.61610       -1.45500        1.94480
C          6.34490        0.60640        0.08090
C          6.32980        1.59110        1.06290
C          5.63100        2.76600        0.86890
C          4.93740        2.97570       -0.31660
S          3.97990        4.41370       -0.65670
C          4.21090        5.46300        0.80590
C          4.97800        2.00390       -1.31650
C          5.67430        0.83260       -1.12190
C          5.00320       -1.92710        0.00900
S          3.68670       -0.86390        0.36380
C          2.53040       -2.18070        0.13770
C          3.14650       -3.37460       -0.16280
N          2.52910       -4.58980       -0.39760
C          1.44910       -5.03540        0.37020
C          1.30760       -4.67660        1.71040
C          0.27530       -5.19080        2.46550
C         -0.64330       -6.07180        1.90230
S         -1.91940       -6.70930        2.94740
C         -2.44670       -8.22040        2.08650
C         -0.52510       -6.41180        0.56160
C          0.51250       -5.90190       -0.19010
C          3.13070       -5.45280       -1.33260
C          3.22970       -6.82290       -1.09290
C          3.81200       -7.64910       -2.02750
C          4.32530       -7.12860       -3.21480
S          5.00850       -8.28570       -4.35560
C          5.35800       -7.28110       -5.82630
C          4.26320       -5.76130       -3.44020
C          3.66320       -4.93600       -2.50990
C          4.55940       -3.21390       -0.24910
S          5.85040       -4.31210       -0.56370
C          1.15430       -1.75280        0.27020
C          0.48550       -1.02700       -0.69260
N          0.87350       -0.92690       -2.02310
C          1.08540       -2.04460       -2.82810
C          0.48010       -3.27040       -2.56440
C          0.65730       -4.34090       -3.42030
C          1.46000       -4.21680       -4.54390
S          1.76750       -5.52960       -5.68660
C          1.14720       -7.00630       -4.83510
C          2.07540       -2.99540       -4.80880
C          1.89230       -1.92480       -3.96360
C          0.76350        0.34310       -2.62760
C         -0.00040        0.52150       -3.77630
C         -0.10310        1.76530       -4.36620
C          0.57820        2.84650       -3.82300
S          0.52020        4.47760       -4.48910
C         -0.16730        4.22690       -6.15050
C          1.34270        2.66980       -2.67040
C          1.42540        1.43320       -2.06800
C         -0.63830       -0.35660       -0.14980
S         -1.76210        0.78430       -0.78790
C         -2.54400        0.91570        0.79040
C         -1.90310        0.15920        1.76510
N         -2.18720        0.17490        3.11200
C         -1.87790       -0.97190        3.86840
C         -2.32300       -2.22490        3.45100
C         -2.03690       -3.34340        4.19980
C         -1.28780       -3.23790        5.37090
S         -0.96460       -4.74460        6.22920
C         -0.07850       -4.21680        7.72480
C         -0.83740       -1.99120        5.78550
C         -1.13440       -0.86830        5.03930
C         -2.60670        1.33200        3.77940
C         -2.26690        2.60440        3.32650
C         -2.70160        3.72860        3.99820
C         -3.46060        3.60380        5.15310
S         -4.05360        4.98760        6.07510
C         -4.04420        6.33220        4.85720
C         -3.76020        2.33330        5.63770
C         -3.35930        1.21210        4.94890
C         -0.82580       -0.57480        1.20380
S          0.37060       -1.64860        1.84430
C         -3.74730        1.66740        0.84370
C         -4.07180        2.67740       -0.05390
N         -3.12160        3.27480       -0.88990
C         -3.37720        3.36680       -2.25860
C         -4.07120        2.33870       -2.89560
C         -4.33250        2.40720       -4.24760
C         -3.91820        3.49680       -5.00600
C         -4.21980        3.55810       -6.47440
C         -3.22950        4.51690       -4.36360
C         -2.95570        4.45900       -3.01120
C         -2.22450        4.16660       -0.25910
C         -0.88960        4.18640       -0.64790
C         -0.00640        5.06400       -0.05280
C         -0.43160        5.94760        0.93380
C          0.53250        6.90450        1.56720
C         -1.76510        5.91600        1.31900
C         -2.65630        5.03040        0.74170
C         -5.40620        3.08150        0.08400
S         -6.37240        4.24700       -0.73520
C         -7.74070        3.87480        0.32030
C         -7.45290        2.80530        1.19890
N         -8.33850        2.25260        2.07800
C         -9.68270        2.05580        1.72660
C        -10.69860        2.27340        2.65340
C        -12.01650        2.07840        2.29090
C        -12.35730        1.66840        1.00710
C        -13.78970        1.50710        0.60720
C        -11.33420        1.44050        0.09300
C        -10.01240        1.62420        0.44290
C         -7.92670        1.97770        3.39890
C         -8.30120        0.78880        4.01580
C         -7.96130        0.56480        5.33440
C         -7.26390        1.52040        6.06630
C         -6.92310        1.27000        7.50320
C         -6.89210        2.70090        5.43550
C         -7.20270        2.92860        4.10940
C         -6.10280        2.41940        1.08970
S         -5.08940        1.26750        1.90280
C         -8.89610        4.65450        0.28530
C         -9.01030        5.93570       -0.20350
C        -10.32700        6.47520       -0.57360
O        -11.41100        5.98420       -0.34940
C        -10.03190        7.72010       -1.33500
C        -10.89400        8.53650       -2.04270
Cl       -12.58280        8.29030       -2.00620
C        -10.34690        9.57890       -2.80620
Cl       -11.37950       10.62920       -3.67660
C         -8.96580        9.73690       -2.88920
Cl        -8.31870       10.95520       -3.90110
C         -8.09450        8.90560       -2.16680
Cl        -6.40490        9.04640       -2.43170
C         -8.63870        7.93440       -1.34150
C         -8.02390        6.95640       -0.44200
C         -6.89450        7.16010        0.31600
C         -6.47610        6.29550        1.34600
N         -6.08230        5.67430        2.23100
C         -6.10660        8.32820        0.34790
N         -5.43910        9.24720        0.51810
H          8.95920       -2.23870       -0.45460
H          8.95150        1.13570       -0.20750
H         11.17800        1.17890        0.78340
H         13.33790        1.31290        1.65930
H         13.23970       -0.07920        0.53200
H         14.50640       -0.01920        1.77910
H         10.15220       -2.16260        3.24870
H          7.88580       -2.17850        2.27530
H          6.85730        1.42690        1.99080
H          5.62660        3.50230        1.65590
H          3.79750        4.97420        1.68340
H          5.26420        5.69220        0.93660
H          3.66040        6.37550        0.59910
H          4.45520        2.18090       -2.24380
H          5.70720        0.08510       -1.90020
H          2.02930       -4.01790        2.16990
H          0.18480       -4.93060        3.50770
H         -3.04950       -8.76960        2.80290
H         -3.04830       -7.97380        1.21620
H         -1.57370       -8.80350        1.80990
H         -1.23390       -7.07490        0.09160
H          0.61100       -6.19000       -1.22470
H          2.85030       -7.23470       -0.16990
H          3.88530       -8.71040       -1.84560
H          5.68550       -7.98160       -6.58820
H          4.45290       -6.77500       -6.15050
H          6.15350       -6.57310       -5.61150
H          4.66600       -5.32200       -4.33720
H          3.60600       -3.87490       -2.70070
H         -0.15160       -3.38200       -1.69530
H          0.14270       -5.26460       -3.21150
H          0.06250       -6.98040       -4.78000
H          1.59820       -7.07390       -3.84910
H          1.46250       -7.84990       -5.44150
H          2.70140       -2.89990       -5.68280
H          2.37050       -0.98010       -4.17570
H         -0.52300       -0.32150       -4.20340
H         -0.72500        1.87980       -5.23870
H         -0.08710        5.18750       -6.64990
H          0.42250        3.48440       -6.67970
H         -1.20970        3.93130       -6.08130
H          1.87630        3.51330       -2.26030
H          2.01410        1.29930       -1.17180
H         -2.90490       -2.30980        2.54540
H         -2.39360       -4.31340        3.89210
H          0.09280       -5.12420        8.29550
H         -0.69460       -3.53120        8.29900
H          0.87290       -3.76610        7.45770
H         -0.25060       -1.87870        6.68250
H         -0.78480        0.10070        5.36350
H         -1.65140        2.72590        2.44730
H         -2.42350        4.69590        3.61520
H         -4.54350        6.00310        3.95030
H         -3.02560        6.65440        4.66050
H         -4.60180        7.14570        5.31140
H         -4.31680        2.23360        6.55470
H         -3.62880        0.23190        5.31130
H         -4.39790        1.48390       -2.32090
H         -4.86900        1.60030       -4.72660
H         -3.83190        4.47350       -6.91530
H         -3.78040        2.70660       -6.99460
H         -5.29580        3.52560       -6.64170
H         -2.91200        5.38610       -4.92250
H         -2.42470        5.26950       -2.53620
H         -0.55960        3.51420       -1.42340
H          1.02720        5.06890       -0.36690
H          1.16490        6.38290        2.28680
H          0.00510        7.69870        2.08970
H          1.17730        7.35110        0.81290
H         -2.12310        6.61330        2.06380
H         -3.69050        5.02710        1.05500
H        -10.44900        2.60810        3.64910
H        -12.79600        2.26120        3.01560
H        -14.15650        2.44180        0.18180
H        -13.89940        0.72970       -0.14540
H        -14.40950        1.26150        1.46610
H        -11.57680        1.11200       -0.90690
H         -9.22640        1.43990       -0.27490
H         -8.86330        0.05340        3.45910
H         -8.25190       -0.36160        5.80840
H         -7.78850        0.89020        8.04320
H         -6.58100        2.18180        7.98640
H         -6.13350        0.52140        7.57590
H         -6.37400        3.46680        5.99170
H         -6.91610        3.85300        3.62960
H         -9.82200        4.20970        0.63210
