151

C         -1.59730       -7.19010        4.46390
C         -1.03970       -8.38840        4.11000
C         -0.14170       -8.59680        2.96000
O          0.07830       -7.86150        2.02250
C          0.55920       -9.87540        3.24710
C          1.61080      -10.44780        2.55630
Cl         2.16200       -9.79860        1.07910
C          2.23290      -11.57760        3.10480
Cl         3.51290      -12.34020        2.26540
C          1.84050      -12.05220        4.35400
Cl         2.68010      -13.37020        5.05170
C          0.78330      -11.45620        5.05940
Cl         0.47860      -11.97650        6.66660
C          0.09630      -10.40530        4.46790
C         -1.02700       -9.58900        4.91870
C         -2.03190       -9.93930        5.78170
C         -3.10230       -9.07470        6.10610
N         -3.99810       -8.43320        6.42750
C         -2.26310      -11.21780        6.33100
N         -2.59210      -12.23230        6.75550
C         -1.67060       -6.04340        3.64220
C         -1.91150       -6.04670        2.25060
C         -1.72790       -4.86530        1.43660
N         -2.00940       -5.09150        0.15470
S         -2.48890       -6.61780       -0.00660
N         -2.36020       -7.06940        1.52630
C         -1.22380       -3.65750        1.96620
C         -1.24130       -3.59130        3.38020
N         -1.06640       -2.49550        4.11760
S         -1.18530       -2.88230        5.67210
N         -1.43380       -4.46430        5.49840
C         -1.48590       -4.75620        4.19960
C         -0.73950       -2.62430        1.13640
C          0.26560       -1.68220        1.42230
N          1.19140       -1.80540        2.42550
C          1.85970       -0.66610        2.89890
C          1.16000        0.51270        3.15740
C          1.83420        1.63550        3.58120
C          3.21630        1.60380        3.76290
S          3.97630        3.11260        4.26630
C          5.72500        2.67270        4.49270
C          3.91050        0.42160        3.53700
C          3.23490       -0.70340        3.10830
C          1.52670       -3.06130        2.95440
C          1.75570       -3.20220        4.32140
C          1.94300       -4.45180        4.87860
C          1.91910       -5.58350        4.07290
S          2.06530       -7.22190        4.71430
C          1.40240       -7.04240        6.39860
C          1.79860       -5.43940        2.69190
C          1.60520       -4.19310        2.14010
C          0.29820       -0.67920        0.42780
S          1.22990        0.77070        0.20140
C          0.33590        1.11450       -1.26460
C         -0.48140        0.04990       -1.66440
N         -1.03710       -0.09820       -2.91090
C         -0.42000        0.43640       -4.05320
C          0.96580        0.52250       -4.15300
C          1.56050        1.09450       -5.26050
C          0.77730        1.58320       -6.29790
S          1.41810        2.35860       -7.74620
C          3.20670        2.44290       -7.44600
C         -0.60970        1.46400       -6.21860
C         -1.20200        0.89810       -5.11310
C         -2.17440       -0.91000       -3.05680
C         -3.23690       -0.78840       -2.16680
C         -4.32680       -1.63170       -2.25610
C         -4.36670       -2.61060       -3.23990
S         -5.68210       -3.77070       -3.41580
C         -6.55710       -3.65820       -1.82850
C         -3.32550       -2.70080       -4.16320
C         -2.23970       -1.86050       -4.07510
C         -0.54640       -0.93070       -0.64620
S         -1.42370       -2.41700       -0.46310
C          0.46810        2.41030       -1.84150
C         -0.52420        3.04700       -2.58330
F         -1.73080        2.47120       -2.74480
C         -0.35880        4.33200       -3.08730
F         -1.37190        4.85000       -3.80630
C          0.79630        5.07900       -2.88580
C          1.81960        4.46650       -2.11360
N          2.94550        5.15950       -1.84440
C          3.82030        4.62820       -1.02790
O          4.94250        5.27540       -0.73720
C          5.11220        6.55810       -1.34020
C          6.41510        7.14840       -0.83440
C          3.61100        3.34570       -0.41800
N          2.54810        2.66170       -0.72620
C          1.63280        3.18110       -1.56500
C          4.58040        2.79720        0.56590
C          0.99410        6.41280       -3.37990
C          0.09570        7.41580       -3.51450
C          0.43260        8.60000       -4.35920
O          1.52700        8.89440       -4.78230
C         -0.84970        9.28710       -4.59140
C         -1.10500       10.36850       -5.40070
C         -2.42080       10.83560       -5.47300
C         -2.94560       11.92610       -6.22290
C         -4.27650       12.08190       -6.05230
S         -4.97880       10.92220       -4.97780
C         -3.43050       10.18120       -4.72600
C         -3.17410        9.09250       -3.90120
C         -1.86720        8.65100       -3.83250
C         -1.26660        7.58450       -3.04280
C         -1.81230        7.03010       -1.91550
C         -3.11620        7.30850       -1.45440
N         -4.16700        7.49880       -1.03410
C         -1.11230        6.19420       -1.02330
N         -0.58310        5.54590       -0.23660
H         -1.89620       -7.03720        5.49440
H          0.08870        0.53190        3.03350
H          1.29960        2.55190        3.77580
H          6.15770        2.35460        3.54860
H          6.21150        3.58170        4.83240
H          5.81800        1.90150        5.25140
H          4.97750        0.36450        3.67780
H          3.77860       -1.61740        2.91960
H          1.74630       -2.32630        4.95360
H          2.08890       -4.53530        5.94360
H          2.14650       -6.60020        7.05430
H          0.49820       -6.44130        6.36440
H          1.17290       -8.04850        6.73620
H          1.82310       -6.31520        2.06370
H          1.49290       -4.09430        1.07110
H          1.58990        0.13990       -3.35930
H          2.63660        1.14520       -5.30120
H          3.40350        3.00510       -6.53770
H          3.62540        1.44210       -7.39220
H          3.62030        2.96800       -8.30140
H         -1.21520        1.83600       -7.03040
H         -2.27690        0.83170       -5.04730
H         -3.20760       -0.02210       -1.40700
H         -5.13670       -1.51270       -1.55530
H         -7.10290       -2.72150       -1.76260
H         -7.25530       -4.48920       -1.81740
H         -5.84400       -3.75960       -1.01590
H         -3.37410       -3.45180       -4.93640
H         -1.42570       -1.94740       -4.77900
H          5.12330        6.44060       -2.42970
H          4.25640        7.18900       -1.07750
H          7.24840        6.50280       -1.09860
H          6.56860        8.12650       -1.28000
H          6.38450        7.25140        0.24700
H          5.58100        2.77890        0.13750
H          4.27160        1.79820        0.86030
H          4.60440        3.44610        1.44050
H          2.00620        6.63910       -3.69810
H         -0.31230       10.84060       -5.96040
H         -2.34200       12.55310       -6.85390
H         -4.91510       12.82030       -6.49710
H         -3.97440        8.61930       -3.35650
