134

C          2.86480       -7.45570       -1.91730
C          2.22860       -8.64260       -1.68480
C          2.97310       -9.91790       -1.78120
O          4.08230      -10.08560       -2.22980
C          2.08900      -10.92930       -1.14210
C          2.35740      -12.24850       -0.82390
Cl         3.81000      -13.00250       -1.30790
C          1.40360      -12.96030       -0.08100
Cl         1.67970      -14.60310        0.30790
C          0.25180      -12.32300        0.37600
Cl        -0.84850      -13.18260        1.36370
C         -0.01540      -10.98400        0.04920
Cl        -1.36210      -10.20780        0.77320
C          0.87870      -10.31040       -0.76860
C          0.86770       -8.95760       -1.32350
C         -0.23770       -8.26470       -1.74380
C         -1.57170       -8.71890       -1.69740
N         -2.67680       -9.02120       -1.76760
C         -0.16240       -7.04600       -2.44990
N         -0.17360       -6.05700       -3.03350
C          2.47260       -6.14700       -1.55910
C          3.03830       -5.03320       -2.22340
C          2.64440       -3.67470       -1.93950
N          3.26500       -2.80200       -2.73290
S          4.22890       -3.60340       -3.74190
N          3.92890       -5.08940       -3.21260
C          1.74130       -3.32930       -0.90530
C          1.17960       -4.43970       -0.23580
N          0.23590       -4.38480        0.70510
S         -0.14660       -5.87360        1.16480
N          0.86200       -6.67430        0.20170
C          1.53280       -5.80850       -0.55740
C          1.41980       -1.97190       -0.66890
C          0.88590       -1.33390        0.46520
N          0.79930       -1.83750        1.73710
C         -0.22620       -1.34150        2.56540
C         -1.53440       -1.27240        2.08520
C         -2.53280       -0.75690        2.87820
C         -2.24850       -0.29810        4.16580
S         -3.60350        0.35190        5.07680
C         -2.85400        0.95560        6.61590
C         -0.94800       -0.38370        4.65070
C          0.05390       -0.90220        3.85500
C          1.69070       -2.78310        2.23870
C          1.28140       -3.67670        3.23350
C          2.13360       -4.65760        3.68160
C          3.42230       -4.77460        3.15800
S          4.40090       -6.10500        3.76120
C          5.85560       -6.10650        2.67610
C          3.85620       -3.84750        2.21680
C          3.00280       -2.85900        1.77280
C          0.55070        0.01020        0.16500
S         -0.17910        1.29720        1.06440
C          0.03740        2.38490       -0.28780
C          0.59230        1.76360       -1.40050
N          0.75590        2.33740       -2.64760
C          1.81400        1.88460       -3.45050
C          1.63200        1.65170       -4.81310
C          2.65680        1.12180       -5.56390
C          3.88220        0.81340       -4.97440
S          5.10260        0.07270       -6.00980
C          6.32190       -0.56460       -4.82390
C          4.08570        1.09960       -3.63200
C          3.05840        1.63240       -2.87920
C         -0.15010        3.29740       -3.12130
C          0.29920        4.39440       -3.84960
C         -0.56540        5.41840       -4.18930
C         -1.89620        5.36410       -3.79830
S         -3.06400        6.66820       -4.02060
C         -2.11350        7.99070       -4.81960
C         -2.36870        4.22120       -3.15260
C         -1.51140        3.19700       -2.82700
C          0.89260        0.40870       -1.11750
S          1.65830       -0.85820       -2.00990
C         -0.38780        3.76540       -0.22990
C          0.41300        4.78110       -0.76980
C         -0.06390        6.05660       -0.91970
C         -1.36260        6.41340       -0.52500
C         -2.13200        5.41630        0.08810
F         -3.40320        5.66080        0.44350
C         -1.64910        4.12990        0.24600
F         -2.45670        3.19800        0.77660
C         -1.85810        7.71150       -0.88640
C         -2.90670        8.44560       -0.45030
C         -3.39140        9.55970       -1.31870
O         -2.80930       10.03710       -2.26080
C         -4.74170        9.87850       -0.81040
C         -5.70450       10.70490       -1.36540
Cl        -5.38090       11.63130       -2.75930
C         -6.96630       10.75600       -0.75590
Cl        -8.17690       11.78180       -1.39060
C         -7.24740        9.94730        0.34590
Cl        -8.81660        9.96840        1.02060
C         -6.26910        9.10730        0.90360
Cl        -6.71890        8.03180        2.15830
C         -4.99540        9.11810        0.35130
C         -3.77550        8.40190        0.71260
C         -3.36560        8.04880        1.96730
C         -4.03430        8.33810        3.17690
N         -4.45250        8.60030        4.21190
C         -2.09490        7.48100        2.20720
N         -1.07030        7.01450        2.42740
H          3.82950       -7.52920       -2.40880
H         -1.75330       -1.63580        1.09270
H         -3.54660       -0.69980        2.51420
H         -2.09710        1.70090        6.39020
H         -2.44090        0.12640        7.18270
H         -3.66510        1.41310        7.17390
H         -0.69980       -0.04230        5.64220
H          1.06530       -0.95780        4.22990
H          0.27380       -3.62150        3.61490
H          1.80750       -5.36340        4.42980
H          6.42650       -6.98630        2.95570
H          6.45240       -5.21470        2.84430
H          5.54040       -6.18550        1.63980
H          4.86030       -3.88090        1.82570
H          3.36070       -2.13940        1.05210
H          0.67610        1.86460       -5.26730
H          2.51400        0.91700       -6.61350
H          6.97610       -1.21610       -5.39470
H          5.81040       -1.13240       -4.05210
H          6.89950        0.25240       -4.40040
H          5.03550        0.91300       -3.15870
H          3.21920        1.84960       -1.83320
H          1.34040        4.45820       -4.12910
H         -0.18230        6.26140       -4.74100
H         -1.24750        8.24700       -4.21780
H         -1.82550        7.68920       -5.82250
H         -2.78370        8.84350       -4.86220
H         -3.41650        4.15660       -2.90230
H         -1.88700        2.31920       -2.32310
H          1.41360        4.53700       -1.08900
H          0.56520        6.81450       -1.35960
H         -1.34330        8.15480       -1.73380
