161

C          8.39690       -6.54380       -4.70170
C          8.44730       -7.88540       -4.50860
C          8.27940       -8.58510       -3.20830
O          7.80660       -8.15850       -2.18410
C          8.92750       -9.90550       -3.40840
C          9.16450      -10.89180       -2.46560
Cl         8.59650      -10.74710       -0.86380
C          9.89460      -12.02340       -2.85840
Cl        10.18600      -13.27920       -1.73690
C         10.41340      -12.11050       -4.15020
Cl        11.37200      -13.45990       -4.57800
C         10.17410      -11.10570       -5.10110
Cl        10.96450      -11.20440       -6.61960
C          9.37770      -10.02580       -4.74110
C          8.90860       -8.86400       -5.48310
C          8.65380       -8.74120       -6.82170
C          8.00710       -7.59850       -7.34950
N          7.44830       -6.71330       -7.82020
C          8.78770       -9.73280       -7.81730
N          8.78630      -10.47570       -8.69140
C          7.78250       -5.56340       -3.84660
C          6.57140       -5.83840       -3.18810
C          5.95080       -4.82170       -2.50690
C          4.60900       -4.81480       -1.86480
O          3.82180       -5.72690       -1.78370
C          4.43400       -3.41320       -1.40520
C          5.59400       -2.66960       -1.70240
C          6.52240       -3.53570       -2.41100
C          7.72890       -3.26860       -3.03460
C          8.32890       -4.27520       -3.77000
C          5.66090       -1.33210       -1.35960
C          4.53180       -0.72590       -0.83020
C          3.34150       -1.43110       -0.64990
C          3.31780       -2.81780       -0.87440
C          2.10810       -0.74060       -0.33950
C          0.88000       -0.93570       -0.94740
N          0.60740       -1.80780       -1.98860
C          1.58300       -2.14700       -2.93690
C          2.49620       -1.19710       -3.39930
C          3.52310       -1.57090       -4.23520
C          3.65430       -2.89490       -4.65310
S          5.06890       -3.27310       -5.64080
C          4.81860       -4.99840       -6.13980
C          2.70260       -3.82570       -4.26010
C          1.68100       -3.45380       -3.40830
C         -0.66500       -2.39740       -2.05030
C         -1.30750       -2.56050       -3.27380
C         -2.56910       -3.11800       -3.33840
C         -3.21530       -3.51610       -2.17500
S         -4.82890       -4.22610       -2.12610
C         -5.39760       -4.14800       -3.84760
C         -2.57000       -3.36580       -0.94890
C         -1.30860       -2.81880       -0.88600
C         -0.09330       -0.05480       -0.40330
S         -1.76240        0.24840       -0.74490
C         -1.80710        1.48030        0.50000
C         -0.58260        1.68470        1.10100
N         -0.34520        2.65220        2.07120
C          0.57510        2.42590        3.09730
C          1.27090        3.49200        3.67200
C          2.17980        3.26900        4.68050
C          2.43060        1.97750        5.14060
S          3.62570        1.81980        6.43100
C          3.75140        0.02820        6.69360
C          1.74290        0.91430        4.57550
C          0.82370        1.13850        3.56870
C         -0.91390        3.92970        1.89750
C         -0.77900        4.59430        0.67990
C         -1.34600        5.83630        0.49740
C         -2.06640        6.43760        1.52510
S         -2.79370        8.01530        1.17470
C         -2.96310        8.77470        2.81400
C         -2.20100        5.78300        2.74230
C         -1.62020        4.54270        2.92800
C          0.39090        0.79040        0.57940
S          2.08500        0.56200        0.83620
C         -3.00290        2.30830        0.67560
C         -3.25300        3.28830       -0.29770
C         -4.15190        4.30540       -0.09960
C         -4.90960        4.37690        1.08160
C         -4.83350        3.27980        1.94570
C         -5.61940        2.94990        3.10990
C         -6.79920        3.55390        3.41570
C         -7.70470        3.37940        4.50410
C         -7.56450        2.56290        5.66880
C         -8.61960        2.65950        6.50350
S         -9.82790        3.74960        5.91630
C         -8.89800        4.07680        4.53200
C         -4.98690        1.73200        3.67360
O         -5.27630        1.07810        4.65470
N         -3.95570        1.38780        2.82230
C         -3.19380        0.17950        3.04770
C         -2.37020        0.27820        4.32770
C         -3.85770        2.27640        1.77110
C         -5.52770        5.60240        1.49100
C         -5.89180        6.66650        0.73510
C         -5.95620        8.01540        1.34660
O         -6.00150        8.27120        2.52780
C         -5.88160        8.95100        0.20190
C         -5.70480       10.32350        0.21220
Cl        -5.68290       11.20360        1.67360
C         -5.52940       10.98220       -1.01180
Cl        -5.32750       12.67970       -1.04480
C         -5.48260       10.25390       -2.20060
Cl        -5.18550       11.07090       -3.67300
C         -5.65920        8.86200       -2.20710
Cl        -5.44390        8.00660       -3.67750
C         -5.91230        8.21820       -1.00440
C         -6.14960        6.81440       -0.68480
C         -6.78660        5.86720       -1.43850
C         -7.36520        6.05060       -2.71160
N         -7.92490        6.12290       -3.71040
C         -7.09320        4.59450       -0.90340
N         -7.38720        3.56710       -0.48700
H          8.87910       -6.14230       -5.58640
H          6.10570       -6.80790       -3.26280
H          8.17630       -2.28810       -2.98370
H          9.25190       -4.07230       -4.29380
H          6.55500       -0.75430       -1.53650
H          4.54740        0.33050       -0.60290
H          2.43700       -3.40050       -0.65370
H          2.40520       -0.16870       -3.08390
H          4.24300       -0.84200       -4.57400
H          4.80390       -5.63900       -5.26290
H          5.66720       -5.25380       -6.76850
H          3.89780       -5.08390       -6.70900
H          2.75780       -4.85220       -4.58320
H          0.97030       -4.19670       -3.07880
H         -0.81290       -2.24260       -4.17970
H         -3.03900       -3.22730       -4.30220
H         -6.41280       -4.53240       -3.83610
H         -4.77410       -4.77630       -4.47720
H         -5.39770       -3.11740       -4.19010
H         -3.07060       -3.69000       -0.04960
H         -0.81080       -2.71860        0.06750
H          1.10130        4.49660        3.31500
H          2.71810        4.09530        5.11880
H          4.06180       -0.46000        5.77440
H          2.80380       -0.36420        7.05100
H          4.51350       -0.10170        7.45580
H          1.90520       -0.09760        4.90900
H          0.29250        0.29780        3.15100
H         -0.21520        4.13200       -0.11670
H         -1.23400        6.35760       -0.44060
H         -3.87440        8.43000        3.29700
H         -3.03140        9.84400        2.63830
H         -2.08270        8.54890        3.40660
H         -2.76480        6.22740        3.54730
H         -1.72170        4.03860        3.87780
H         -2.65190        3.27710       -1.19440
H         -4.19810        5.11360       -0.81210
H         -7.13770        4.29280        2.69580
H         -6.71470        1.92980        5.83920
H         -8.77880        2.16080        7.43850
H         -9.26370        4.76340        3.79320
H         -3.90020       -0.65290        3.13790
H         -2.55690        0.01010        2.17930
H         -1.77070       -0.61930        4.45240
H         -1.71140        1.14270        4.29730
H         -3.03400        0.37320        5.18240
H         -5.52770        5.78400        2.56190
