
  xtb     02112223473D
 energy: -365.806847506306 gnorm: 0.000267108485 xtb: 6.4.1 (unknown)
208228  0     0  0            999 V2000
    8.4051    0.2928    1.4267 C   0  0  0  0  0  0  0  0  0  0  0  0
    9.2022   -0.4855    0.6173 C   0  0  0  0  0  0  0  0  0  0  0  0
   10.6544   -0.5134    0.8236 C   0  0  0  0  0  0  0  0  0  0  0  0
   11.3026    0.1876    1.5738 O   0  0  0  0  0  0  0  0  0  0  0  0
   11.1418   -1.6334   -0.0247 C   0  0  0  0  0  0  0  0  0  0  0  0
   12.4063   -2.1853   -0.1067 C   0  0  0  0  0  0  0  0  0  0  0  0
   13.7320   -1.4961    0.7197 Cl  0  0  0  0  0  0  0  0  0  0  0  0
   12.5815   -3.3387   -0.8861 C   0  0  0  0  0  0  0  0  0  0  0  0
   14.1369   -4.0359   -1.0376 Cl  0  0  0  0  0  0  0  0  0  0  0  0
   11.4882   -3.9398   -1.5049 C   0  0  0  0  0  0  0  0  0  0  0  0
   11.7078   -5.3978   -2.3732 Cl  0  0  0  0  0  0  0  0  0  0  0  0
   10.2046   -3.3762   -1.4182 C   0  0  0  0  0  0  0  0  0  0  0  0
    8.8709   -4.2421   -2.0593 Cl  0  0  0  0  0  0  0  0  0  0  0  0
   10.0498   -2.1860   -0.7261 C   0  0  0  0  0  0  0  0  0  0  0  0
    8.8827   -1.3339   -0.4977 C   0  0  0  0  0  0  0  0  0  0  0  0
    7.8510   -1.1069   -1.3792 C   0  0  0  0  0  0  0  0  0  0  0  0
    6.9090   -0.0721   -1.1997 C   0  0  0  0  0  0  0  0  0  0  0  0
    6.1471    0.7860   -1.1317 N   0  0  0  0  0  0  0  0  0  0  0  0
    7.7041   -1.6689   -2.6586 C   0  0  0  0  0  0  0  0  0  0  0  0
    7.5203   -1.9906   -3.7467 N   0  0  0  0  0  0  0  0  0  0  0  0
    7.0440    0.1359    1.6745 C   0  0  0  0  0  0  0  0  0  0  0  0
    6.1171    1.0980    2.1359 C   0  0  0  0  0  0  0  0  0  0  0  0
    6.3828    2.3820    2.5121 N   0  0  0  0  0  0  0  0  0  0  0  0
    5.3986    3.3699    2.2896 C   0  0  0  0  0  0  0  0  0  0  0  0
    4.7869    3.4804    1.0405 C   0  0  0  0  0  0  0  0  0  0  0  0
    3.8174    4.4361    0.8368 C   0  0  0  0  0  0  0  0  0  0  0  0
    3.4445    5.2978    1.8681 C   0  0  0  0  0  0  0  0  0  0  0  0
    2.2123    6.4960    1.4839 S   0  0  0  0  0  0  0  0  0  0  0  0
    1.7590    7.2038    3.0909 C   0  0  0  0  0  0  0  0  0  0  0  0
    4.0651    5.1960    3.1065 C   0  0  0  0  0  0  0  0  0  0  0  0
    5.0381    4.2370    3.3135 C   0  0  0  0  0  0  0  0  0  0  0  0
    7.6093    2.7615    3.0731 C   0  0  0  0  0  0  0  0  0  0  0  0
    8.2096    3.9645    2.7024 C   0  0  0  0  0  0  0  0  0  0  0  0
    9.4748    4.2705    3.1538 C   0  0  0  0  0  0  0  0  0  0  0  0
   10.1640    3.3816    3.9751 C   0  0  0  0  0  0  0  0  0  0  0  0
   11.8353    3.7524    4.3955 S   0  0  0  0  0  0  0  0  0  0  0  0
   12.5713    2.0892    4.4350 C   0  0  0  0  0  0  0  0  0  0  0  0
    9.5281    2.2300    4.4255 C   0  0  0  0  0  0  0  0  0  0  0  0
    8.2574    1.9271    3.9835 C   0  0  0  0  0  0  0  0  0  0  0  0
    4.8065    0.5863    2.0722 C   0  0  0  0  0  0  0  0  0  0  0  0
    3.2542    1.2613    2.4209 S   0  0  0  0  0  0  0  0  0  0  0  0
    2.4748   -0.2547    2.0060 C   0  0  0  0  0  0  0  0  0  0  0  0
    3.3994   -1.2544    1.6897 C   0  0  0  0  0  0  0  0  0  0  0  0
    3.0775   -2.5718    1.4091 N   0  0  0  0  0  0  0  0  0  0  0  0
    3.7750   -3.2255    0.3779 C   0  0  0  0  0  0  0  0  0  0  0  0
    4.0358   -2.5655   -0.8193 C   0  0  0  0  0  0  0  0  0  0  0  0
    4.6849   -3.2112   -1.8533 C   0  0  0  0  0  0  0  0  0  0  0  0
    5.0781   -4.5351   -1.7069 C   0  0  0  0  0  0  0  0  0  0  0  0
    5.8327   -5.4913   -2.9796 S   0  0  0  0  0  0  0  0  0  0  0  0
    5.6274   -4.4809   -4.4697 C   0  0  0  0  0  0  0  0  0  0  0  0
    4.8560   -5.1844   -0.4931 C   0  0  0  0  0  0  0  0  0  0  0  0
    4.2163   -4.5381    0.5398 C   0  0  0  0  0  0  0  0  0  0  0  0
    2.1833   -3.2732    2.2213 C   0  0  0  0  0  0  0  0  0  0  0  0
    1.4122   -4.3103    1.6881 C   0  0  0  0  0  0  0  0  0  0  0  0
    0.5050   -4.9797    2.4743 C   0  0  0  0  0  0  0  0  0  0  0  0
    0.3343   -4.6322    3.8140 C   0  0  0  0  0  0  0  0  0  0  0  0
   -0.8760   -5.5503    4.7143 S   0  0  0  0  0  0  0  0  0  0  0  0
   -0.7737   -4.8807    6.3988 C   0  0  0  0  0  0  0  0  0  0  0  0
    1.0985   -3.6056    4.3498 C   0  0  0  0  0  0  0  0  0  0  0  0
    2.0161   -2.9372    3.5621 C   0  0  0  0  0  0  0  0  0  0  0  0
    4.7115   -0.7468    1.6978 C   0  0  0  0  0  0  0  0  0  0  0  0
    6.2587   -1.4200    1.3391 S   0  0  0  0  0  0  0  0  0  0  0  0
    1.0757   -0.2881    1.8111 C   0  0  0  0  0  0  0  0  0  0  0  0
    0.1501    0.7010    2.1453 C   0  0  0  0  0  0  0  0  0  0  0  0
    0.3981    1.7541    3.0119 N   0  0  0  0  0  0  0  0  0  0  0  0
    1.0150    1.5308    4.2447 C   0  0  0  0  0  0  0  0  0  0  0  0
    0.8923    0.3056    4.8948 C   0  0  0  0  0  0  0  0  0  0  0  0
    1.5385    0.0734    6.0934 C   0  0  0  0  0  0  0  0  0  0  0  0
    2.3159    1.0670    6.6719 C   0  0  0  0  0  0  0  0  0  0  0  0
    3.2003    0.8852    8.1890 S   0  0  0  0  0  0  0  0  0  0  0  0
    2.7498   -0.7760    8.7660 C   0  0  0  0  0  0  0  0  0  0  0  0
    2.4341    2.2994    6.0300 C   0  0  0  0  0  0  0  0  0  0  0  0
    1.7972    2.5291    4.8335 C   0  0  0  0  0  0  0  0  0  0  0  0
   -0.1004    3.0201    2.6713 C   0  0  0  0  0  0  0  0  0  0  0  0
   -0.0390    3.4531    1.3502 C   0  0  0  0  0  0  0  0  0  0  0  0
   -0.5317    4.6908    0.9894 C   0  0  0  0  0  0  0  0  0  0  0  0
   -1.0811    5.5254    1.9526 C   0  0  0  0  0  0  0  0  0  0  0  0
   -1.7032    7.1427    1.6204 S   0  0  0  0  0  0  0  0  0  0  0  0
   -1.2025    7.4543   -0.0955 C   0  0  0  0  0  0  0  0  0  0  0  0
   -1.1518    5.0922    3.2756 C   0  0  0  0  0  0  0  0  0  0  0  0
   -0.6740    3.8515    3.6325 C   0  0  0  0  0  0  0  0  0  0  0  0
   -1.0813    0.4870    1.4884 C   0  0  0  0  0  0  0  0  0  0  0  0
   -2.5908    1.3307    1.4377 S   0  0  0  0  0  0  0  0  0  0  0  0
   -3.2405    0.1278    0.3274 C   0  0  0  0  0  0  0  0  0  0  0  0
   -2.3582   -0.9181    0.0899 C   0  0  0  0  0  0  0  0  0  0  0  0
   -2.6334   -2.0922   -0.5767 N   0  0  0  0  0  0  0  0  0  0  0  0
   -3.9160   -2.6502   -0.6152 C   0  0  0  0  0  0  0  0  0  0  0  0
   -4.8246   -2.4650    0.4249 C   0  0  0  0  0  0  0  0  0  0  0  0
   -6.1196   -2.9364    0.3306 C   0  0  0  0  0  0  0  0  0  0  0  0
   -6.5273   -3.6360   -0.7975 C   0  0  0  0  0  0  0  0  0  0  0  0
   -8.1615   -4.2422   -1.0585 S   0  0  0  0  0  0  0  0  0  0  0  0
   -9.0416   -3.8445    0.4760 C   0  0  0  0  0  0  0  0  0  0  0  0
   -5.5999   -3.8900   -1.8073 C   0  0  0  0  0  0  0  0  0  0  0  0
   -4.3141   -3.4032   -1.7210 C   0  0  0  0  0  0  0  0  0  0  0  0
   -1.5594   -2.7604   -1.1945 C   0  0  0  0  0  0  0  0  0  0  0  0
   -1.3512   -4.1194   -0.9828 C   0  0  0  0  0  0  0  0  0  0  0  0
   -0.2792   -4.7643   -1.5686 C   0  0  0  0  0  0  0  0  0  0  0  0
    0.6058   -4.0549   -2.3709 C   0  0  0  0  0  0  0  0  0  0  0  0
    1.9940   -4.7743   -3.1848 S   0  0  0  0  0  0  0  0  0  0  0  0
    2.1672   -6.4083   -2.4180 C   0  0  0  0  0  0  0  0  0  0  0  0
    0.3949   -2.6951   -2.5907 C   0  0  0  0  0  0  0  0  0  0  0  0
   -0.6782   -2.0542   -2.0133 C   0  0  0  0  0  0  0  0  0  0  0  0
   -1.1163   -0.6671    0.7210 C   0  0  0  0  0  0  0  0  0  0  0  0
    0.3774   -1.5272    0.7758 S   0  0  0  0  0  0  0  0  0  0  0  0
   -4.5358    0.3042   -0.2419 C   0  0  0  0  0  0  0  0  0  0  0  0
   -5.9088    0.8145    0.6885 S   0  0  0  0  0  0  0  0  0  0  0  0
   -6.9638    0.7593   -0.7014 C   0  0  0  0  0  0  0  0  0  0  0  0
   -6.2585    0.3318   -1.8204 C   0  0  0  0  0  0  0  0  0  0  0  0
   -4.8991    0.0702   -1.5553 C   0  0  0  0  0  0  0  0  0  0  0  0
   -4.0198   -0.3396   -2.5106 O   0  0  0  0  0  0  0  0  0  0  0  0
   -4.6665   -0.7873   -3.6904 C   0  0  0  0  0  0  0  0  0  0  0  0
   -5.8412    0.1150   -4.0610 C   0  0  0  0  0  0  0  0  0  0  0  0
   -6.8131    0.1145   -3.0299 O   0  0  0  0  0  0  0  0  0  0  0  0
   -8.3349    1.0568   -0.5721 C   0  0  0  0  0  0  0  0  0  0  0  0
   -9.1273    1.5846   -1.5532 C   0  0  0  0  0  0  0  0  0  0  0  0
   -8.6318    2.3937   -2.6898 C   0  0  0  0  0  0  0  0  0  0  0  0
   -7.4811    2.6000   -3.0149 O   0  0  0  0  0  0  0  0  0  0  0  0
   -9.8314    3.0332   -3.2678 C   0  0  0  0  0  0  0  0  0  0  0  0
   -9.8664    3.9351   -4.3279 C   0  0  0  0  0  0  0  0  0  0  0  0
  -11.1265    4.3887   -4.6373 C   0  0  0  0  0  0  0  0  0  0  0  0
  -12.2706    3.9864   -3.9357 C   0  0  0  0  0  0  0  0  0  0  0  0
  -12.2504    3.1041   -2.8815 C   0  0  0  0  0  0  0  0  0  0  0  0
  -10.9787    2.6240   -2.5577 C   0  0  0  0  0  0  0  0  0  0  0  0
  -10.5675    1.6832   -1.5217 C   0  0  0  0  0  0  0  0  0  0  0  0
  -11.3942    0.9246   -0.7312 C   0  0  0  0  0  0  0  0  0  0  0  0
  -12.8000    1.0138   -0.7284 C   0  0  0  0  0  0  0  0  0  0  0  0
  -13.9466    1.0485   -0.6744 N   0  0  0  0  0  0  0  0  0  0  0  0
  -10.9306   -0.0845    0.1358 C   0  0  0  0  0  0  0  0  0  0  0  0
  -10.6189   -0.9452    0.8307 N   0  0  0  0  0  0  0  0  0  0  0  0
  -13.1857    4.8337   -4.7838 C   0  0  0  0  0  0  0  0  0  0  0  0
  -14.0243    4.1204   -5.8729 C   0  0  0  0  0  0  0  0  0  0  0  0
  -13.2601    2.8779   -6.2576 C   0  0  0  0  0  0  0  0  0  0  0  0
  -12.1779    3.2581   -6.9234 C   0  0  0  0  0  0  0  0  0  0  0  0
  -12.1903    4.7648   -7.0000 C   0  0  0  0  0  0  0  0  0  0  0  0
  -13.7040    5.0196   -7.0777 C   0  0  0  0  0  0  0  0  0  0  0  0
  -11.9109    5.2808   -5.5666 C   0  0  0  0  0  0  0  0  0  0  0  0
    8.9380    1.0636    1.9683 H   0  0  0  0  0  0  0  0  0  0  0  0
    5.0809    2.8166    0.2409 H   0  0  0  0  0  0  0  0  0  0  0  0
    3.3407    4.5335   -0.1260 H   0  0  0  0  0  0  0  0  0  0  0  0
    2.5830    7.7872    3.4912 H   0  0  0  0  0  0  0  0  0  0  0  0
    1.4637    6.4076    3.7679 H   0  0  0  0  0  0  0  0  0  0  0  0
    0.9087    7.8509    2.8975 H   0  0  0  0  0  0  0  0  0  0  0  0
    3.8025    5.8568    3.9170 H   0  0  0  0  0  0  0  0  0  0  0  0
    5.5202    4.1552    4.2764 H   0  0  0  0  0  0  0  0  0  0  0  0
    7.6964    4.6296    2.0244 H   0  0  0  0  0  0  0  0  0  0  0  0
    9.9606    5.1813    2.8407 H   0  0  0  0  0  0  0  0  0  0  0  0
   13.6424    2.2373    4.3410 H   0  0  0  0  0  0  0  0  0  0  0  0
   12.1977    1.5144    3.5921 H   0  0  0  0  0  0  0  0  0  0  0  0
   12.3528    1.5978    5.3787 H   0  0  0  0  0  0  0  0  0  0  0  0
   10.0240    1.5611    5.1099 H   0  0  0  0  0  0  0  0  0  0  0  0
    7.7691    1.0238    4.3186 H   0  0  0  0  0  0  0  0  0  0  0  0
    3.7135   -1.5423   -0.9470 H   0  0  0  0  0  0  0  0  0  0  0  0
    4.8644   -2.6785   -2.7726 H   0  0  0  0  0  0  0  0  0  0  0  0
    4.5774   -4.2291   -4.5872 H   0  0  0  0  0  0  0  0  0  0  0  0
    6.2535   -3.5938   -4.4056 H   0  0  0  0  0  0  0  0  0  0  0  0
    5.9575   -5.1074   -5.2926 H   0  0  0  0  0  0  0  0  0  0  0  0
    5.1888   -6.2047   -0.3763 H   0  0  0  0  0  0  0  0  0  0  0  0
    4.0453   -5.0484    1.4762 H   0  0  0  0  0  0  0  0  0  0  0  0
    1.5157   -4.5622    0.6443 H   0  0  0  0  0  0  0  0  0  0  0  0
   -0.0960   -5.7737    2.0585 H   0  0  0  0  0  0  0  0  0  0  0  0
   -1.4921   -5.4487    6.9815 H   0  0  0  0  0  0  0  0  0  0  0  0
    0.2251   -5.0316    6.7982 H   0  0  0  0  0  0  0  0  0  0  0  0
   -1.0486   -3.8298    6.4005 H   0  0  0  0  0  0  0  0  0  0  0  0
    0.9943   -3.3163    5.3832 H   0  0  0  0  0  0  0  0  0  0  0  0
    2.6063   -2.1422    3.9947 H   0  0  0  0  0  0  0  0  0  0  0  0
    0.2879   -0.4754    4.4569 H   0  0  0  0  0  0  0  0  0  0  0  0
    1.4221   -0.8877    6.5679 H   0  0  0  0  0  0  0  0  0  0  0  0
    3.1011   -1.5248    8.0617 H   0  0  0  0  0  0  0  0  0  0  0  0
    1.6753   -0.8393    8.9113 H   0  0  0  0  0  0  0  0  0  0  0  0
    3.2574   -0.9009    9.7174 H   0  0  0  0  0  0  0  0  0  0  0  0
    3.0443    3.0675    6.4798 H   0  0  0  0  0  0  0  0  0  0  0  0
    1.9190    3.4742    4.3270 H   0  0  0  0  0  0  0  0  0  0  0  0
    0.4097    2.8160    0.6026 H   0  0  0  0  0  0  0  0  0  0  0  0
   -0.4661    4.9968   -0.0413 H   0  0  0  0  0  0  0  0  0  0  0  0
   -1.7475    6.7982   -0.7678 H   0  0  0  0  0  0  0  0  0  0  0  0
   -0.1286    7.3213   -0.1896 H   0  0  0  0  0  0  0  0  0  0  0  0
   -1.4693    8.4876   -0.2949 H   0  0  0  0  0  0  0  0  0  0  0  0
   -1.5934    5.7406    4.0171 H   0  0  0  0  0  0  0  0  0  0  0  0
   -0.7437    3.5180    4.6570 H   0  0  0  0  0  0  0  0  0  0  0  0
   -4.5197   -1.9449    1.3202 H   0  0  0  0  0  0  0  0  0  0  0  0
   -6.8014   -2.7479    1.1439 H   0  0  0  0  0  0  0  0  0  0  0  0
  -10.0260   -4.2889    0.3655 H   0  0  0  0  0  0  0  0  0  0  0  0
   -9.1439   -2.7691    0.5908 H   0  0  0  0  0  0  0  0  0  0  0  0
   -8.5288   -4.2942    1.3210 H   0  0  0  0  0  0  0  0  0  0  0  0
   -5.9093   -4.4621   -2.6692 H   0  0  0  0  0  0  0  0  0  0  0  0
   -3.6080   -3.5921   -2.5165 H   0  0  0  0  0  0  0  0  0  0  0  0
   -2.0335   -4.6706   -0.3528 H   0  0  0  0  0  0  0  0  0  0  0  0
   -0.1432   -5.8191   -1.3902 H   0  0  0  0  0  0  0  0  0  0  0  0
    3.0989   -6.8123   -2.8025 H   0  0  0  0  0  0  0  0  0  0  0  0
    2.2348   -6.2993   -1.3395 H   0  0  0  0  0  0  0  0  0  0  0  0
    1.3390   -7.0497   -2.7051 H   0  0  0  0  0  0  0  0  0  0  0  0
    1.0815   -2.1540   -3.2232 H   0  0  0  0  0  0  0  0  0  0  0  0
   -0.8503   -1.0032   -2.1912 H   0  0  0  0  0  0  0  0  0  0  0  0
   -5.0351   -1.8095   -3.5335 H   0  0  0  0  0  0  0  0  0  0  0  0
   -3.9047   -0.7834   -4.4712 H   0  0  0  0  0  0  0  0  0  0  0  0
   -5.4964    1.1436   -4.2227 H   0  0  0  0  0  0  0  0  0  0  0  0
   -6.3458   -0.2519   -4.9549 H   0  0  0  0  0  0  0  0  0  0  0  0
   -8.7616    0.8845    0.4090 H   0  0  0  0  0  0  0  0  0  0  0  0
   -8.9617    4.2259   -4.8386 H   0  0  0  0  0  0  0  0  0  0  0  0
  -13.1349    2.8114   -2.3401 H   0  0  0  0  0  0  0  0  0  0  0  0
  -13.7541    5.5973   -4.2564 H   0  0  0  0  0  0  0  0  0  0  0  0
  -15.0708    3.9797   -5.6164 H   0  0  0  0  0  0  0  0  0  0  0  0
  -13.5460    1.8846   -5.9650 H   0  0  0  0  0  0  0  0  0  0  0  0
  -11.3788    2.6457   -7.2983 H   0  0  0  0  0  0  0  0  0  0  0  0
  -11.5673    5.2120   -7.7704 H   0  0  0  0  0  0  0  0  0  0  0  0
  -14.1453    4.6555   -8.0043 H   0  0  0  0  0  0  0  0  0  0  0  0
  -13.9768    6.0629   -6.9252 H   0  0  0  0  0  0  0  0  0  0  0  0
  -11.6468    6.3366   -5.5499 H   0  0  0  0  0  0  0  0  0  0  0  0
  1  2  2  0  0  0  0
  2  3  1  0  0  0  0
  3  4  2  0  0  0  0
  3  5  1  0  0  0  0
  5  6  2  0  0  0  0
  6  7  1  0  0  0  0
  6  8  1  0  0  0  0
  8  9  1  0  0  0  0
  8 10  2  0  0  0  0
 10 11  1  0  0  0  0
 10 12  1  0  0  0  0
 12 13  1  0  0  0  0
 12 14  2  0  0  0  0
 14 15  1  0  0  0  0
 15 16  2  0  0  0  0
 16 17  1  0  0  0  0
 17 18  3  0  0  0  0
 16 19  1  0  0  0  0
 19 20  3  0  0  0  0
  1 21  1  0  0  0  0
 21 22  2  0  0  0  0
 22 23  1  0  0  0  0
 23 24  1  0  0  0  0
 24 25  2  0  0  0  0
 25 26  1  0  0  0  0
 26 27  2  0  0  0  0
 27 28  1  0  0  0  0
 28 29  1  0  0  0  0
 27 30  1  0  0  0  0
 30 31  2  0  0  0  0
 23 32  1  0  0  0  0
 32 33  2  0  0  0  0
 33 34  1  0  0  0  0
 34 35  2  0  0  0  0
 35 36  1  0  0  0  0
 36 37  1  0  0  0  0
 35 38  1  0  0  0  0
 38 39  2  0  0  0  0
 22 40  1  0  0  0  0
 40 41  1  0  0  0  0
 41 42  1  0  0  0  0
 42 43  2  0  0  0  0
 43 44  1  0  0  0  0
 44 45  1  0  0  0  0
 45 46  2  0  0  0  0
 46 47  1  0  0  0  0
 47 48  2  0  0  0  0
 48 49  1  0  0  0  0
 49 50  1  0  0  0  0
 48 51  1  0  0  0  0
 51 52  2  0  0  0  0
 44 53  1  0  0  0  0
 53 54  2  0  0  0  0
 54 55  1  0  0  0  0
 55 56  2  0  0  0  0
 56 57  1  0  0  0  0
 57 58  1  0  0  0  0
 56 59  1  0  0  0  0
 59 60  2  0  0  0  0
 43 61  1  0  0  0  0
 61 62  1  0  0  0  0
 42 63  1  0  0  0  0
 63 64  2  0  0  0  0
 64 65  1  0  0  0  0
 65 66  1  0  0  0  0
 66 67  2  0  0  0  0
 67 68  1  0  0  0  0
 68 69  2  0  0  0  0
 69 70  1  0  0  0  0
 70 71  1  0  0  0  0
 69 72  1  0  0  0  0
 72 73  2  0  0  0  0
 65 74  1  0  0  0  0
 74 75  2  0  0  0  0
 75 76  1  0  0  0  0
 76 77  2  0  0  0  0
 77 78  1  0  0  0  0
 78 79  1  0  0  0  0
 77 80  1  0  0  0  0
 80 81  2  0  0  0  0
 64 82  1  0  0  0  0
 82 83  1  0  0  0  0
 83 84  1  0  0  0  0
 84 85  2  0  0  0  0
 85 86  1  0  0  0  0
 86 87  1  0  0  0  0
 87 88  2  0  0  0  0
 88 89  1  0  0  0  0
 89 90  2  0  0  0  0
 90 91  1  0  0  0  0
 91 92  1  0  0  0  0
 90 93  1  0  0  0  0
 93 94  2  0  0  0  0
 86 95  1  0  0  0  0
 95 96  2  0  0  0  0
 96 97  1  0  0  0  0
 97 98  2  0  0  0  0
 98 99  1  0  0  0  0
 99100  1  0  0  0  0
 98101  1  0  0  0  0
101102  2  0  0  0  0
 85103  1  0  0  0  0
103104  1  0  0  0  0
 84105  1  0  0  0  0
105106  1  0  0  0  0
106107  1  0  0  0  0
107108  2  0  0  0  0
108109  1  0  0  0  0
109110  1  0  0  0  0
110111  1  0  0  0  0
111112  1  0  0  0  0
112113  1  0  0  0  0
107114  1  0  0  0  0
114115  2  0  0  0  0
115116  1  0  0  0  0
116117  2  0  0  0  0
116118  1  0  0  0  0
118119  2  0  0  0  0
119120  1  0  0  0  0
120121  2  0  0  0  0
121122  1  0  0  0  0
122123  2  0  0  0  0
123124  1  0  0  0  0
124125  2  0  0  0  0
125126  1  0  0  0  0
126127  3  0  0  0  0
125128  1  0  0  0  0
128129  3  0  0  0  0
121130  1  0  0  0  0
130131  1  0  0  0  0
131132  1  0  0  0  0
132133  2  0  0  0  0
133134  1  0  0  0  0
134135  1  0  0  0  0
134136  1  0  0  0  0
 15  2  1  0  0  0  0
 62 21  1  0  0  0  0
104 63  1  0  0  0  0
109105  2  0  0  0  0
124115  1  0  0  0  0
136130  1  0  0  0  0
 14  5  1  0  0  0  0
 31 24  1  0  0  0  0
 39 32  1  0  0  0  0
 61 40  2  0  0  0  0
 73 66  1  0  0  0  0
 81 74  1  0  0  0  0
103 82  2  0  0  0  0
113108  1  0  0  0  0
123118  1  0  0  0  0
135131  1  0  0  0  0
 52 45  1  0  0  0  0
 60 53  1  0  0  0  0
 94 87  1  0  0  0  0
102 95  1  0  0  0  0
136120  1  0  0  0  0
  1137  1  0  0  0  0
 25138  1  0  0  0  0
 26139  1  0  0  0  0
 29140  1  0  0  0  0
 29141  1  0  0  0  0
 29142  1  0  0  0  0
 30143  1  0  0  0  0
 31144  1  0  0  0  0
 33145  1  0  0  0  0
 34146  1  0  0  0  0
 37147  1  0  0  0  0
 37148  1  0  0  0  0
 37149  1  0  0  0  0
 38150  1  0  0  0  0
 39151  1  0  0  0  0
 46152  1  0  0  0  0
 47153  1  0  0  0  0
 50154  1  0  0  0  0
 50155  1  0  0  0  0
 50156  1  0  0  0  0
 51157  1  0  0  0  0
 52158  1  0  0  0  0
 54159  1  0  0  0  0
 55160  1  0  0  0  0
 58161  1  0  0  0  0
 58162  1  0  0  0  0
 58163  1  0  0  0  0
 59164  1  0  0  0  0
 60165  1  0  0  0  0
 67166  1  0  0  0  0
 68167  1  0  0  0  0
 71168  1  0  0  0  0
 71169  1  0  0  0  0
 71170  1  0  0  0  0
 72171  1  0  0  0  0
 73172  1  0  0  0  0
 75173  1  0  0  0  0
 76174  1  0  0  0  0
 79175  1  0  0  0  0
 79176  1  0  0  0  0
 79177  1  0  0  0  0
 80178  1  0  0  0  0
 81179  1  0  0  0  0
 88180  1  0  0  0  0
 89181  1  0  0  0  0
 92182  1  0  0  0  0
 92183  1  0  0  0  0
 92184  1  0  0  0  0
 93185  1  0  0  0  0
 94186  1  0  0  0  0
 96187  1  0  0  0  0
 97188  1  0  0  0  0
100189  1  0  0  0  0
100190  1  0  0  0  0
100191  1  0  0  0  0
101192  1  0  0  0  0
102193  1  0  0  0  0
111194  1  0  0  0  0
111195  1  0  0  0  0
112196  1  0  0  0  0
112197  1  0  0  0  0
114198  1  0  0  0  0
119199  1  0  0  0  0
122200  1  0  0  0  0
130201  1  0  0  0  0
131202  1  0  0  0  0
132203  1  0  0  0  0
133204  1  0  0  0  0
134205  1  0  0  0  0
135206  1  0  0  0  0
135207  1  0  0  0  0
136208  1  0  0  0  0
M  END
