166

C         -6.56690        3.37250        6.54030
C         -7.40780        2.74790        7.42050
C         -7.31950        1.35330        7.87370
O         -6.42040        0.56090        7.68690
C         -8.58840        1.08350        8.58690
C         -9.04570       -0.11660        9.10180
Cl        -8.06870       -1.51440        9.10200
C        -10.34790       -0.16150        9.61950
Cl       -10.94600       -1.61100       10.30020
C        -11.17020        0.96160        9.53870
Cl       -12.78720        0.85380       10.08420
C        -10.70270        2.17400        9.00410
Cl       -11.82710        3.44780        8.77320
C         -9.37740        2.25200        8.59400
C         -8.57940        3.34480        8.04310
C         -8.76430        4.68380        8.26300
C         -9.66930        5.25400        9.18560
N        -10.28480        5.81150        9.97730
C         -7.94880        5.70410        7.72280
N         -7.35110        6.59540        7.31520
C         -5.39280        2.91200        5.91600
C         -4.71680        3.67060        4.97630
C         -3.57520        3.05220        4.45070
C         -2.70220        3.53750        3.44470
C         -2.80960        4.87870        2.91660
C         -2.60340        5.30930        1.63470
C         -2.73590        6.70630        1.50250
Cl        -2.53970        7.51330       -0.00490
C         -3.03540        7.36050        2.66410
C         -3.19030        8.82230        2.89600
C         -1.85670        9.45420        3.30360
S         -3.15870        6.23000        3.96290
C         -1.74450        2.64380        2.98790
C         -1.55930        1.34930        3.54000
C         -2.35910        0.90940        4.61250
C         -2.12500       -0.37430        5.23810
S         -3.43570       -1.39110        5.76580
C         -2.35510       -2.61150        6.34160
C         -2.87870       -3.83550        7.00660
C         -3.48720       -3.49970        8.37000
C         -1.06280       -2.22370        6.13590
C         -0.92350       -0.96670        5.50980
Cl         0.29760       -3.17870        6.59040
C         -3.38640        1.75960        5.00950
S         -4.59680        1.37840        6.19480
C         -0.60450        0.60040        2.81740
C         -0.07610        1.26530        1.74840
S         -0.65120        2.91800        1.65720
C          0.67560        0.68960        0.68160
C          0.43850       -0.55530        0.10430
N         -0.59590       -1.41500        0.41840
C         -0.39980       -2.79180        0.21490
C          0.79890       -3.39340        0.59890
C          1.01890       -4.72710        0.33980
C          0.04530       -5.49140       -0.30040
S          0.45130       -7.17890       -0.61180
C         -0.87830       -7.74950       -1.70890
C         -1.16560       -4.90530       -0.64560
C         -1.38330       -3.56560       -0.39200
C         -1.84980       -0.93610        0.82380
C         -2.57780       -1.61780        1.79520
C         -3.76520       -1.10490        2.28050
C         -4.23760        0.11360        1.81400
S         -5.66880        0.92990        2.44350
C         -6.42470       -0.28930        3.55530
C         -3.54370        0.77070        0.79870
C         -2.37420        0.24670        0.29830
C          1.36100       -0.80450       -0.93910
S          1.54240       -2.09600       -2.07640
C          2.87200       -1.24400       -2.85580
C          3.05880        0.04920       -2.32700
N          3.80470        1.06790       -2.85920
C          4.03140        1.21510       -4.22740
C          5.18120        1.87050       -4.68000
C          5.44410        1.96710       -6.02480
C          4.56840        1.41920       -6.96640
S          5.04080        1.56250       -8.64910
C          3.69260        0.77980       -9.57460
C          3.39710        0.81290       -6.52290
C          3.12820        0.72790       -5.17260
C          4.32460        2.02440       -1.96620
C          4.99170        1.60520       -0.81480
C          5.48590        2.53330        0.07180
C          5.32540        3.89850       -0.16960
S          5.99210        4.98580        1.04220
C          5.61990        6.64450        0.40580
C          4.66930        4.31690       -1.32150
C          4.17380        3.38520       -2.21180
C          2.22650        0.24540       -1.19830
S          1.94560        1.58440       -0.13250
C          3.56700       -1.93760       -3.86990
C          4.87590       -1.66030       -4.33020
C          5.46110       -2.33220       -5.47380
N          6.67080       -1.85650       -5.75180
S          7.08540       -0.77520       -4.64500
N          5.72430       -0.78330       -3.78950
C          4.77530       -3.32770       -6.21110
C          3.50250       -3.66700       -5.69150
N          2.69920       -4.61780       -6.16410
S          1.38590       -4.71140       -5.24020
N          1.76080       -3.54210       -4.19750
C          2.94430       -3.02990       -4.52570
C          5.23040       -3.88660       -7.41810
C          6.53810       -4.04890       -7.81080
C          7.67660       -4.24120       -6.90120
O          7.69330       -4.19280       -5.69190
C          8.79210       -4.69700       -7.77720
C         10.06710       -5.08510       -7.41050
Cl        10.61980       -4.91780       -5.80440
C         10.90960       -5.62360       -8.39430
Cl        12.50690       -6.08290       -7.99170
C         10.43450       -5.82080       -9.68820
Cl        11.44680       -6.56700      -10.84890
C          9.13590       -5.43050      -10.05450
Cl         8.56920       -5.84490      -11.62000
C          8.33560       -4.80860       -9.10690
C          6.98740       -4.24870       -9.16520
C          6.32370       -3.72080      -10.24590
C          5.10330       -3.02630      -10.10010
N          4.13550       -2.40790      -10.05850
C          6.78770       -3.58540      -11.56960
N          7.07570       -3.35350      -12.65680
H         -6.84070        4.37510        6.23380
H         -5.07390        4.63680        4.67030
H         -2.40360        4.66050        0.80300
H         -3.92690        8.99010        3.68360
H         -3.54900        9.28910        1.97630
H         -1.48490        8.99470        4.21670
H         -1.11760        9.31490        2.51830
H         -1.98560       10.51910        3.47660
H         -3.64330       -4.29600        6.37600
H         -2.05880       -4.54550        7.12930
H         -4.29980       -2.78550        8.25500
H         -2.73420       -3.06460        9.02280
H         -3.87530       -4.40010        8.83880
H          0.02980       -0.50810        5.32280
H         -0.34900       -0.41620        3.04950
H          1.55760       -2.80470        1.09290
H          1.94880       -5.19350        0.62590
H         -0.95280       -7.08820       -2.56710
H         -0.58390       -8.74340       -2.03150
H         -1.81820       -7.80430       -1.16710
H         -1.94450       -5.47710       -1.12330
H         -2.31900       -3.10860       -0.67810
H         -2.19680       -2.54780        2.19110
H         -4.29550       -1.65070        3.04310
H         -7.35200        0.16360        3.89280
H         -6.63820       -1.20140        3.00610
H         -5.77940       -0.47850        4.40830
H         -3.93550        1.69950        0.41310
H         -1.84770        0.76120       -0.49150
H          5.88760        2.26070       -3.96410
H          6.34270        2.45390       -6.37070
H          3.94680        0.91710      -10.62120
H          3.64970       -0.28290       -9.35270
H          2.75460        1.28130       -9.35610
H          2.68770        0.40210       -7.22270
H          2.20470        0.27140       -4.84960
H          5.12660        0.54920       -0.63710
H          6.00760        2.21690        0.96160
H          4.54530        6.78060        0.32870
H          6.02640        7.33450        1.13870
H          6.11030        6.79450       -0.55150
H          4.52930        5.36400       -1.53390
H          3.65650        3.71310       -3.10120
H          4.44740       -4.25550       -8.07120
