152

C         -3.11570       -1.23600      -10.67030
C         -2.67230       -0.33260      -11.58030
C         -2.67280        1.14460      -11.41890
O         -2.78760        1.78700      -10.40470
C         -2.61070        1.67280      -12.80500
C         -2.71690        2.98870      -13.22330
Cl        -2.82070        4.27290      -12.10560
C         -2.74270        3.24620      -14.60220
Cl        -2.84210        4.85650      -15.16510
C         -2.72420        2.19100      -15.51410
Cl        -2.84580        2.52680      -17.18600
C         -2.62090        0.85840      -15.08460
Cl        -2.75760       -0.39400      -16.24780
C         -2.50410        0.60610      -13.72340
C         -2.33800       -0.62680      -12.96670
C         -1.73010       -1.79220      -13.34700
C         -1.48170       -2.83700      -12.42630
N         -1.21710       -3.69550      -11.71190
C         -1.10280       -2.06940      -14.58080
N         -0.50030       -2.37200      -15.50900
C         -3.29440       -1.04540       -9.25580
C         -2.39720       -0.26430       -8.50620
C         -2.52590       -0.24810       -7.13990
C         -1.62180        0.35910       -6.12590
O         -0.62310        1.00950       -6.31910
C         -2.19300       -0.07430       -4.82430
C         -3.37090       -0.81530       -5.04910
C         -3.56050       -0.94770       -6.48410
C         -4.46600       -1.69170       -7.22090
C         -4.30370       -1.75760       -8.59280
C         -4.08150       -1.32150       -3.97660
C         -3.54430       -1.19130       -2.70530
C         -2.31020       -0.57440       -2.49410
C         -1.66330        0.06390       -3.56590
C         -1.63580       -0.69780       -1.21970
C         -0.30550       -1.02910       -1.02490
N          0.62870       -1.29310       -2.01540
C          1.95790       -0.90220       -1.79550
C          3.01250       -1.71120       -2.20800
C          4.32100       -1.33540       -1.97730
C          4.59860       -0.14350       -1.32000
S          6.22250        0.44060       -0.95870
C          7.31220       -0.87230       -1.57730
C          3.54510        0.67200       -0.91010
C          2.24130        0.30180       -1.14860
C          0.25940       -1.90600       -3.21980
C          0.84820       -1.51700       -4.42080
C          0.42130       -2.04500       -5.62340
C         -0.61250       -2.97090       -5.64970
S         -1.31610       -3.63550       -7.12710
C         -0.21700       -3.05230       -8.44570
C         -1.16690       -3.40480       -4.44610
C         -0.73030       -2.89110       -3.24690
C         -0.01500       -1.14770        0.35990
S          1.41510       -1.51320        1.25910
C          0.51190       -1.43670        2.75770
C         -0.81160       -1.07850        2.57070
N         -1.71140       -0.79430        3.58730
C         -3.06540       -1.10280        3.42060
C         -4.04750       -0.26730        3.94590
C         -5.38640       -0.55880        3.77810
C         -5.76920       -1.69170        3.07210
S         -7.44570       -2.16250        2.78000
C         -8.41630       -0.88740        3.63180
C         -4.79030       -2.53360        2.54880
C         -3.45490       -2.24840        2.72470
C         -1.25040       -0.22150        4.78280
C         -1.73500       -0.65740        6.01220
C         -1.18160       -0.19790        7.19220
C         -0.11990        0.69590        7.16260
S          0.76510        1.23910        8.58970
C          0.11070        0.19800        9.92230
C          0.31000        1.19900        5.93520
C         -0.25370        0.75550        4.76210
C         -1.10420       -0.93940        1.18870
S         -2.53570       -0.59530        0.28260
C          1.17540       -1.65550        4.02890
C          2.38210       -1.00390        4.31690
C          2.86670       -1.06150        5.60170
C          4.01630       -0.33340        6.20170
O          4.81050        0.38640        5.64790
C          3.95180       -0.67790        7.64950
C          2.88890       -1.57970        7.86790
C          2.21030       -1.80620        6.60230
C          1.07850       -2.53570        6.29050
C          0.56420       -2.44390        5.00770
C          2.64220       -2.05920        9.14160
C          3.40700       -1.58560       10.19520
C          4.43030       -0.65180        9.99510
C          4.73140       -0.23070        8.68480
C          5.22660       -0.12770       11.07220
C          4.83120        0.17720       12.33650
C          3.42940        0.32050       12.80750
O          2.40410       -0.01890       12.25850
C          3.52270        1.04170       14.09540
C          2.48830        1.47570       14.90060
C          2.80420        2.14110       16.07830
Cl         1.56590        2.70680       17.12800
C          4.14700        2.35070       16.40720
F          4.44260        2.99770       17.53920
C          5.19020        1.91670       15.60530
C          4.87130        1.25090       14.43090
C          5.70990        0.67440       13.38800
C          7.07090        0.54600       13.43460
C          7.87120        1.02590       14.49410
N          8.56940        1.39590       15.32580
C          7.85410       -0.11570       12.46290
N          8.55330       -0.65810       11.73220
H         -3.38860       -2.22100      -11.03380
H         -1.58720        0.26410       -8.98270
H         -5.25680       -2.24350       -6.73680
H         -4.97680       -2.36720       -9.17830
H         -5.01160       -1.84920       -4.12160
H         -4.05600       -1.62900       -1.85990
H         -0.75850        0.63040       -3.40980
H          2.80190       -2.64410       -2.70970
H          5.11330       -1.98700       -2.30820
H          7.19590       -0.97930       -2.65190
H          8.32120       -0.54430       -1.34780
H          7.10130       -1.80380       -1.06020
H          3.76610        1.60180       -0.40920
H          1.43220        0.94750       -0.84020
H          1.62580       -0.76830       -4.41870
H          0.88640       -1.70100       -6.53250
H         -0.60000       -3.48440       -9.36630
H         -0.25160       -1.96840       -8.50520
H          0.79270       -3.40740       -8.26190
H         -1.94690       -4.15010       -4.46830
H         -1.16540       -3.23890       -2.32210
H         -3.75540        0.62130        4.48560
H         -6.11890        0.11330        4.19480
H         -8.22860        0.08460        3.18490
H         -9.45530       -1.16550        3.48450
H         -8.18170       -0.88830        4.69230
H         -5.09290       -3.41840        2.01020
H         -2.70440       -2.91770        2.33090
H         -2.53550       -1.38210        6.04380
H         -1.57420       -0.56360        8.12710
H          0.77730        0.34130       10.76700
H         -0.89720        0.51020       10.18040
H          0.13790       -0.84190        9.61330
H          1.10300        1.93060        5.91740
H          0.09490        1.14310        3.81680
H          2.88350       -0.41660        3.56210
H          0.58150       -3.14240        7.03240
H         -0.33670       -2.98320        4.75520
H          1.86590       -2.78800        9.32100
H          3.22830       -1.96540       11.18790
H          5.53710        0.46460        8.50210
H          6.25100        0.10180       10.80120
H          1.46210        1.30060       14.61940
H          6.20380        2.11450       15.91390
