
  xtb     02042201053D
 energy: -279.391945182557 gnorm: 0.000801943714 xtb: 6.4.1 (unknown)
136151  0     0  0            999 V2000
    2.0887    6.9446   -4.6223 C   0  0  0  0  0  0  0  0  0  0  0  0
    1.3967    7.1200   -5.7813 C   0  0  0  0  0  0  0  0  0  0  0  0
    1.7587    8.1641   -6.7686 C   0  0  0  0  0  0  0  0  0  0  0  0
    2.4774    9.1173   -6.5977 O   0  0  0  0  0  0  0  0  0  0  0  0
    1.1007    7.7300   -8.0317 C   0  0  0  0  0  0  0  0  0  0  0  0
    1.2581    8.2249   -9.3144 C   0  0  0  0  0  0  0  0  0  0  0  0
    2.1835    9.6251   -9.6199 Cl  0  0  0  0  0  0  0  0  0  0  0  0
    0.6428    7.5368  -10.3720 C   0  0  0  0  0  0  0  0  0  0  0  0
    0.7905    8.1278  -11.9694 Cl  0  0  0  0  0  0  0  0  0  0  0  0
   -0.0536    6.3526  -10.1327 C   0  0  0  0  0  0  0  0  0  0  0  0
   -0.7106    5.4817  -11.4493 Cl  0  0  0  0  0  0  0  0  0  0  0  0
   -0.2131    5.8565   -8.8294 C   0  0  0  0  0  0  0  0  0  0  0  0
   -0.9356    4.3180   -8.6035 Cl  0  0  0  0  0  0  0  0  0  0  0  0
    0.3162    6.5864   -7.7761 C   0  0  0  0  0  0  0  0  0  0  0  0
    0.2972    6.3582   -6.3356 C   0  0  0  0  0  0  0  0  0  0  0  0
   -0.7380    5.8314   -5.6101 C   0  0  0  0  0  0  0  0  0  0  0  0
   -0.7497    5.7678   -4.2005 C   0  0  0  0  0  0  0  0  0  0  0  0
   -0.8465    5.6777   -3.0593 N   0  0  0  0  0  0  0  0  0  0  0  0
   -1.9809    5.4139   -6.1281 C   0  0  0  0  0  0  0  0  0  0  0  0
   -3.0435    5.1031   -6.4318 N   0  0  0  0  0  0  0  0  0  0  0  0
    2.0795    5.7671   -3.8283 C   0  0  0  0  0  0  0  0  0  0  0  0
    1.7728    4.4845   -4.3345 C   0  0  0  0  0  0  0  0  0  0  0  0
    1.6832    3.3205   -3.4815 C   0  0  0  0  0  0  0  0  0  0  0  0
    1.4546    2.2048   -4.1841 N   0  0  0  0  0  0  0  0  0  0  0  0
    1.3369    2.5780   -5.7351 S   0  0  0  0  0  4  0  0  0  0  0  0
    1.5770    4.1618   -5.6159 N   0  0  0  0  0  0  0  0  0  0  0  0
    1.8354    3.3931   -2.0903 C   0  0  0  0  0  0  0  0  0  0  0  0
    2.2595    4.6350   -1.5978 C   0  0  0  0  0  0  0  0  0  0  0  0
    2.5081    4.9312   -0.3175 N   0  0  0  0  0  0  0  0  0  0  0  0
    2.8951    6.4830   -0.2112 S   0  0  0  0  0  0  0  0  0  0  0  0
    2.7578    6.8760   -1.7604 N   0  0  0  0  0  0  0  0  0  0  0  0
    2.4011    5.7962   -2.4554 C   0  0  0  0  0  0  0  0  0  0  0  0
    1.4811    2.2940   -1.2257 C   0  0  0  0  0  0  0  0  0  0  0  0
    0.2497    1.6724   -1.1798 C   0  0  0  0  0  0  0  0  0  0  0  0
   -0.8730    2.0764   -1.9292 N   0  0  0  0  0  0  0  0  0  0  0  0
   -1.0524    1.5878   -3.2181 C   0  0  0  0  0  0  0  0  0  0  0  0
   -0.5727    0.3218   -3.5572 C   0  0  0  0  0  0  0  0  0  0  0  0
   -0.6793   -0.1560   -4.8471 C   0  0  0  0  0  0  0  0  0  0  0  0
   -1.2720    0.6236   -5.8320 C   0  0  0  0  0  0  0  0  0  0  0  0
   -1.4279    0.1502   -7.5230 S   0  0  0  0  0  0  0  0  0  0  0  0
   -0.6946   -1.5100   -7.5811 C   0  0  0  0  0  0  0  0  0  0  0  0
   -1.7704    1.8837   -5.4964 C   0  0  0  0  0  0  0  0  0  0  0  0
   -1.6662    2.3592   -4.2098 C   0  0  0  0  0  0  0  0  0  0  0  0
   -1.7291    3.0066   -1.3399 C   0  0  0  0  0  0  0  0  0  0  0  0
   -3.0870    3.0256   -1.6629 C   0  0  0  0  0  0  0  0  0  0  0  0
   -3.9377    3.9527   -1.0989 C   0  0  0  0  0  0  0  0  0  0  0  0
   -3.4524    4.8768   -0.1820 C   0  0  0  0  0  0  0  0  0  0  0  0
   -4.4420    6.1103    0.5956 S   0  0  0  0  0  0  0  0  0  0  0  0
   -5.9922    6.0822   -0.3481 C   0  0  0  0  0  0  0  0  0  0  0  0
   -2.1083    4.8320    0.1820 C   0  0  0  0  0  0  0  0  0  0  0  0
   -1.2581    3.9105   -0.3830 C   0  0  0  0  0  0  0  0  0  0  0  0
    0.2077    0.6995   -0.1568 C   0  0  0  0  0  0  0  0  0  0  0  0
   -0.9779   -0.4308    0.3990 S   0  0  0  0  0  0  0  0  0  0  0  0
    0.1459   -1.0611    1.5705 C   0  0  0  0  0  0  0  0  0  0  0  0
    1.3654   -0.4242    1.5371 C   0  0  0  0  0  0  0  0  0  0  0  0
    2.4273   -0.7866    2.3701 N   0  0  0  0  0  0  0  0  0  0  0  0
    2.6924   -2.1596    2.3768 C   0  0  0  0  0  0  0  0  0  0  0  0
    2.7851   -2.8040    1.1405 C   0  0  0  0  0  0  0  0  0  0  0  0
    2.8498   -4.1726    1.0780 C   0  0  0  0  0  0  0  0  0  0  0  0
    2.8280   -4.9255    2.2525 C   0  0  0  0  0  0  0  0  0  0  0  0
    2.6483   -6.6608    2.0131 S   0  0  0  0  0  0  0  0  0  0  0  0
    2.7750   -7.3683    3.6730 C   0  0  0  0  0  0  0  0  0  0  0  0
    2.8208   -4.2910    3.4878 C   0  0  0  0  0  0  0  0  0  0  0  0
    2.7610   -2.9116    3.5471 C   0  0  0  0  0  0  0  0  0  0  0  0
    2.9532    0.1172    3.2842 C   0  0  0  0  0  0  0  0  0  0  0  0
    4.2083   -0.1073    3.8552 C   0  0  0  0  0  0  0  0  0  0  0  0
    4.7452    0.8101    4.7288 C   0  0  0  0  0  0  0  0  0  0  0  0
    4.0527    1.9775    5.0478 C   0  0  0  0  0  0  0  0  0  0  0  0
    4.8453    3.0806    6.1757 S   0  0  0  0  0  0  0  0  0  0  0  0
    3.8018    4.5658    6.1355 C   0  0  0  0  0  0  0  0  0  0  0  0
    2.8029    2.2016    4.4865 C   0  0  0  0  0  0  0  0  0  0  0  0
    2.2588    1.2794    3.6151 C   0  0  0  0  0  0  0  0  0  0  0  0
    1.3995    0.5822    0.5446 C   0  0  0  0  0  0  0  0  0  0  0  0
    2.5876    1.7028   -0.0133 S   0  0  0  0  0  0  0  0  0  0  0  0
   -0.2891   -1.9980    2.6029 C   0  0  0  0  0  0  0  0  0  0  0  0
   -0.7524   -1.4480    3.8086 C   0  0  0  0  0  0  0  0  0  0  0  0
   -1.2284   -2.2616    4.9014 C   0  0  0  0  0  0  0  0  0  0  0  0
   -1.6194   -1.5173    5.9346 N   0  0  0  0  0  0  0  0  0  0  0  0
   -1.4168    0.0349    5.5709 S   0  0  0  0  0  4  0  0  0  0  0  0
   -0.8175   -0.1417    4.0936 N   0  0  0  0  0  0  0  0  0  0  0  0
   -1.2166   -3.6751    4.8539 C   0  0  0  0  0  0  0  0  0  0  0  0
   -0.7411   -4.2220    3.6424 C   0  0  0  0  0  0  0  0  0  0  0  0
   -0.7286   -5.5154    3.3181 N   0  0  0  0  0  0  0  0  0  0  0  0
   -0.2175   -5.6791    1.8069 S   0  0  0  0  0  0  0  0  0  0  0  0
    0.0124   -4.1352    1.4549 N   0  0  0  0  0  0  0  0  0  0  0  0
   -0.3073   -3.3908    2.5266 C   0  0  0  0  0  0  0  0  0  0  0  0
   -1.7994   -4.4132    5.9120 C   0  0  0  0  0  0  0  0  0  0  0  0
   -1.5014   -5.6971    6.2852 C   0  0  0  0  0  0  0  0  0  0  0  0
   -0.2162   -6.3621    6.0316 C   0  0  0  0  0  0  0  0  0  0  0  0
    0.7675   -5.9085    5.4779 O   0  0  0  0  0  0  0  0  0  0  0  0
   -0.2858   -7.6562    6.7484 C   0  0  0  0  0  0  0  0  0  0  0  0
    0.6641   -8.6549    6.8154 C   0  0  0  0  0  0  0  0  0  0  0  0
    0.3812   -9.7868    7.5711 C   0  0  0  0  0  0  0  0  0  0  0  0
    1.5203  -11.0720    7.6821 Cl  0  0  0  0  0  0  0  0  0  0  0  0
   -0.8383   -9.8738    8.2443 C   0  0  0  0  0  0  0  0  0  0  0  0
   -1.1002  -10.9633    8.9764 F   0  0  0  0  0  0  0  0  0  0  0  0
   -1.7940   -8.8704    8.1896 C   0  0  0  0  0  0  0  0  0  0  0  0
   -1.5123   -7.7472    7.4289 C   0  0  0  0  0  0  0  0  0  0  0  0
   -2.2906   -6.5406    7.1568 C   0  0  0  0  0  0  0  0  0  0  0  0
   -3.5725   -6.3042    7.5794 C   0  0  0  0  0  0  0  0  0  0  0  0
   -4.3480   -5.1810    7.2201 C   0  0  0  0  0  0  0  0  0  0  0  0
   -5.0563   -4.3165    6.9577 N   0  0  0  0  0  0  0  0  0  0  0  0
   -4.3009   -7.1768    8.4145 C   0  0  0  0  0  0  0  0  0  0  0  0
   -4.9375   -7.8439    9.0979 N   0  0  0  0  0  0  0  0  0  0  0  0
    2.7409    7.7466   -4.2987 H   0  0  0  0  0  0  0  0  0  0  0  0
   -0.1003   -0.2884   -2.8034 H   0  0  0  0  0  0  0  0  0  0  0  0
   -0.2941   -1.1375   -5.0693 H   0  0  0  0  0  0  0  0  0  0  0  0
    0.3521   -1.4649   -7.2948 H   0  0  0  0  0  0  0  0  0  0  0  0
   -0.7809   -1.8311   -8.6144 H   0  0  0  0  0  0  0  0  0  0  0  0
   -1.2527   -2.1845   -6.9385 H   0  0  0  0  0  0  0  0  0  0  0  0
   -2.2367    2.4888   -6.2592 H   0  0  0  0  0  0  0  0  0  0  0  0
   -2.0294    3.3474   -3.9739 H   0  0  0  0  0  0  0  0  0  0  0  0
   -3.4823    2.2984   -2.3556 H   0  0  0  0  0  0  0  0  0  0  0  0
   -4.9794    3.9355   -1.3758 H   0  0  0  0  0  0  0  0  0  0  0  0
   -6.5699    6.9288    0.0096 H   0  0  0  0  0  0  0  0  0  0  0  0
   -6.5342    5.1610   -0.1547 H   0  0  0  0  0  0  0  0  0  0  0  0
   -5.7765    6.2000   -1.4057 H   0  0  0  0  0  0  0  0  0  0  0  0
   -1.7365    5.5417    0.9049 H   0  0  0  0  0  0  0  0  0  0  0  0
   -0.2185    3.9091   -0.0962 H   0  0  0  0  0  0  0  0  0  0  0  0
    2.7667   -2.2181    0.2348 H   0  0  0  0  0  0  0  0  0  0  0  0
    2.8853   -4.6804    0.1270 H   0  0  0  0  0  0  0  0  0  0  0  0
    3.7602   -7.1591    4.0797 H   0  0  0  0  0  0  0  0  0  0  0  0
    1.9910   -6.9551    4.3041 H   0  0  0  0  0  0  0  0  0  0  0  0
    2.6403   -8.4385    3.5488 H   0  0  0  0  0  0  0  0  0  0  0  0
    2.7976   -4.8542    4.4054 H   0  0  0  0  0  0  0  0  0  0  0  0
    2.7050   -2.4184    4.5061 H   0  0  0  0  0  0  0  0  0  0  0  0
    4.7615   -0.9975    3.5973 H   0  0  0  0  0  0  0  0  0  0  0  0
    5.7161    0.6399    5.1682 H   0  0  0  0  0  0  0  0  0  0  0  0
    2.8329    4.3570    6.5800 H   0  0  0  0  0  0  0  0  0  0  0  0
    4.3257    5.3071    6.7308 H   0  0  0  0  0  0  0  0  0  0  0  0
    3.7011    4.9154    5.1124 H   0  0  0  0  0  0  0  0  0  0  0  0
    2.2343    3.0857    4.7246 H   0  0  0  0  0  0  0  0  0  0  0  0
    1.2749    1.4515    3.2064 H   0  0  0  0  0  0  0  0  0  0  0  0
   -2.5472   -3.8662    6.4737 H   0  0  0  0  0  0  0  0  0  0  0  0
    1.6036   -8.5646    6.2940 H   0  0  0  0  0  0  0  0  0  0  0  0
   -2.7128   -8.9954    8.7391 H   0  0  0  0  0  0  0  0  0  0  0  0
  1  2  2  0  0  0  0
  2  3  1  0  0  0  0
  3  4  2  0  0  0  0
  3  5  1  0  0  0  0
  5  6  2  0  0  0  0
  6  7  1  0  0  0  0
  6  8  1  0  0  0  0
  8  9  1  0  0  0  0
  8 10  2  0  0  0  0
 10 11  1  0  0  0  0
 10 12  1  0  0  0  0
 12 13  1  0  0  0  0
 12 14  2  0  0  0  0
 14 15  1  0  0  0  0
 15 16  2  0  0  0  0
 16 17  1  0  0  0  0
 17 18  3  0  0  0  0
 16 19  1  0  0  0  0
 19 20  3  0  0  0  0
  1 21  1  0  0  0  0
 21 22  2  0  0  0  0
 22 23  1  0  0  0  0
 23 24  1  0  0  0  0
 24 25  2  0  0  0  0
 25 26  2  0  0  0  0
 23 27  2  0  0  0  0
 27 28  1  0  0  0  0
 28 29  2  0  0  0  0
 29 30  1  0  0  0  0
 30 31  1  0  0  0  0
 31 32  2  0  0  0  0
 27 33  1  0  0  0  0
 33 34  2  0  0  0  0
 34 35  1  0  0  0  0
 35 36  1  0  0  0  0
 36 37  2  0  0  0  0
 37 38  1  0  0  0  0
 38 39  2  0  0  0  0
 39 40  1  0  0  0  0
 40 41  1  0  0  0  0
 39 42  1  0  0  0  0
 42 43  2  0  0  0  0
 35 44  1  0  0  0  0
 44 45  2  0  0  0  0
 45 46  1  0  0  0  0
 46 47  2  0  0  0  0
 47 48  1  0  0  0  0
 48 49  1  0  0  0  0
 47 50  1  0  0  0  0
 50 51  2  0  0  0  0
 34 52  1  0  0  0  0
 52 53  1  0  0  0  0
 53 54  1  0  0  0  0
 54 55  2  0  0  0  0
 55 56  1  0  0  0  0
 56 57  1  0  0  0  0
 57 58  2  0  0  0  0
 58 59  1  0  0  0  0
 59 60  2  0  0  0  0
 60 61  1  0  0  0  0
 61 62  1  0  0  0  0
 60 63  1  0  0  0  0
 63 64  2  0  0  0  0
 56 65  1  0  0  0  0
 65 66  2  0  0  0  0
 66 67  1  0  0  0  0
 67 68  2  0  0  0  0
 68 69  1  0  0  0  0
 69 70  1  0  0  0  0
 68 71  1  0  0  0  0
 71 72  2  0  0  0  0
 55 73  1  0  0  0  0
 73 74  1  0  0  0  0
 54 75  1  0  0  0  0
 75 76  2  0  0  0  0
 76 77  1  0  0  0  0
 77 78  1  0  0  0  0
 78 79  2  0  0  0  0
 79 80  2  0  0  0  0
 77 81  2  0  0  0  0
 81 82  1  0  0  0  0
 82 83  2  0  0  0  0
 83 84  1  0  0  0  0
 84 85  1  0  0  0  0
 85 86  2  0  0  0  0
 81 87  1  0  0  0  0
 87 88  2  0  0  0  0
 88 89  1  0  0  0  0
 89 90  2  0  0  0  0
 89 91  1  0  0  0  0
 91 92  2  0  0  0  0
 92 93  1  0  0  0  0
 93 94  1  0  0  0  0
 93 95  2  0  0  0  0
 95 96  1  0  0  0  0
 95 97  1  0  0  0  0
 97 98  2  0  0  0  0
 98 99  1  0  0  0  0
 99100  2  0  0  0  0
100101  1  0  0  0  0
101102  3  0  0  0  0
100103  1  0  0  0  0
103104  3  0  0  0  0
 15  2  1  0  0  0  0
 32 21  1  0  0  0  0
 74 33  1  0  0  0  0
 86 75  1  0  0  0  0
 99 88  1  0  0  0  0
 14  5  1  0  0  0  0
 26 22  1  0  0  0  0
 32 28  1  0  0  0  0
 43 36  1  0  0  0  0
 51 44  1  0  0  0  0
 73 52  2  0  0  0  0
 80 76  1  0  0  0  0
 86 82  1  0  0  0  0
 98 91  1  0  0  0  0
 64 57  1  0  0  0  0
 72 65  1  0  0  0  0
  1105  1  0  0  0  0
 37106  1  0  0  0  0
 38107  1  0  0  0  0
 41108  1  0  0  0  0
 41109  1  0  0  0  0
 41110  1  0  0  0  0
 42111  1  0  0  0  0
 43112  1  0  0  0  0
 45113  1  0  0  0  0
 46114  1  0  0  0  0
 49115  1  0  0  0  0
 49116  1  0  0  0  0
 49117  1  0  0  0  0
 50118  1  0  0  0  0
 51119  1  0  0  0  0
 58120  1  0  0  0  0
 59121  1  0  0  0  0
 62122  1  0  0  0  0
 62123  1  0  0  0  0
 62124  1  0  0  0  0
 63125  1  0  0  0  0
 64126  1  0  0  0  0
 66127  1  0  0  0  0
 67128  1  0  0  0  0
 70129  1  0  0  0  0
 70130  1  0  0  0  0
 70131  1  0  0  0  0
 71132  1  0  0  0  0
 72133  1  0  0  0  0
 87134  1  0  0  0  0
 92135  1  0  0  0  0
 97136  1  0  0  0  0
M  END
