144

C         -0.02020        1.12480       10.45700
C          1.04080        1.92700       10.70840
C          1.50390        2.11310       12.11410
O          0.89020        1.83870       13.11410
C          2.88640        2.63290       11.99510
C          3.83960        2.80800       12.98450
Cl         3.46810        2.55610       14.62950
C          5.13270        3.19210       12.59830
Cl         6.33440        3.44380       13.78680
C          5.45190        3.33390       11.24720
Cl         7.05650        3.71570       10.80000
C          4.48140        3.15700       10.24810
Cl         4.96410        3.19270        8.60290
C          3.18140        2.86220       10.63470
C          1.95860        2.67080        9.85980
C          1.60430        3.35300        8.72890
C          0.32710        3.24670        8.13790
N         -0.69970        3.22340        7.62680
C          2.36280        4.37010        8.10830
N          2.87080        5.25670        7.58750
C         -0.44870        0.54830        9.21190
C          0.43400        0.38390        8.12880
C         -0.03440       -0.18800        6.97400
C          0.67700       -0.40900        5.68690
O          1.82640       -0.14480        5.41860
C         -0.35210       -1.00740        4.80250
C         -1.55780       -1.17070        5.51720
C         -1.37050       -0.63020        6.85400
C         -2.24080       -0.48510        7.92090
C         -1.76870        0.09210        9.08770
C         -2.64170       -1.77140        4.90280
C         -2.54610       -2.11210        3.56250
C         -1.39330       -1.83740        2.81700
C         -0.25900       -1.33600        3.47400
C         -1.35000       -1.97190        1.37960
C         -2.31270       -1.64280        0.43350
N         -3.58800       -1.16580        0.67390
C         -3.88250       -0.36480        1.78400
C         -2.96030        0.55330        2.27950
C         -3.20040        1.23130        3.45770
C         -4.38080        1.01180        4.15620
S         -4.74580        1.71460        5.72950
C         -3.27390        2.68840        6.13070
C         -5.34720        0.16470        3.61360
C         -5.10400       -0.51610        2.44340
C         -4.57260       -1.41930       -0.29650
C         -4.67700       -2.68530       -0.86650
C         -5.56220       -2.92350       -1.89900
C         -6.35970       -1.89310       -2.37640
S         -7.46070       -2.06160       -3.74340
C         -6.94670       -3.62780       -4.50550
C         -6.30750       -0.64290       -1.76100
C         -5.42590       -0.40570       -0.73110
C         -1.78960       -1.77280       -0.88000
S         -2.45550       -1.54230       -2.45840
C         -0.88530       -1.85740       -3.19180
C          0.07040       -2.26340       -2.24500
N          1.31360       -2.79110       -2.48790
C          2.29550       -2.61850       -1.49430
C          3.05210       -3.69910       -1.04110
C          3.93860       -3.53080       -0.00220
C          4.08640       -2.28590        0.61110
S          5.19900       -2.20110        1.97230
C          4.76400       -0.64380        2.79760
C          3.37230       -1.19670        0.12550
C          2.48730       -1.36410       -0.92080
C          1.60270       -3.54690       -3.62270
C          0.61320       -4.28970       -4.27190
C          0.90760       -4.98580       -5.42030
C          2.20000       -4.97600       -5.94810
S          2.44090       -5.87100       -7.44180
C          4.15570       -5.49970       -7.90580
C          3.20040       -4.28390       -5.27450
C          2.90390       -3.58370       -4.12410
C         -0.46350       -2.16460       -0.93580
S          0.18520       -2.41040        0.64730
C         -0.77980       -1.60140       -4.58050
C          0.40370       -1.26140       -5.27380
C          0.41370       -0.93660       -6.68750
N          1.64700       -0.69540       -7.12490
S          2.66680       -0.75440       -5.89060
N          1.62190       -1.15610       -4.73880
C         -0.75800       -0.90000       -7.47670
C         -1.93470       -1.28370       -6.79340
N         -3.15800       -1.33890       -7.31910
S         -4.21080       -1.73360       -6.17380
N         -3.17750       -1.85480       -4.94580
C         -1.94730       -1.58330       -5.38270
C         -0.81090       -0.53680       -8.84050
C          0.01200        0.35790       -9.47580
C          0.77800        1.42560       -8.80100
O          0.83380        1.68670       -7.61760
C          1.35560        2.24300       -9.89530
C          2.16310        3.35580       -9.79310
C          2.55680        3.96630      -10.97620
Br         3.68360        5.49580      -10.90040
C          2.14950        3.48990      -12.21400
C          1.33160        2.37280      -12.30490
C          0.93170        1.74070      -11.13690
C          0.10050        0.56100      -10.90310
C         -0.42540       -0.24970      -11.87750
C         -0.30100       -0.00510      -13.25970
N         -0.24010        0.14670      -14.39660
C         -1.13310       -1.44640      -11.63950
N         -1.69240       -2.44470      -11.54000
H         -0.58230        0.82770       11.33700
H          1.47260        0.66700        8.20780
H         -3.26830       -0.80580        7.84640
H         -2.43950        0.21950        9.92460
H         -3.55570       -1.95980        5.44450
H         -3.38100       -2.59370        3.07850
H          0.65770       -1.16620        2.92890
H         -2.03650        0.72370        1.74720
H         -2.45510        1.91790        3.82490
H         -2.39610        2.05040        6.15560
H         -3.44710        3.09800        7.12020
H         -3.15550        3.49780        5.41690
H         -6.27940        0.02970        4.13990
H         -5.84450       -1.19290        2.04360
H         -4.04760       -3.48570       -0.50530
H         -5.61390       -3.91260       -2.32340
H         -7.45150       -3.66840       -5.46560
H         -5.87030       -3.62240       -4.64980
H         -7.26160       -4.46700       -3.89170
H         -6.95030        0.14550       -2.12080
H         -5.36880        0.57120       -0.27520
H          2.91760       -4.67150       -1.49060
H          4.51130       -4.36700        0.36760
H          5.05060        0.20480        2.18350
H          5.33570       -0.63510        3.72020
H          3.70330       -0.63040        3.02870
H          3.49660       -0.21640        0.55600
H          1.93160       -0.51990       -1.30120
H         -0.38910       -4.31950       -3.87280
H          0.14010       -5.54990       -5.92770
H          4.28390       -4.42670       -8.01400
H          4.84110       -5.91050       -7.17020
H          4.30930       -5.98770       -8.86320
H          4.21350       -4.27300       -5.64220
H          3.67960       -3.02270       -3.62640
H         -1.62780       -0.98260       -9.39510
H          2.47320        3.72700       -8.82860
H          2.47020        3.99440      -13.11260
H          1.02010        2.02240      -13.27510
