196

C         -5.81680       -0.68680       -6.13710
C         -5.47130       -1.16520       -7.39380
C         -4.80870       -2.44270       -7.62780
O         -4.51080       -3.28490       -6.80110
C         -4.70840       -2.56190       -9.10610
C         -4.14760       -3.57620       -9.85510
Cl        -3.34580       -4.88650       -9.11050
C         -4.22650       -3.49820      -11.25220
Cl        -3.49160       -4.70290      -12.21870
C         -4.92610       -2.45490      -11.85130
Cl        -5.08370       -2.41980      -13.55470
C         -5.50880       -1.43340      -11.08300
Cl        -6.48160       -0.27060      -11.88330
C         -5.33940       -1.45360       -9.70680
C         -5.72360       -0.52090       -8.64660
C         -5.97690        0.82940       -8.75580
C         -6.16240        1.66570       -7.63460
N         -6.28120        2.43030       -6.78360
C         -5.84170        1.64380       -9.89330
N         -5.64340        2.44440      -10.69490
C         -5.15440       -0.92530       -4.94490
C         -3.86310       -1.42950       -4.64460
N         -2.84920       -1.71950       -5.50630
C         -2.63380       -1.08990       -6.73160
C         -3.00960        0.23190       -6.96350
C         -2.79870        0.82250       -8.19440
C         -2.21240        0.09820       -9.22690
S         -1.95930        0.70280      -10.85600
C         -2.30700        2.48140      -10.75000
C         -1.79910       -1.21380       -8.98620
C         -2.00010       -1.79790       -7.75920
C         -1.86210       -2.62610       -5.05330
C         -2.23830       -3.89270       -4.62320
C         -1.29020       -4.77640       -4.14650
C          0.04510       -4.39600       -4.09050
S          1.33880       -5.41760       -3.47160
C          0.49750       -6.95060       -2.98320
C          0.42250       -3.13070       -4.54260
C         -0.52040       -2.25180       -5.02510
C         -3.66940       -1.46320       -3.24430
S         -2.33280       -1.90950       -2.24570
C         -3.09110       -1.16160       -0.84850
C         -4.36930       -0.69930       -1.12140
N         -5.26840       -0.14330       -0.23480
C         -5.29130       -0.48250        1.11610
C         -5.71120        0.44070        2.07100
C         -5.71490        0.12310        3.41500
C         -5.29620       -1.13120        3.83560
S         -5.22760       -1.64840        5.52180
C         -5.79200       -0.19510        6.45140
C         -4.90200       -2.06940        2.88300
C         -4.90590       -1.75490        1.54390
C         -6.06520        0.90260       -0.73920
C         -5.47790        1.87820       -1.54050
C         -6.24910        2.83610       -2.16610
C         -7.62670        2.83650       -1.98770
S         -8.70370        3.97250       -2.80000
C         -7.72840        4.52010       -4.23250
C         -8.20830        1.90680       -1.12710
C         -7.43860        0.94460       -0.51020
C         -4.68100       -0.88320       -2.49400
S         -6.00980       -0.40530       -3.48160
C         -2.23580       -0.99330        0.29870
C         -1.27430       -1.94980        0.58580
C         -0.21390       -1.69480        1.44450
C         -0.07580       -0.46400        2.05670
C         -1.15030        0.46210        1.95440
N         -1.15800        1.55620        2.73580
C         -2.09540        2.44330        2.53330
C         -3.03370        2.29220        1.49900
N         -3.10330        1.19720        0.78950
C         -2.20560        0.22690        1.03020
C          1.16770       -0.04940        2.65730
C          1.81000        1.16020        2.44740
N          1.38150        2.20850        1.64540
C          0.69660        2.01340        0.44730
C          0.90430        0.87680       -0.33930
C          0.17220        0.67650       -1.48960
C         -0.77210        1.61350       -1.89980
S         -1.69580        1.25970       -3.36810
C         -2.30570        2.89280       -3.88430
C         -0.95940        2.76230       -1.14520
C         -0.23170        2.95870        0.01070
C          1.64310        3.50840        2.11530
C          1.44180        3.81520        3.46090
C          1.73220        5.07460        3.93430
C          2.22180        6.05740        3.07540
S          2.55240        7.63330        3.79680
C          3.31870        8.58140        2.45170
C          2.40970        5.75850        1.73230
C          2.12760        4.49170        1.25930
C          3.05690        1.18610        3.11870
S          4.33350        2.33940        3.22870
C          5.35780        1.16950        4.06900
C          4.67810       -0.02960        4.33390
N          5.06550       -1.04380        5.16820
C          4.14540       -1.61130        6.06190
C          3.11760       -0.84830        6.62120
C          2.23900       -1.41500        7.51430
C          2.36780       -2.75270        7.88710
S          1.18360       -3.36110        9.04070
C          1.72610       -5.06090        9.37420
C          3.40010       -3.50950        7.34920
C          4.27830       -2.94240        6.44670
C          6.40130       -1.51980        5.23980
C          6.87690       -2.38040        4.25960
C          8.18350       -2.82980        4.29990
C          9.02320       -2.41880        5.32680
S         10.73990       -2.80780        5.40700
C         10.97270       -4.05680        4.10900
C          8.51970       -1.61720        6.35180
C          7.21290       -1.17970        6.31700
C          3.37560        0.01030        3.77460
S          2.12220       -1.17030        3.60430
C          6.64740        1.60610        4.43850
C          7.80520        0.91730        4.17470
C          7.90380       -0.02230        3.05100
O          7.01130       -0.40360        2.32450
C          9.35570       -0.28740        2.90060
C          9.99070       -1.08140        1.96510
Cl         9.10050       -2.00800        0.83710
C         11.39140       -1.13280        1.97320
Cl        12.21730       -2.14670        0.86600
C         12.11200       -0.34150        2.86300
Cl        13.82060       -0.36290        2.80810
C         11.46160        0.47650        3.80270
Cl        12.41560        1.53290        4.75580
C         10.07540        0.45100        3.86310
C          9.11250        1.10080        4.74950
C          9.30030        1.56820        6.02660
C          8.22110        2.05260        6.79900
N          7.38160        2.43640        7.48210
C         10.45400        1.46900        6.82890
N         11.29050        1.36970        7.60900
H         -6.70130       -0.06660       -6.05690
H         -3.46650        0.80440       -6.17070
H         -3.10840        1.84530       -8.34330
H         -1.74000        2.91530       -9.93220
H         -3.37450        2.65290      -10.63970
H         -1.96840        2.89540      -11.69470
H         -1.32880       -1.76740       -9.78390
H         -1.69210       -2.81730       -7.58690
H         -3.27580       -4.18090       -4.68970
H         -1.60580       -5.75570       -3.82640
H          1.27590       -7.59710       -2.58990
H         -0.23470       -6.74220       -2.20870
H          0.03760       -7.41480       -3.85040
H          1.46330       -2.84870       -4.50100
H         -0.23340       -1.26740       -5.36240
H         -6.02420        1.42520        1.75850
H         -6.03940        0.86940        4.12230
H         -5.74990       -0.48410        7.49690
H         -6.81440        0.04830        6.17720
H         -5.12320        0.64200        6.27330
H         -4.59710       -3.05150        3.21070
H         -4.61460       -2.50120        0.82100
H         -4.40610        1.86040       -1.67150
H         -5.77640        3.57180       -2.79730
H         -8.43130        5.02820       -4.88530
H         -6.95570        5.21700       -3.92030
H         -7.30570        3.66030       -4.74360
H         -9.27620        1.93180       -0.97490
H         -7.89740        0.20380        0.12730
H         -1.31010       -2.89430        0.06270
H          0.56190       -2.43610        1.56940
H         -2.10610        3.29920        3.19460
H         -3.75240        3.06570        1.26320
H          1.64850        0.15170       -0.04860
H          0.32880       -0.21060       -2.08470
H         -3.09900        3.22870       -3.22300
H         -1.48110        3.59900       -3.90000
H         -2.70030        2.76090       -4.88710
H         -1.68350        3.50720       -1.43450
H         -0.40130        3.84890        0.59850
H          1.04580        3.05860        4.12110
H          1.58030        5.31690        4.97490
H          3.59800        9.53440        2.89000
H          2.60340        8.74180        1.65020
H          4.20500        8.06510        2.09520
H          2.78400        6.49840        1.04350
H          2.28770        4.25920        0.21670
H          3.02190        0.19680        6.36850
H          1.44720       -0.82410        7.94780
H          1.03880       -5.44450       10.12180
H          2.73690       -5.05570        9.77110
H          1.65720       -5.65900        8.47030
H          3.53270       -4.54450        7.61920
H          5.07530       -3.54200        6.03380
H          6.23010       -2.66940        3.44550
H          8.53520       -3.48440        3.51980
H         12.01600       -4.34880        4.17470
H         10.77230       -3.63170        3.13090
H         10.33600       -4.91360        4.30760
H          9.17150       -1.33530        7.16490
H          6.82370       -0.55070        7.10370
H          6.71130        2.60600        4.85300
