163

C          6.32180        1.79800        4.76920
C          7.02160        1.60690        5.94610
C          6.57610        0.82470        7.10200
O          5.60410        0.10590        7.21160
C          7.55470        1.11790        8.17970
C          7.59350        0.59990        9.46010
Cl         6.34380       -0.39590       10.06030
C          8.69880        0.90470       10.26640
Cl         8.77320        0.32270       11.87320
C          9.75710        1.64090        9.74110
Cl        11.14380        1.91350       10.70730
C          9.71710        2.15210        8.43280
Cl        11.14160        2.88470        7.81890
C          8.56670        1.95990        7.67590
C          8.19080        2.36470        6.32170
C          8.79410        3.34390        5.56010
C          9.58960        4.39900        6.05030
N         10.12460        5.36910        6.35440
C          8.61140        3.51830        4.17530
N          8.60640        3.69920        3.03850
C          5.26320        1.07740        4.22110
C          4.72560       -0.17910        4.48640
C          3.74240       -0.57590        3.59640
C          3.09030       -1.89130        3.67050
C          2.41890       -2.25100        4.84840
O          2.36820       -1.30030        5.81020
C          2.06480       -1.68920        7.13930
C          2.38580       -0.50840        8.04130
C          1.84070       -3.51140        4.95390
C          1.93520       -4.39270        3.89480
C          2.60940       -4.05980        2.73490
C          3.19920       -2.80700        2.61440
O          3.88040       -2.36490        1.51790
C          4.32720       -3.30230        0.55620
C          5.46000       -4.17890        1.07810
C          3.47400        0.38350        2.60500
S          4.47860        1.77600        2.81420
C          2.45030        0.33680        1.63630
C          2.25250        1.14170        0.50550
N          3.15790        2.02370       -0.03850
C          2.66700        3.16130       -0.70040
C          3.20980        3.56720       -1.91980
C          2.70520        4.67140       -2.56640
C          1.64580        5.39400       -2.01690
S          1.08020        6.78190       -2.94240
C         -0.44460        7.27940       -2.09200
C          1.11370        5.00140       -0.79560
C          1.62360        3.89570       -0.14430
C          4.53340        1.75650       -0.05310
C          5.45140        2.80190        0.04050
C          6.80760        2.55020        0.07790
C          7.27260        1.24160        0.02340
S          8.97080        0.79230        0.09760
C          9.83780        2.37260        0.29910
C          6.35690        0.19490       -0.09730
C          5.00580        0.44640       -0.13960
C          0.98110        0.89370       -0.06910
S          0.13680        1.49820       -1.45330
C         -1.21640        0.41950       -1.13640
C         -0.98360       -0.40640       -0.04780
N         -1.78400       -1.44820        0.39310
C         -2.49470       -2.25720       -0.49880
C         -3.71280       -2.81240       -0.11400
C         -4.46570       -3.55480       -1.00250
C         -4.01620       -3.75030       -2.30090
S         -4.90980       -4.62660       -3.54430
C         -6.41890       -5.17550       -2.69660
C         -2.78160       -3.22590       -2.68050
C         -2.02690       -2.49630       -1.79190
C         -1.76830       -1.73990        1.76790
C         -1.63380       -3.04980        2.22660
C         -1.57340       -3.30520        3.57760
C         -1.64570       -2.26270        4.50050
S         -1.54480       -2.70740        6.20380
C         -1.77590       -1.13470        7.08350
C         -1.79190       -0.95920        4.04930
C         -1.85630       -0.70420        2.69380
C          0.25700       -0.10100        0.56450
S          1.10730       -0.77330        1.90750
C         -2.37340        0.47570       -1.99860
C         -2.22320        0.82160       -3.35070
C         -3.33040        0.82240       -4.16270
C         -3.43150        1.15060       -5.61050
O         -2.54020        1.44600       -6.36810
C         -4.88320        1.01770       -5.91410
C         -5.56570        0.58820       -4.75650
C         -4.60700        0.48770       -3.66710
C         -4.76620        0.18760       -2.32720
C         -3.65280        0.19650       -1.50350
C         -6.92510        0.33940       -4.81130
C         -7.59140        0.55550       -6.00730
C         -6.93390        1.05880       -7.13500
C         -5.54550        1.26350       -7.09040
C         -7.70820        1.31830       -8.32910
C         -7.54750        2.36500       -9.16940
C         -6.65730        3.53940       -8.94650
O         -6.13010        3.87980       -7.91680
C         -6.62170        4.24710      -10.24820
C         -5.81020        5.30210      -10.63050
Cl        -4.75450        6.05720       -9.52420
C         -5.86370        5.72640      -11.96630
Cl        -4.89990        7.03950      -12.48110
C         -6.67020        5.05280      -12.88450
Cl        -6.64660        5.53100      -14.52570
C         -7.48890        3.98270      -12.49060
Cl        -8.32110        3.09930      -13.70170
C         -7.51130        3.62360      -11.14760
C         -8.26380        2.60670      -10.42130
C         -9.50380        2.12610      -10.73450
C        -10.20270        1.16280       -9.97140
N        -10.83020        0.38040       -9.41370
C        -10.34950        2.62950      -11.74950
N        -11.14640        3.03370      -12.46860
H          6.62880        2.64260        4.16370
H          5.06810       -0.79290        5.29740
H          1.00680       -1.97040        7.22340
H          2.67700       -2.55580        7.42010
H          2.19610       -0.77210        9.07790
H          1.77340        0.34820        7.77170
H          3.43090       -0.23640        7.92260
H          1.30940       -3.80250        5.84460
H          1.47870       -5.36760        3.97650
H          2.66660       -4.78100        1.93620
H          4.68810       -2.68780       -0.27310
H          3.49320       -3.91340        0.18970
H          5.81790       -4.82790        0.28370
H          6.28010       -3.55280        1.42130
H          5.12300       -4.79110        1.91130
H          4.01870        3.00280       -2.35830
H          3.11550        4.98380       -3.51410
H         -0.21470        7.68080       -1.10920
H         -0.88380        8.05560       -2.71080
H         -1.12050        6.43180       -2.02750
H          0.30900        5.55130       -0.33550
H          1.21530        3.60020        0.81120
H          5.09470        3.81830        0.11040
H          7.48760        3.37910        0.17680
H          9.48880        2.87170        1.19890
H          9.69210        2.98740       -0.58450
H         10.88810        2.11660        0.39950
H          6.72520       -0.81790       -0.15420
H          4.30480       -0.36930       -0.22110
H         -4.07940       -2.64940        0.88900
H         -5.40700       -3.96150       -0.67010
H         -6.98550       -5.72750       -3.44010
H         -6.99170       -4.31580       -2.36150
H         -6.16400       -5.82980       -1.86800
H         -2.42400       -3.39990       -3.68350
H         -1.06940       -2.10470       -2.09870
H         -1.56600       -3.85910        1.51540
H         -1.45810       -4.31590        3.93670
H         -1.72830       -1.38050        8.14010
H         -0.97750       -0.44350        6.82930
H         -2.75110       -0.71920        6.84660
H         -1.85670       -0.13160        4.73650
H         -1.96990        0.31250        2.34620
H         -1.25010        1.07030       -3.74800
H         -5.73930       -0.03740       -1.91780
H         -3.77890        0.00840       -0.44900
H         -7.46220       -0.01600       -3.94520
H         -8.65490        0.37340       -6.06590
H         -5.00090        1.58250       -7.96480
H         -8.48030        0.59050       -8.54540
