
  xtb     02112200173D
 energy: -271.681708666770 gnorm: 0.000618335440 xtb: 6.4.1 (unknown)
132145  0     0  0            999 V2000
    1.6091    1.1071    7.7894 C   0  0  0  0  0  0  0  0  0  0  0  0
    1.9659    0.0227    8.5417 C   0  0  0  0  0  0  0  0  0  0  0  0
    2.3459    0.1572    9.9628 C   0  0  0  0  0  0  0  0  0  0  0  0
    2.1973    1.1209   10.6756 O   0  0  0  0  0  0  0  0  0  0  0  0
    3.0100   -1.1323   10.3022 C   0  0  0  0  0  0  0  0  0  0  0  0
    3.7073   -1.4817   11.4441 C   0  0  0  0  0  0  0  0  0  0  0  0
    3.7658   -0.4491   12.8018 Cl  0  0  0  0  0  0  0  0  0  0  0  0
    4.3814   -2.7127   11.4612 C   0  0  0  0  0  0  0  0  0  0  0  0
    5.2345   -3.1962   12.8626 Cl  0  0  0  0  0  0  0  0  0  0  0  0
    4.3925   -3.5234   10.3281 C   0  0  0  0  0  0  0  0  0  0  0  0
    5.3018   -4.9720   10.3389 Cl  0  0  0  0  0  0  0  0  0  0  0  0
    3.6796   -3.1649    9.1729 C   0  0  0  0  0  0  0  0  0  0  0  0
    3.8570   -4.1182    7.7591 Cl  0  0  0  0  0  0  0  0  0  0  0  0
    2.9374   -1.9945    9.1889 C   0  0  0  0  0  0  0  0  0  0  0  0
    2.0772   -1.3702    8.1863 C   0  0  0  0  0  0  0  0  0  0  0  0
    1.2569   -2.0190    7.2973 C   0  0  0  0  0  0  0  0  0  0  0  0
    0.3066   -1.3554    6.4966 C   0  0  0  0  0  0  0  0  0  0  0  0
   -0.5001   -0.8899    5.8225 N   0  0  0  0  0  0  0  0  0  0  0  0
    1.1088   -3.4147    7.1652 C   0  0  0  0  0  0  0  0  0  0  0  0
    0.8679   -4.5276    7.0190 N   0  0  0  0  0  0  0  0  0  0  0  0
    1.5830    1.1986    6.3804 C   0  0  0  0  0  0  0  0  0  0  0  0
    2.3151    0.3677    5.4953 C   0  0  0  0  0  0  0  0  0  0  0  0
    2.2008    0.4483    4.0523 C   0  0  0  0  0  0  0  0  0  0  0  0
    2.9369   -0.4827    3.4489 N   0  0  0  0  0  0  0  0  0  0  0  0
    3.7332   -1.3365    4.5541 S   0  0  0  0  0  4  0  0  0  0  0  0
    3.1666   -0.5879    5.8616 N   0  0  0  0  0  0  0  0  0  0  0  0
    1.3248    1.3586    3.4130 C   0  0  0  0  0  0  0  0  0  0  0  0
    0.6117    2.1936    4.3072 C   0  0  0  0  0  0  0  0  0  0  0  0
   -0.3014    3.0915    3.9315 N   0  0  0  0  0  0  0  0  0  0  0  0
   -0.9213    3.7954    5.2379 S   0  0  0  0  0  0  0  0  0  0  0  0
   -0.0602    3.0125    6.3429 N   0  0  0  0  0  0  0  0  0  0  0  0
    0.7574    2.1473    5.7377 C   0  0  0  0  0  0  0  0  0  0  0  0
    0.9853    1.3636    2.0437 C   0  0  0  0  0  0  0  0  0  0  0  0
    1.5797    0.7461    0.9219 C   0  0  0  0  0  0  0  0  0  0  0  0
    2.8803    0.3404    0.7997 N   0  0  0  0  0  0  0  0  0  0  0  0
    3.9369    0.9246    1.4965 C   0  0  0  0  0  0  0  0  0  0  0  0
    3.8855    2.2462    1.9359 C   0  0  0  0  0  0  0  0  0  0  0  0
    4.9301    2.7948    2.6516 C   0  0  0  0  0  0  0  0  0  0  0  0
    6.0608    2.0363    2.9320 C   0  0  0  0  0  0  0  0  0  0  0  0
    7.4404    2.6124    3.8577 S   0  0  0  0  0  0  0  0  0  0  0  0
    6.9440    4.2674    4.4139 C   0  0  0  0  0  0  0  0  0  0  0  0
    6.1376    0.7274    2.4512 C   0  0  0  0  0  0  0  0  0  0  0  0
    5.0964    0.1806    1.7413 C   0  0  0  0  0  0  0  0  0  0  0  0
    3.1568   -0.6369   -0.1793 C   0  0  0  0  0  0  0  0  0  0  0  0
    4.1144   -0.4040   -1.1657 C   0  0  0  0  0  0  0  0  0  0  0  0
    4.2375   -1.2784   -2.2221 C   0  0  0  0  0  0  0  0  0  0  0  0
    3.4061   -2.3932   -2.3126 C   0  0  0  0  0  0  0  0  0  0  0  0
    3.4642   -3.3585   -3.7859 S   0  0  0  0  0  0  0  0  0  0  0  0
    1.7181   -3.8370   -3.9624 C   0  0  0  0  0  0  0  0  0  0  0  0
    2.5381   -2.6896   -1.2676 C   0  0  0  0  0  0  0  0  0  0  0  0
    2.4138   -1.8144   -0.2081 C   0  0  0  0  0  0  0  0  0  0  0  0
    0.6450    0.6591   -0.1419 C   0  0  0  0  0  0  0  0  0  0  0  0
    0.6668   -0.0463   -1.7237 S   0  0  0  0  0  0  0  0  0  0  0  0
   -1.0257    0.3760   -1.9539 C   0  0  0  0  0  0  0  0  0  0  0  0
   -1.5458    1.1326   -0.8990 C   0  0  0  0  0  0  0  0  0  0  0  0
   -2.8049    1.6732   -0.7779 N   0  0  0  0  0  0  0  0  0  0  0  0
   -3.2602    1.8484    0.5498 C   0  0  0  0  0  0  0  0  0  0  0  0
   -3.6061    3.1077    1.0365 C   0  0  0  0  0  0  0  0  0  0  0  0
   -3.8202    3.2824    2.3854 C   0  0  0  0  0  0  0  0  0  0  0  0
   -3.7003    2.2078    3.2669 C   0  0  0  0  0  0  0  0  0  0  0  0
   -3.8118    2.5757    4.9866 S   0  0  0  0  0  0  0  0  0  0  0  0
   -3.2205    1.0662    5.8006 C   0  0  0  0  0  0  0  0  0  0  0  0
   -3.4745    0.9311    2.7677 C   0  0  0  0  0  0  0  0  0  0  0  0
   -3.2561    0.7575    1.4159 C   0  0  0  0  0  0  0  0  0  0  0  0
   -3.5399    2.1820   -1.8504 C   0  0  0  0  0  0  0  0  0  0  0  0
   -2.9217    2.6119   -3.0237 C   0  0  0  0  0  0  0  0  0  0  0  0
   -3.6714    3.0355   -4.1022 C   0  0  0  0  0  0  0  0  0  0  0  0
   -5.0594    3.0516   -4.0258 C   0  0  0  0  0  0  0  0  0  0  0  0
   -6.1169    3.5374   -5.3428 S   0  0  0  0  0  0  0  0  0  0  0  0
   -5.0191    3.6578   -6.7814 C   0  0  0  0  0  0  0  0  0  0  0  0
   -5.6787    2.6740   -2.8331 C   0  0  0  0  0  0  0  0  0  0  0  0
   -4.9336    2.2412   -1.7615 C   0  0  0  0  0  0  0  0  0  0  0  0
   -0.5741    1.2651    0.1222 C   0  0  0  0  0  0  0  0  0  0  0  0
   -0.5808    2.0645    1.6589 S   0  0  0  0  0  0  0  0  0  0  0  0
   -1.5606   -0.1972   -3.1320 C   0  0  0  0  0  0  0  0  0  0  0  0
   -2.9201   -0.3061   -3.5095 C   0  0  0  0  0  0  0  0  0  0  0  0
   -3.2617   -0.7521   -4.6844 N   0  0  0  0  0  0  0  0  0  0  0  0
   -2.3075   -1.1950   -5.5297 C   0  0  0  0  0  0  0  0  0  0  0  0
   -0.9720   -1.2548   -5.0786 C   0  0  0  0  0  0  0  0  0  0  0  0
   -0.6216   -0.7500   -3.9265 N   0  0  0  0  0  0  0  0  0  0  0  0
   -2.7713   -1.4843   -6.8458 C   0  0  0  0  0  0  0  0  0  0  0  0
   -2.2036   -2.1829   -7.8707 C   0  0  0  0  0  0  0  0  0  0  0  0
   -1.0939   -3.1602   -7.8246 C   0  0  0  0  0  0  0  0  0  0  0  0
   -0.2977   -3.3673   -6.9364 O   0  0  0  0  0  0  0  0  0  0  0  0
   -1.2005   -3.9243   -9.0912 C   0  0  0  0  0  0  0  0  0  0  0  0
   -0.4746   -5.0366   -9.4814 C   0  0  0  0  0  0  0  0  0  0  0  0
    0.8184   -5.6339   -8.5435 Cl  0  0  0  0  0  0  0  0  0  0  0  0
   -0.8320   -5.6757  -10.6780 C   0  0  0  0  0  0  0  0  0  0  0  0
    0.0548   -7.0344  -11.2157 Cl  0  0  0  0  0  0  0  0  0  0  0  0
   -1.9319   -5.2290  -11.4091 C   0  0  0  0  0  0  0  0  0  0  0  0
   -2.4037   -6.0793  -12.8151 Cl  0  0  0  0  0  0  0  0  0  0  0  0
   -2.6675   -4.1018  -11.0060 C   0  0  0  0  0  0  0  0  0  0  0  0
   -4.0980   -3.7066  -11.8647 Cl  0  0  0  0  0  0  0  0  0  0  0  0
   -2.2566   -3.4116   -9.8733 C   0  0  0  0  0  0  0  0  0  0  0  0
   -2.7523   -2.2068   -9.2193 C   0  0  0  0  0  0  0  0  0  0  0  0
   -3.3880   -1.1365   -9.7894 C   0  0  0  0  0  0  0  0  0  0  0  0
   -3.6720    0.0562   -9.0843 C   0  0  0  0  0  0  0  0  0  0  0  0
   -3.9041    1.0703   -8.5983 N   0  0  0  0  0  0  0  0  0  0  0  0
   -3.6759   -0.9509  -11.1594 C   0  0  0  0  0  0  0  0  0  0  0  0
   -3.8808   -0.6553  -12.2489 N   0  0  0  0  0  0  0  0  0  0  0  0
    1.3501    2.0109    8.3291 H   0  0  0  0  0  0  0  0  0  0  0  0
    3.0247    2.8578    1.7124 H   0  0  0  0  0  0  0  0  0  0  0  0
    4.8526    3.8193    2.9780 H   0  0  0  0  0  0  0  0  0  0  0  0
    6.8209    4.9280    3.5607 H   0  0  0  0  0  0  0  0  0  0  0  0
    6.0332    4.2024    5.0018 H   0  0  0  0  0  0  0  0  0  0  0  0
    7.7598    4.6210    5.0368 H   0  0  0  0  0  0  0  0  0  0  0  0
    7.0232    0.1462    2.6566 H   0  0  0  0  0  0  0  0  0  0  0  0
    5.1525   -0.8408    1.3989 H   0  0  0  0  0  0  0  0  0  0  0  0
    4.7193    0.4894   -1.1226 H   0  0  0  0  0  0  0  0  0  0  0  0
    4.9426   -1.0833   -3.0146 H   0  0  0  0  0  0  0  0  0  0  0  0
    1.5592   -4.0428   -5.0165 H   0  0  0  0  0  0  0  0  0  0  0  0
    1.0967   -3.0023   -3.6525 H   0  0  0  0  0  0  0  0  0  0  0  0
    1.5063   -4.7273   -3.3775 H   0  0  0  0  0  0  0  0  0  0  0  0
    1.9433   -3.5886   -1.2877 H   0  0  0  0  0  0  0  0  0  0  0  0
    1.7227   -2.0215    0.5954 H   0  0  0  0  0  0  0  0  0  0  0  0
   -3.6517    3.9479    0.3606 H   0  0  0  0  0  0  0  0  0  0  0  0
   -4.0388    4.2624    2.7798 H   0  0  0  0  0  0  0  0  0  0  0  0
   -3.9643    0.2797    5.7150 H   0  0  0  0  0  0  0  0  0  0  0  0
   -3.0892    1.3308    6.8458 H   0  0  0  0  0  0  0  0  0  0  0  0
   -2.2690    0.7518    5.3818 H   0  0  0  0  0  0  0  0  0  0  0  0
   -3.4350    0.0752    3.4211 H   0  0  0  0  0  0  0  0  0  0  0  0
   -3.0333   -0.2261    1.0287 H   0  0  0  0  0  0  0  0  0  0  0  0
   -1.8443    2.6192   -3.0923 H   0  0  0  0  0  0  0  0  0  0  0  0
   -3.1623    3.3502   -4.9985 H   0  0  0  0  0  0  0  0  0  0  0  0
   -4.3150    4.4740   -6.6490 H   0  0  0  0  0  0  0  0  0  0  0  0
   -4.5133    2.7114   -6.9460 H   0  0  0  0  0  0  0  0  0  0  0  0
   -5.6702    3.8717   -7.6234 H   0  0  0  0  0  0  0  0  0  0  0  0
   -6.7552    2.7067   -2.7697 H   0  0  0  0  0  0  0  0  0  0  0  0
   -5.4231    1.9251   -0.8524 H   0  0  0  0  0  0  0  0  0  0  0  0
   -3.7281   -0.0519   -2.8405 H   0  0  0  0  0  0  0  0  0  0  0  0
   -0.1856   -1.6958   -5.6697 H   0  0  0  0  0  0  0  0  0  0  0  0
   -3.7593   -1.0723   -7.0207 H   0  0  0  0  0  0  0  0  0  0  0  0
  1  2  2  0  0  0  0
  2  3  1  0  0  0  0
  3  4  2  0  0  0  0
  3  5  1  0  0  0  0
  5  6  2  0  0  0  0
  6  7  1  0  0  0  0
  6  8  1  0  0  0  0
  8  9  1  0  0  0  0
  8 10  2  0  0  0  0
 10 11  1  0  0  0  0
 10 12  1  0  0  0  0
 12 13  1  0  0  0  0
 12 14  2  0  0  0  0
 14 15  1  0  0  0  0
 15 16  2  0  0  0  0
 16 17  1  0  0  0  0
 17 18  3  0  0  0  0
 16 19  1  0  0  0  0
 19 20  3  0  0  0  0
  1 21  1  0  0  0  0
 21 22  2  0  0  0  0
 22 23  1  0  0  0  0
 23 24  1  0  0  0  0
 24 25  2  0  0  0  0
 25 26  2  0  0  0  0
 23 27  2  0  0  0  0
 27 28  1  0  0  0  0
 28 29  2  0  0  0  0
 29 30  1  0  0  0  0
 30 31  1  0  0  0  0
 31 32  2  0  0  0  0
 27 33  1  0  0  0  0
 33 34  2  0  0  0  0
 34 35  1  0  0  0  0
 35 36  1  0  0  0  0
 36 37  2  0  0  0  0
 37 38  1  0  0  0  0
 38 39  2  0  0  0  0
 39 40  1  0  0  0  0
 40 41  1  0  0  0  0
 39 42  1  0  0  0  0
 42 43  2  0  0  0  0
 35 44  1  0  0  0  0
 44 45  2  0  0  0  0
 45 46  1  0  0  0  0
 46 47  2  0  0  0  0
 47 48  1  0  0  0  0
 48 49  1  0  0  0  0
 47 50  1  0  0  0  0
 50 51  2  0  0  0  0
 34 52  1  0  0  0  0
 52 53  1  0  0  0  0
 53 54  1  0  0  0  0
 54 55  2  0  0  0  0
 55 56  1  0  0  0  0
 56 57  1  0  0  0  0
 57 58  2  0  0  0  0
 58 59  1  0  0  0  0
 59 60  2  0  0  0  0
 60 61  1  0  0  0  0
 61 62  1  0  0  0  0
 60 63  1  0  0  0  0
 63 64  2  0  0  0  0
 56 65  1  0  0  0  0
 65 66  2  0  0  0  0
 66 67  1  0  0  0  0
 67 68  2  0  0  0  0
 68 69  1  0  0  0  0
 69 70  1  0  0  0  0
 68 71  1  0  0  0  0
 71 72  2  0  0  0  0
 55 73  1  0  0  0  0
 73 74  1  0  0  0  0
 54 75  1  0  0  0  0
 75 76  2  0  0  0  0
 76 77  1  0  0  0  0
 77 78  2  0  0  0  0
 78 79  1  0  0  0  0
 79 80  2  0  0  0  0
 78 81  1  0  0  0  0
 81 82  2  0  0  0  0
 82 83  1  0  0  0  0
 83 84  2  0  0  0  0
 83 85  1  0  0  0  0
 85 86  2  0  0  0  0
 86 87  1  0  0  0  0
 86 88  1  0  0  0  0
 88 89  1  0  0  0  0
 88 90  2  0  0  0  0
 90 91  1  0  0  0  0
 90 92  1  0  0  0  0
 92 93  1  0  0  0  0
 92 94  2  0  0  0  0
 94 95  1  0  0  0  0
 95 96  2  0  0  0  0
 96 97  1  0  0  0  0
 97 98  3  0  0  0  0
 96 99  1  0  0  0  0
 99100  3  0  0  0  0
 15  2  1  0  0  0  0
 32 21  1  0  0  0  0
 74 33  1  0  0  0  0
 80 75  1  0  0  0  0
 95 82  1  0  0  0  0
 14  5  1  0  0  0  0
 26 22  1  0  0  0  0
 32 28  1  0  0  0  0
 43 36  1  0  0  0  0
 51 44  1  0  0  0  0
 73 52  2  0  0  0  0
 94 85  1  0  0  0  0
 64 57  1  0  0  0  0
 72 65  1  0  0  0  0
  1101  1  0  0  0  0
 37102  1  0  0  0  0
 38103  1  0  0  0  0
 41104  1  0  0  0  0
 41105  1  0  0  0  0
 41106  1  0  0  0  0
 42107  1  0  0  0  0
 43108  1  0  0  0  0
 45109  1  0  0  0  0
 46110  1  0  0  0  0
 49111  1  0  0  0  0
 49112  1  0  0  0  0
 49113  1  0  0  0  0
 50114  1  0  0  0  0
 51115  1  0  0  0  0
 58116  1  0  0  0  0
 59117  1  0  0  0  0
 62118  1  0  0  0  0
 62119  1  0  0  0  0
 62120  1  0  0  0  0
 63121  1  0  0  0  0
 64122  1  0  0  0  0
 66123  1  0  0  0  0
 67124  1  0  0  0  0
 70125  1  0  0  0  0
 70126  1  0  0  0  0
 70127  1  0  0  0  0
 71128  1  0  0  0  0
 72129  1  0  0  0  0
 76130  1  0  0  0  0
 79131  1  0  0  0  0
 81132  1  0  0  0  0
M  END
