196

C         -0.87000       -2.63980       11.81420
C         -1.97050       -2.84860       12.58600
C         -1.86440       -2.97990       14.05820
O         -0.86470       -3.18630       14.70150
C         -3.24070       -2.72580       14.55810
C         -3.67650       -2.55740       15.86100
Cl        -2.62430       -2.78150       17.18520
C         -5.01330       -2.18710       16.07190
Cl        -5.59980       -1.99170       17.66620
C         -5.85510       -1.94170       14.98790
Cl        -7.45360       -1.40400       15.27010
C         -5.40960       -2.11770       13.66840
Cl        -6.43650       -1.65930       12.37440
C         -4.11420       -2.56670       13.46140
C         -3.37860       -2.89810       12.24400
C         -3.87560       -3.50430       11.12170
C         -5.22230       -3.84890       10.88310
N         -6.27510       -4.21910       10.61610
C         -3.03780       -4.04600       10.11980
N         -2.40630       -4.54890        9.30360
C         -0.82980       -2.13860       10.49230
C          0.23250       -2.23560        9.62710
C         -0.00530       -1.67440        8.35860
C          0.86760       -1.63110        7.24450
C          2.13470       -2.32010        7.20790
C          3.26050       -1.98780        6.49910
C          4.27630       -2.95540        6.58010
C          3.93560       -4.04030        7.33240
C          4.74300       -5.25290        7.63890
C          5.16100       -5.29130        9.11000
S          2.34930       -3.86360        7.98850
C          0.39030       -0.95520        6.12580
C         -0.90330       -0.38290        6.04140
C         -1.76560       -0.40890        7.15880
C         -3.07250        0.21410        7.14220
C         -4.23260       -0.22360        7.71840
C         -5.30870        0.66990        7.55420
C         -4.98070        1.79640        6.86420
C         -5.83820        2.96760        6.53060
C         -5.42840        4.20520        7.33120
S         -3.31470        1.76910        6.39070
C         -1.28640       -1.06530        8.28400
S         -2.16110       -1.24540        9.77740
C         -1.20500        0.04630        4.73010
C         -0.20260       -0.18310        3.82930
S          1.22630       -0.83300        4.60390
C         -0.25550        0.05600        2.42660
C          0.40610       -0.58910        1.38950
N          1.29660       -1.64580        1.47170
C          1.12770       -2.70050        2.36990
C         -0.14400       -3.06260        2.81260
C         -0.29850       -4.00050        3.81160
C          0.81630       -4.61040        4.37370
S          0.69930       -5.76250        5.70650
C         -0.79930       -5.20760        6.56870
C          2.08160       -4.31690        3.87280
C          2.23900       -3.37120        2.88430
C          2.33900       -1.64250        0.52730
C          3.01340       -0.45180        0.26710
C          3.93270       -0.36930       -0.75810
C          4.19860       -1.48630       -1.53850
S          5.28630       -1.45750       -2.92660
C          5.46900        0.31600       -3.27150
C          3.58470       -2.69930       -1.23020
C          2.66320       -2.78050       -0.20920
C          0.05260       -0.01360        0.14280
S          0.48780       -0.35780       -1.48810
C         -0.52440        0.95920       -2.07120
C         -1.19230        1.60430       -1.04020
N         -1.96970        2.74870       -1.12720
C         -1.78420        3.72060       -0.12840
C         -2.87380        4.34960        0.47450
C         -2.67350        5.27030        1.47690
C         -1.38500        5.58180        1.90910
S         -1.26130        6.76370        3.21290
C          0.50380        6.76550        3.63630
C         -0.29750        4.96790        1.30360
C         -0.49860        4.04950        0.29170
C         -3.04910        2.87540       -2.00560
C         -3.86290        1.78700       -2.32160
C         -4.96490        1.96110       -3.13160
C         -5.27780        3.21940       -3.64210
S         -6.76380        3.35990       -4.58270
C         -6.58680        4.95460       -5.42930
C         -4.45020        4.29760       -3.35590
C         -3.34650        4.12440       -2.54710
C         -0.85220        1.02770        0.21410
S         -1.33900        1.32240        1.84860
C         -0.40660        1.21060       -3.47390
C         -1.29330        1.63510       -4.41930
C         -0.74950        1.68950       -5.72530
C         -1.40600        2.06080       -6.91550
C         -2.84360        2.21680       -7.00240
C         -3.57120        3.09230       -7.75780
C         -4.94980        2.80130       -7.77310
C         -5.28260        1.69950       -7.04590
C         -6.60440        1.02280       -6.93960
C         -6.68590       -0.15800       -7.91000
S         -3.88600        1.01620       -6.28330
C         -0.61690        2.13710       -8.05800
C          0.76190        1.78670       -8.08290
C          1.39860        1.33260       -6.90190
C          2.76370        0.85520       -6.89110
C          3.25330       -0.24920       -6.24490
C          4.62010       -0.47480       -6.48850
C          5.18930        0.46820       -7.29130
C          6.57760        0.53010       -7.82550
C          6.59880        0.12830       -9.30300
S          4.03030        1.65640       -7.77560
C          0.61710        1.31600       -5.75650
S          1.16970        0.85850       -4.17130
C          1.30290        1.84810       -9.37690
C          0.40640        2.24780      -10.34150
S         -1.18310        2.56640       -9.64200
C          0.53330        2.44270      -11.72990
C          1.58240        2.24670      -12.59180
C          2.92490        1.69190      -12.31600
O          3.43400        1.38220      -11.25870
C          3.58530        1.57050      -13.63480
C          4.84200        1.06930      -13.90700
C          5.26630        1.04100      -15.22950
Cl         6.81960        0.42860      -15.64200
C          4.41490        1.51610      -16.22980
F          4.82730        1.48290      -17.50270
C          3.15310        2.02330      -15.96110
C          2.73250        2.05130      -14.63990
C          1.49380        2.51580      -14.01990
C          0.47190        3.13030      -14.69590
C         -0.71210        3.66270      -14.14070
N         -1.69790        4.14080      -13.79500
C          0.47090        3.34960      -16.09080
N          0.39870        3.56030      -17.21680
H          0.08890       -2.81230       12.29070
H          1.14750       -2.72320        9.90830
H          3.37530       -1.05930        5.97000
H          5.22700       -2.85630        6.08670
H          4.15470       -6.14560        7.41060
H          5.63040       -5.25410        7.00250
H          5.75800       -4.41640        9.35810
H          5.75020       -6.18240        9.31020
H          4.28230       -5.30500        9.75080
H         -4.32790       -1.17580        8.20890
H         -6.29620        0.47860        7.93480
H         -5.75720        3.19050        5.46350
H         -6.87730        2.71310        6.74980
H         -5.50800        4.00920        8.39810
H         -6.07220        5.04490        7.08230
H         -4.39980        4.47670        7.10430
H         -2.15740        0.44600        4.43330
H         -1.01580       -2.58860        2.38630
H         -1.29180       -4.25080        4.14900
H         -0.80110       -4.12300        6.62250
H         -1.68770       -5.57490        6.06390
H         -0.75200       -5.62150        7.57010
H          2.94220       -4.81450        4.29240
H          3.22630       -3.11310        2.53300
H          2.79530        0.42200        0.86420
H          4.42660        0.57070       -0.94190
H          5.98490        0.38190       -4.22420
H          6.06520        0.79210       -2.49840
H          4.48500        0.76840       -3.35500
H          3.81780       -3.57020       -1.82310
H          2.16420       -3.71410        0.00280
H         -3.87600        4.10000        0.16090
H         -3.51500        5.75130        1.95120
H          1.08890        7.15200        2.80670
H          0.81700        5.76240        3.91050
H          0.59780        7.42830        4.49090
H          0.71210        5.19700        1.60420
H          0.35270        3.57860       -0.17870
H         -3.63040        0.81150       -1.92120
H         -5.60540        1.12440       -3.36280
H         -6.67560        5.77330       -4.72100
H         -5.63600        4.98110       -5.95350
H         -7.40480        4.99920       -6.14140
H         -4.65980        5.27910       -3.74860
H         -2.71090        4.96620       -2.31680
H         -2.31360        1.88450       -4.20270
H         -3.13590        3.92930       -8.27430
H         -5.66990        3.38030       -8.32390
H         -6.75840        0.66400       -5.92050
H         -7.39210        1.74250       -7.16880
H         -7.65670       -0.64070       -7.83270
H         -6.54580        0.18230       -8.93350
H         -5.91390       -0.88920       -7.68080
H          2.64370       -0.90870       -5.65390
H          5.15880       -1.31340       -6.08340
H          7.21480       -0.14380       -7.24850
H          6.96840        1.54590       -7.72530
H          6.26140       -0.89940       -9.41730
H          7.60630        0.21210       -9.70270
H          5.93570        0.77280       -9.87620
H          2.31690        1.59510       -9.62030
H         -0.38380        2.79980      -12.18320
H          5.47410        0.70860      -13.11130
H          2.54910        2.37130      -16.78260
