77

C          6.30070        0.26530        1.68430
C          7.53510        0.16380        1.11380
C          7.93110       -0.84820        0.10900
O          7.24100       -1.68910       -0.41710
C          9.40890       -0.73810        0.01260
C         10.27840       -1.50730       -0.74060
Cl         9.70390       -2.65210       -1.86670
C         11.65700       -1.32390       -0.55970
Cl        12.76770       -2.22070       -1.49970
C         12.12270       -0.44280        0.41490
Cl        13.80540       -0.31090        0.68980
C         11.23590        0.32810        1.18400
Cl        11.87240        1.25820        2.47630
C          9.87410        0.22870        0.92810
C          8.71670        0.91360        1.49480
C          8.67060        2.16710        2.04430
C          9.72360        3.10540        2.10660
N         10.47340        3.97390        2.12500
C          7.47020        2.77890        2.47530
N          6.54390        3.34980        2.83990
C          5.07550       -0.22020        1.15500
C          4.01510       -0.56310        2.02050
C          2.70420       -0.95380        1.54510
N          1.87730       -1.22030        2.56430
S          2.65900       -1.01650        3.94380
N          4.08230       -0.57880        3.35340
C          2.37330       -0.95870        0.17630
C          3.43810       -0.66060       -0.69010
N          3.38490       -0.66780       -2.02770
S          4.78660       -0.18300       -2.60720
N          5.56000        0.05720       -1.22800
C          4.75710       -0.27820       -0.21630
C          1.00500       -1.12870       -0.26310
C          0.12850       -1.99720        0.36820
C         -1.23070       -2.04790        0.06470
C         -1.81500       -1.20190       -0.86430
C         -0.94050       -0.36290       -1.59930
N         -1.25810        0.44630       -2.60750
S          0.06110        1.22130       -3.08440
N          1.10620        0.56700       -2.05810
C          0.46760       -0.32130       -1.29940
C         -3.25160       -1.10500       -1.00700
C         -3.89820        0.13420       -1.16340
C         -5.34240        0.26470       -1.16700
N         -5.72250        1.53150       -1.35040
S         -4.42010        2.45610       -1.42340
N         -3.30490        1.32980       -1.26630
C         -6.20210       -0.83740       -1.00010
C         -5.55510       -2.08720       -0.95240
N         -6.15750       -3.27470       -0.85230
S         -5.04220       -4.41950       -0.75140
N         -3.73860       -3.49600       -0.80300
C         -4.11030       -2.21410       -0.91630
C         -7.61850       -0.72280       -0.89470
C         -8.26090        0.29790       -0.25880
C         -7.62540        1.19130        0.74440
O         -6.48790        1.16800        1.15900
C         -8.72140        2.03860        1.26340
C         -8.64370        3.04210        2.20780
C         -9.81180        3.70550        2.56290
Cl        -9.78440        4.97360        3.72350
C        -11.01860        3.33110        1.96610
F        -12.14070        3.96940        2.31730
C        -11.10480        2.31940        1.02260
C         -9.93600        1.66420        0.66450
C         -9.68250        0.58580       -0.28710
C        -10.61360        0.01370       -1.11180
C        -11.98350        0.35380       -1.11080
N        -13.10700        0.58380       -1.15060
C        -10.33840       -0.97280       -2.08350
N        -10.19770       -1.76060       -2.90630
H          6.21120        0.73110        2.65850
H          0.51100       -2.64290        1.14240
H         -1.86280       -2.72620        0.61550
H         -8.18500       -1.54180       -1.31910
H         -7.69750        3.30420        2.65360
H        -12.06880        2.07680        0.60630
