
  xtb     02112210083D
 energy: -296.747527371072 gnorm: 0.000641287874 xtb: 6.4.1 (unknown)
157171  0     0  0            999 V2000
   -5.3841   -2.0923   -5.7533 C   0  0  0  0  0  0  0  0  0  0  0  0
   -5.7845   -3.3941   -5.8103 C   0  0  0  0  0  0  0  0  0  0  0  0
   -5.4399   -4.3946   -4.7819 C   0  0  0  0  0  0  0  0  0  0  0  0
   -4.8561   -4.2165   -3.7354 O   0  0  0  0  0  0  0  0  0  0  0  0
   -6.0716   -5.6583   -5.2347 C   0  0  0  0  0  0  0  0  0  0  0  0
   -5.9408   -6.9254   -4.6970 C   0  0  0  0  0  0  0  0  0  0  0  0
   -5.0707   -7.1917   -3.2532 Cl  0  0  0  0  0  0  0  0  0  0  0  0
   -6.5196   -8.0029   -5.3786 C   0  0  0  0  0  0  0  0  0  0  0  0
   -6.4045   -9.5848   -4.7368 Cl  0  0  0  0  0  0  0  0  0  0  0  0
   -7.1478   -7.7907   -6.6046 C   0  0  0  0  0  0  0  0  0  0  0  0
   -7.7649   -9.1327   -7.4680 Cl  0  0  0  0  0  0  0  0  0  0  0  0
   -7.2694   -6.5029   -7.1522 C   0  0  0  0  0  0  0  0  0  0  0  0
   -7.8906   -6.3598   -8.7444 Cl  0  0  0  0  0  0  0  0  0  0  0  0
   -6.7926   -5.4191   -6.4221 C   0  0  0  0  0  0  0  0  0  0  0  0
   -6.7739   -3.9825   -6.6938 C   0  0  0  0  0  0  0  0  0  0  0  0
   -7.6214   -3.2951   -7.5242 C   0  0  0  0  0  0  0  0  0  0  0  0
   -7.4896   -1.9310   -7.8651 C   0  0  0  0  0  0  0  0  0  0  0  0
   -7.4426   -0.8491   -8.2475 N   0  0  0  0  0  0  0  0  0  0  0  0
   -8.8336   -3.7913   -8.0505 C   0  0  0  0  0  0  0  0  0  0  0  0
   -9.8873   -4.0569   -8.4203 N   0  0  0  0  0  0  0  0  0  0  0  0
   -4.3154   -1.5954   -4.9458 C   0  0  0  0  0  0  0  0  0  0  0  0
   -4.5040   -0.3842   -4.2395 C   0  0  0  0  0  0  0  0  0  0  0  0
   -3.5351    0.1128   -3.2954 C   0  0  0  0  0  0  0  0  0  0  0  0
   -4.0911    1.1258   -2.6655 N   0  0  0  0  0  0  0  0  0  0  0  0
   -5.3077    1.2757   -3.1903 O   0  0  0  0  0  0  0  0  0  0  0  0
   -5.5774    0.3734   -4.1393 N   0  0  0  0  0  0  0  0  0  0  0  0
   -2.2567   -0.4957   -3.1728 C   0  0  0  0  0  0  0  0  0  0  0  0
   -2.0598   -1.6273   -3.9839 C   0  0  0  0  0  0  0  0  0  0  0  0
   -0.8019   -2.1939   -3.9648 O   0  0  0  0  0  0  0  0  0  0  0  0
   -0.0273   -2.0090   -5.1491 C   0  0  0  0  0  0  0  0  0  0  0  0
    0.3722   -0.5587   -5.3804 C   0  0  0  0  0  0  0  0  0  0  0  0
   -3.0709   -2.2222   -4.7741 C   0  0  0  0  0  0  0  0  0  0  0  0
   -2.8380   -3.3380   -5.5096 O   0  0  0  0  0  0  0  0  0  0  0  0
   -2.1972   -4.4660   -4.9017 C   0  0  0  0  0  0  0  0  0  0  0  0
   -2.3886   -5.6511   -5.8314 C   0  0  0  0  0  0  0  0  0  0  0  0
   -1.2700   -0.0884   -2.2376 C   0  0  0  0  0  0  0  0  0  0  0  0
   -1.2061    1.0465   -1.4118 C   0  0  0  0  0  0  0  0  0  0  0  0
   -1.8492    2.2468   -1.5693 N   0  0  0  0  0  0  0  0  0  0  0  0
   -2.1311    2.8121   -2.8087 C   0  0  0  0  0  0  0  0  0  0  0  0
   -3.1800    3.7242   -2.9361 C   0  0  0  0  0  0  0  0  0  0  0  0
   -3.5018    4.2611   -4.1647 C   0  0  0  0  0  0  0  0  0  0  0  0
   -2.7761    3.9035   -5.2954 C   0  0  0  0  0  0  0  0  0  0  0  0
   -3.1184    4.4902   -6.9190 S   0  0  0  0  0  0  0  0  0  0  0  0
   -4.7429    5.2827   -6.7596 C   0  0  0  0  0  0  0  0  0  0  0  0
   -1.6905    3.0366   -5.1619 C   0  0  0  0  0  0  0  0  0  0  0  0
   -1.3680    2.5027   -3.9364 C   0  0  0  0  0  0  0  0  0  0  0  0
   -2.0938    2.9830   -0.3880 C   0  0  0  0  0  0  0  0  0  0  0  0
   -1.5512    4.2518   -0.2151 C   0  0  0  0  0  0  0  0  0  0  0  0
   -1.6660    4.8969    1.0004 C   0  0  0  0  0  0  0  0  0  0  0  0
   -2.3343    4.2833    2.0539 C   0  0  0  0  0  0  0  0  0  0  0  0
   -2.4652    4.9880    3.6637 S   0  0  0  0  0  0  0  0  0  0  0  0
   -1.0593    6.1353    3.7359 C   0  0  0  0  0  0  0  0  0  0  0  0
   -2.9442    3.0453    1.8546 C   0  0  0  0  0  0  0  0  0  0  0  0
   -2.8201    2.3966    0.6467 C   0  0  0  0  0  0  0  0  0  0  0  0
   -0.2839    0.8351   -0.3571 C   0  0  0  0  0  0  0  0  0  0  0  0
    0.2049    1.7708    1.0086 S   0  0  0  0  0  0  0  0  0  0  0  0
    1.3215    0.5089    1.5204 C   0  0  0  0  0  0  0  0  0  0  0  0
    1.3627   -0.5438    0.6127 C   0  0  0  0  0  0  0  0  0  0  0  0
    2.1931   -1.6524    0.6399 N   0  0  0  0  0  0  0  0  0  0  0  0
    1.6872   -2.8175    0.0245 C   0  0  0  0  0  0  0  0  0  0  0  0
    0.4332   -3.2940    0.3943 C   0  0  0  0  0  0  0  0  0  0  0  0
   -0.1467   -4.3531   -0.2764 C   0  0  0  0  0  0  0  0  0  0  0  0
    0.5271   -4.9556   -1.3297 C   0  0  0  0  0  0  0  0  0  0  0  0
   -0.1398   -6.2584   -2.3125 S   0  0  0  0  0  0  0  0  0  0  0  0
   -1.8083   -6.5089   -1.6464 C   0  0  0  0  0  0  0  0  0  0  0  0
    1.8081   -4.5169   -1.6644 C   0  0  0  0  0  0  0  0  0  0  0  0
    2.3848   -3.4602   -0.9970 C   0  0  0  0  0  0  0  0  0  0  0  0
    3.5419   -1.5799    0.9969 C   0  0  0  0  0  0  0  0  0  0  0  0
    4.1956   -2.7276    1.4430 C   0  0  0  0  0  0  0  0  0  0  0  0
    5.5213   -2.6857    1.8263 C   0  0  0  0  0  0  0  0  0  0  0  0
    6.2219   -1.4878    1.7798 C   0  0  0  0  0  0  0  0  0  0  0  0
    7.9081   -1.2981    2.2615 S   0  0  0  0  0  0  0  0  0  0  0  0
    8.4239   -2.9755    2.7278 C   0  0  0  0  0  0  0  0  0  0  0  0
    5.5747   -0.3392    1.3273 C   0  0  0  0  0  0  0  0  0  0  0  0
    4.2561   -0.3823    0.9371 C   0  0  0  0  0  0  0  0  0  0  0  0
    0.4178   -0.3540   -0.4290 C   0  0  0  0  0  0  0  0  0  0  0  0
   -0.0236   -1.2682   -1.8291 S   0  0  0  0  0  0  0  0  0  0  0  0
    1.9647    0.6982    2.7952 C   0  0  0  0  0  0  0  0  0  0  0  0
    1.9923    1.9912    3.3503 C   0  0  0  0  0  0  0  0  0  0  0  0
    2.5326    2.1789    4.5953 C   0  0  0  0  0  0  0  0  0  0  0  0
    2.6129    3.4245    5.3992 C   0  0  0  0  0  0  0  0  0  0  0  0
    2.2120    4.5268    5.1063 O   0  0  0  0  0  0  0  0  0  0  0  0
    3.2787    3.0011    6.6599 C   0  0  0  0  0  0  0  0  0  0  0  0
    3.5637    1.6197    6.5997 C   0  0  0  0  0  0  0  0  0  0  0  0
    3.0884    1.1074    5.3259 C   0  0  0  0  0  0  0  0  0  0  0  0
    3.0612   -0.1669    4.7902 C   0  0  0  0  0  0  0  0  0  0  0  0
    2.4890   -0.3640    3.5432 C   0  0  0  0  0  0  0  0  0  0  0  0
    4.1712    0.9957    7.6752 C   0  0  0  0  0  0  0  0  0  0  0  0
    4.4880    1.7518    8.7907 C   0  0  0  0  0  0  0  0  0  0  0  0
    4.2423    3.1294    8.8452 C   0  0  0  0  0  0  0  0  0  0  0  0
    3.6089    3.7553    7.7565 C   0  0  0  0  0  0  0  0  0  0  0  0
    4.5822    3.8634   10.0351 C   0  0  0  0  0  0  0  0  0  0  0  0
    4.8867    5.1767   10.1662 C   0  0  0  0  0  0  0  0  0  0  0  0
    4.8083    5.8158   11.5111 C   0  0  0  0  0  0  0  0  0  0  0  0
    4.7289    5.2549   12.5769 O   0  0  0  0  0  0  0  0  0  0  0  0
    4.7893    7.2710   11.2424 C   0  0  0  0  0  0  0  0  0  0  0  0
    4.5932    8.3074   12.1334 C   0  0  0  0  0  0  0  0  0  0  0  0
    4.5845    9.6073   11.6422 C   0  0  0  0  0  0  0  0  0  0  0  0
    4.3429   10.9431   12.6969 Cl  0  0  0  0  0  0  0  0  0  0  0  0
    4.7716    9.8254   10.2738 C   0  0  0  0  0  0  0  0  0  0  0  0
    4.7463   11.0785    9.8081 F   0  0  0  0  0  0  0  0  0  0  0  0
    4.9798    8.7922    9.3741 C   0  0  0  0  0  0  0  0  0  0  0  0
    4.9904    7.4971    9.8681 C   0  0  0  0  0  0  0  0  0  0  0  0
    5.2064    6.2158    9.2016 C   0  0  0  0  0  0  0  0  0  0  0  0
    5.8289    6.0454    7.9958 C   0  0  0  0  0  0  0  0  0  0  0  0
    6.2482    4.7934    7.4965 C   0  0  0  0  0  0  0  0  0  0  0  0
    6.6611    3.8118    7.0696 N   0  0  0  0  0  0  0  0  0  0  0  0
    6.2078    7.1120    7.1526 C   0  0  0  0  0  0  0  0  0  0  0  0
    6.5258    7.9464    6.4323 N   0  0  0  0  0  0  0  0  0  0  0  0
   -5.9272   -1.3369   -6.3061 H   0  0  0  0  0  0  0  0  0  0  0  0
    0.8580   -2.6286   -4.9868 H   0  0  0  0  0  0  0  0  0  0  0  0
   -0.5785   -2.3823   -6.0204 H   0  0  0  0  0  0  0  0  0  0  0  0
    0.9278   -0.1810   -4.5254 H   0  0  0  0  0  0  0  0  0  0  0  0
    1.0018   -0.4958   -6.2635 H   0  0  0  0  0  0  0  0  0  0  0  0
   -0.5102    0.0593   -5.5364 H   0  0  0  0  0  0  0  0  0  0  0  0
   -1.1303   -4.2916   -4.7430 H   0  0  0  0  0  0  0  0  0  0  0  0
   -2.6668   -4.6541   -3.9321 H   0  0  0  0  0  0  0  0  0  0  0  0
   -1.8967   -6.5212   -5.4063 H   0  0  0  0  0  0  0  0  0  0  0  0
   -1.9549   -5.4356   -6.8045 H   0  0  0  0  0  0  0  0  0  0  0  0
   -3.4456   -5.8672   -5.9661 H   0  0  0  0  0  0  0  0  0  0  0  0
   -3.7658    3.9819   -2.0678 H   0  0  0  0  0  0  0  0  0  0  0  0
   -4.3294    4.9481   -4.2306 H   0  0  0  0  0  0  0  0  0  0  0  0
   -5.4468    4.5842   -6.3176 H   0  0  0  0  0  0  0  0  0  0  0  0
   -5.0494    5.5260   -7.7722 H   0  0  0  0  0  0  0  0  0  0  0  0
   -4.6623    6.1925   -6.1718 H   0  0  0  0  0  0  0  0  0  0  0  0
   -1.1049    2.7932   -6.0355 H   0  0  0  0  0  0  0  0  0  0  0  0
   -0.5172    1.8462   -3.8433 H   0  0  0  0  0  0  0  0  0  0  0  0
   -1.0122    4.7166   -1.0275 H   0  0  0  0  0  0  0  0  0  0  0  0
   -1.2165    5.8689    1.1237 H   0  0  0  0  0  0  0  0  0  0  0  0
   -1.2436    7.0061    3.1137 H   0  0  0  0  0  0  0  0  0  0  0  0
   -0.9838    6.4388    4.7753 H   0  0  0  0  0  0  0  0  0  0  0  0
   -0.1513    5.6181    3.4419 H   0  0  0  0  0  0  0  0  0  0  0  0
   -3.4930    2.5942    2.6666 H   0  0  0  0  0  0  0  0  0  0  0  0
   -3.2651    1.4254    0.4924 H   0  0  0  0  0  0  0  0  0  0  0  0
   -0.1024   -2.8095    1.1982 H   0  0  0  0  0  0  0  0  0  0  0  0
   -1.1267   -4.6858    0.0238 H   0  0  0  0  0  0  0  0  0  0  0  0
   -1.7509   -6.8511   -0.6170 H   0  0  0  0  0  0  0  0  0  0  0  0
   -2.3857   -5.5928   -1.7284 H   0  0  0  0  0  0  0  0  0  0  0  0
   -2.2561   -7.2812   -2.2641 H   0  0  0  0  0  0  0  0  0  0  0  0
    2.3327   -5.0031   -2.4725 H   0  0  0  0  0  0  0  0  0  0  0  0
    3.3650   -3.1058   -1.2788 H   0  0  0  0  0  0  0  0  0  0  0  0
    3.6560   -3.6621    1.4933 H   0  0  0  0  0  0  0  0  0  0  0  0
    5.9907   -3.5943    2.1669 H   0  0  0  0  0  0  0  0  0  0  0  0
    9.4692   -2.8901    3.0078 H   0  0  0  0  0  0  0  0  0  0  0  0
    8.3237   -3.6452    1.8787 H   0  0  0  0  0  0  0  0  0  0  0  0
    7.8432   -3.3225    3.5775 H   0  0  0  0  0  0  0  0  0  0  0  0
    6.1243    0.5882    1.2815 H   0  0  0  0  0  0  0  0  0  0  0  0
    3.7786    0.5139    0.5730 H   0  0  0  0  0  0  0  0  0  0  0  0
    1.5837    2.8295    2.8052 H   0  0  0  0  0  0  0  0  0  0  0  0
    3.4594   -1.0083    5.3365 H   0  0  0  0  0  0  0  0  0  0  0  0
    2.4176   -1.3684    3.1606 H   0  0  0  0  0  0  0  0  0  0  0  0
    4.3919   -0.0604    7.6521 H   0  0  0  0  0  0  0  0  0  0  0  0
    4.9654    1.2790    9.6365 H   0  0  0  0  0  0  0  0  0  0  0  0
    3.3462    4.8021    7.7937 H   0  0  0  0  0  0  0  0  0  0  0  0
    4.5258    3.3127   10.9694 H   0  0  0  0  0  0  0  0  0  0  0  0
    4.4494    8.1097   13.1836 H   0  0  0  0  0  0  0  0  0  0  0  0
    5.1135    9.0237    8.3297 H   0  0  0  0  0  0  0  0  0  0  0  0
  1  2  2  0  0  0  0
  2  3  1  0  0  0  0
  3  4  2  0  0  0  0
  3  5  1  0  0  0  0
  5  6  2  0  0  0  0
  6  7  1  0  0  0  0
  6  8  1  0  0  0  0
  8  9  1  0  0  0  0
  8 10  2  0  0  0  0
 10 11  1  0  0  0  0
 10 12  1  0  0  0  0
 12 13  1  0  0  0  0
 12 14  2  0  0  0  0
 14 15  1  0  0  0  0
 15 16  2  0  0  0  0
 16 17  1  0  0  0  0
 17 18  3  0  0  0  0
 16 19  1  0  0  0  0
 19 20  3  0  0  0  0
  1 21  1  0  0  0  0
 21 22  1  0  0  0  0
 22 23  1  0  0  0  0
 23 24  2  0  0  0  0
 24 25  1  0  0  0  0
 25 26  1  0  0  0  0
 23 27  1  0  0  0  0
 27 28  2  0  0  0  0
 28 29  1  0  0  0  0
 29 30  1  0  0  0  0
 30 31  1  0  0  0  0
 28 32  1  0  0  0  0
 32 33  1  0  0  0  0
 33 34  1  0  0  0  0
 34 35  1  0  0  0  0
 27 36  1  0  0  0  0
 36 37  2  0  0  0  0
 37 38  1  0  0  0  0
 38 39  1  0  0  0  0
 39 40  2  0  0  0  0
 40 41  1  0  0  0  0
 41 42  2  0  0  0  0
 42 43  1  0  0  0  0
 43 44  1  0  0  0  0
 42 45  1  0  0  0  0
 45 46  2  0  0  0  0
 38 47  1  0  0  0  0
 47 48  2  0  0  0  0
 48 49  1  0  0  0  0
 49 50  2  0  0  0  0
 50 51  1  0  0  0  0
 51 52  1  0  0  0  0
 50 53  1  0  0  0  0
 53 54  2  0  0  0  0
 37 55  1  0  0  0  0
 55 56  1  0  0  0  0
 56 57  1  0  0  0  0
 57 58  2  0  0  0  0
 58 59  1  0  0  0  0
 59 60  1  0  0  0  0
 60 61  2  0  0  0  0
 61 62  1  0  0  0  0
 62 63  2  0  0  0  0
 63 64  1  0  0  0  0
 64 65  1  0  0  0  0
 63 66  1  0  0  0  0
 66 67  2  0  0  0  0
 59 68  1  0  0  0  0
 68 69  2  0  0  0  0
 69 70  1  0  0  0  0
 70 71  2  0  0  0  0
 71 72  1  0  0  0  0
 72 73  1  0  0  0  0
 71 74  1  0  0  0  0
 74 75  2  0  0  0  0
 58 76  1  0  0  0  0
 76 77  1  0  0  0  0
 57 78  1  0  0  0  0
 78 79  2  0  0  0  0
 79 80  1  0  0  0  0
 80 81  1  0  0  0  0
 81 82  2  0  0  0  0
 81 83  1  0  0  0  0
 83 84  2  0  0  0  0
 84 85  1  0  0  0  0
 85 86  1  0  0  0  0
 86 87  2  0  0  0  0
 84 88  1  0  0  0  0
 88 89  2  0  0  0  0
 89 90  1  0  0  0  0
 90 91  2  0  0  0  0
 90 92  1  0  0  0  0
 92 93  2  0  0  0  0
 93 94  1  0  0  0  0
 94 95  2  0  0  0  0
 94 96  1  0  0  0  0
 96 97  2  0  0  0  0
 97 98  1  0  0  0  0
 98 99  1  0  0  0  0
 98100  2  0  0  0  0
100101  1  0  0  0  0
100102  1  0  0  0  0
102103  2  0  0  0  0
103104  1  0  0  0  0
104105  2  0  0  0  0
105106  1  0  0  0  0
106107  3  0  0  0  0
105108  1  0  0  0  0
108109  3  0  0  0  0
 15  2  1  0  0  0  0
 32 21  2  0  0  0  0
 77 36  1  0  0  0  0
 87 78  1  0  0  0  0
104 93  1  0  0  0  0
 14  5  1  0  0  0  0
 26 22  2  0  0  0  0
 46 39  1  0  0  0  0
 54 47  1  0  0  0  0
 76 55  2  0  0  0  0
 85 80  2  0  0  0  0
103 96  1  0  0  0  0
 67 60  1  0  0  0  0
 75 68  1  0  0  0  0
 91 83  1  0  0  0  0
  1110  1  0  0  0  0
 30111  1  0  0  0  0
 30112  1  0  0  0  0
 31113  1  0  0  0  0
 31114  1  0  0  0  0
 31115  1  0  0  0  0
 34116  1  0  0  0  0
 34117  1  0  0  0  0
 35118  1  0  0  0  0
 35119  1  0  0  0  0
 35120  1  0  0  0  0
 40121  1  0  0  0  0
 41122  1  0  0  0  0
 44123  1  0  0  0  0
 44124  1  0  0  0  0
 44125  1  0  0  0  0
 45126  1  0  0  0  0
 46127  1  0  0  0  0
 48128  1  0  0  0  0
 49129  1  0  0  0  0
 52130  1  0  0  0  0
 52131  1  0  0  0  0
 52132  1  0  0  0  0
 53133  1  0  0  0  0
 54134  1  0  0  0  0
 61135  1  0  0  0  0
 62136  1  0  0  0  0
 65137  1  0  0  0  0
 65138  1  0  0  0  0
 65139  1  0  0  0  0
 66140  1  0  0  0  0
 67141  1  0  0  0  0
 69142  1  0  0  0  0
 70143  1  0  0  0  0
 73144  1  0  0  0  0
 73145  1  0  0  0  0
 73146  1  0  0  0  0
 74147  1  0  0  0  0
 75148  1  0  0  0  0
 79149  1  0  0  0  0
 86150  1  0  0  0  0
 87151  1  0  0  0  0
 88152  1  0  0  0  0
 89153  1  0  0  0  0
 91154  1  0  0  0  0
 92155  1  0  0  0  0
 97156  1  0  0  0  0
102157  1  0  0  0  0
M  END
