134

C         -2.73030       -7.20270        2.61810
C         -2.39300       -8.45550        2.20490
C         -1.78140       -8.80650        0.90580
O         -1.68550       -8.10930       -0.07920
C         -1.41010      -10.23700        1.01960
C         -0.64890      -11.00480        0.15740
Cl        -0.10300      -10.39240       -1.33840
C         -0.30330      -12.30440        0.55090
Cl         0.61760      -13.29800       -0.49320
C         -0.67150      -12.77220        1.81180
Cl        -0.15750      -14.32530        2.30970
C         -1.44050      -11.98710        2.68630
Cl        -1.69850      -12.56180        4.28100
C         -1.87050      -10.73800        2.25420
C         -2.67740       -9.70430        2.89880
C         -3.64280       -9.90130        3.84800
C         -4.37960       -8.87700        4.48500
N         -5.00490       -8.11920        5.07830
C         -4.16920      -11.15840        4.22160
N         -4.73380      -12.11720        4.50200
C         -2.31690       -5.96310        2.04690
C         -1.09900       -5.71620        1.41160
F         -0.15160       -6.66280        1.38710
C         -0.74930       -4.46880        0.89800
F          0.49820       -4.33190        0.40700
C         -1.57600       -3.34620        0.96480
C         -2.77550       -3.53020        1.70080
C         -3.13850       -4.81550        2.22680
N         -4.30560       -4.78070        2.85970
S         -4.88360       -3.28190        2.81260
N         -3.68870       -2.60170        1.96900
C         -1.23430       -2.08150        0.40870
C         -0.46740       -1.81610       -0.73030
N         -0.12440       -2.74930       -1.67620
C         -1.00340       -3.80620       -1.97130
C         -0.51450       -5.07990       -2.24680
C         -1.37750       -6.12350       -2.51690
C         -2.75020       -5.90900       -2.51230
S         -3.95250       -7.14600       -2.84420
C         -2.98640       -8.67520       -2.93850
C         -3.24190       -4.62830       -2.25230
C         -2.38250       -3.58910       -1.98720
C          1.04360       -2.56470       -2.42380
C          2.19580       -2.07440       -1.80550
C          3.33060       -1.83780       -2.54480
C          3.34710       -2.09220       -3.91620
S          4.84750       -1.71870       -4.75800
C          4.49710       -2.12520       -6.49220
C          2.21320       -2.61370       -4.52750
C          1.07150       -2.84600       -3.78690
C         -0.22940       -0.42460       -0.85640
S          0.68630        0.54360       -1.96130
C          0.16320        1.99290       -1.13300
C         -0.61120        1.73020       -0.00130
N         -0.96990        2.65910        0.95030
C         -0.11760        3.72990        1.26210
C         -0.64010        4.99780        1.51700
C          0.20530        6.06480        1.73910
C          1.58520        5.88500        1.72140
S          2.60950        7.31050        1.94310
C          4.07030        6.60770        2.76350
C          2.11040        4.61570        1.50780
C          1.26510        3.55020        1.28450
C         -2.14160        2.44060        1.68620
C         -2.18010        2.67800        3.06000
C         -3.30400        2.34800        3.78290
C         -4.40780        1.77480        3.15290
S         -5.76020        1.29430        4.17490
C         -6.63580        0.08710        3.13670
C         -4.39950        1.60840        1.77390
C         -3.27450        1.94060        1.04830
C         -0.85420        0.33930        0.11860
S         -1.77450       -0.62590        1.22140
C          0.60350        3.27310       -1.58600
C         -0.17460        4.42330       -1.47190
F         -1.48240        4.30250       -1.17210
C          0.34570        5.70370       -1.64380
F         -0.46860        6.74520       -1.41780
C          1.69080        5.94300       -1.92440
C          2.45060        4.79370       -2.26610
C          1.90640        3.47220       -2.10710
N          2.77280        2.52620       -2.45380
S          4.12380        3.23090       -2.97090
N          3.67970        4.76110       -2.76840
C          2.20760        7.27250       -1.86700
C          3.44790        7.63190       -1.43720
C          4.39430        6.77090       -0.69070
O          4.28740        5.60220       -0.38110
C          5.49550        7.66850       -0.27440
C          6.62970        7.34850        0.44650
C          7.50790        8.37340        0.75720
F          8.61880        8.10370        1.45470
C          7.24300        9.68260        0.35460
F          8.10330       10.65400        0.67830
C          6.10860       10.00340       -0.37550
C          5.22840        8.98100       -0.69560
C          3.98190        8.98420       -1.45620
C          3.46680       10.05590       -2.13120
C          2.32410       10.02890       -2.96170
N          1.43170       10.09000       -3.68090
C          4.04050       11.34640       -2.12050
N          4.45680       12.41500       -2.15220
H         -3.38500       -7.08860        3.47250
H          0.55100       -5.25280       -2.23040
H         -0.96750       -7.10010       -2.70890
H         -2.36040       -8.66930       -3.82620
H         -2.39600       -8.76750       -2.03230
H         -3.71030       -9.48170       -3.00220
H         -4.30820       -4.46300       -2.27140
H         -2.77400       -2.60090       -1.79660
H          2.19330       -1.89700       -0.74120
H          4.22120       -1.45450       -2.07190
H          4.28190       -3.18510       -6.59130
H          3.67440       -1.51700       -6.85650
H          5.40400       -1.88260       -7.03740
H          2.19960       -2.83260       -5.58280
H          0.18760       -3.23390       -4.27090
H         -1.70950        5.14320        1.51090
H         -0.19770        7.05060        1.91040
H          3.74870        6.02220        3.61920
H          4.66690        7.45350        3.09040
H          4.63540        6.00090        2.06340
H          3.17460        4.45310        1.49000
H          1.68090        2.56830        1.11350
H         -1.31510        3.09110        3.55680
H         -3.33140        2.50440        4.85010
H         -5.91220       -0.58560        2.68520
H         -7.29030       -0.46160        3.80680
H         -7.22920        0.59590        2.38230
H         -5.26150        1.22240        1.25530
H         -3.26890        1.81790       -0.02420
H          1.50040        8.05270       -2.12080
H          6.84040        6.33630        0.75360
H          5.94890       11.02960       -0.66260
