151

C         -7.88540        3.59240        1.37250
C         -9.11620        3.01470        1.51420
C         -9.67280        1.94660        0.66340
O         -9.27110        1.57050       -0.41320
C        -10.91620        1.51410        1.35370
C        -11.71720        0.42140        1.07980
Cl       -11.43460       -0.56560       -0.28370
C        -12.75960        0.12270        1.96820
Cl       -13.79310       -1.20400        1.65760
C        -12.92300        0.87560        3.12950
Cl       -14.13690        0.43050        4.25080
C        -12.09910        1.97820        3.40680
Cl       -12.23820        2.72960        4.94460
C        -11.13890        2.34380        2.47100
C        -10.14430        3.41690        2.45540
C        -10.22110        4.61620        3.11340
C         -9.19770        5.58940        3.15860
N         -8.42280        6.42680        3.28880
C        -11.38570        5.13840        3.71730
N        -12.30550        5.68960        4.12670
C         -6.74690        3.04090        0.74260
C         -5.66640        3.89410        0.41710
C         -4.36180        3.40190        0.04970
N         -3.50240        4.39550       -0.18930
S         -4.25730        5.79620        0.02930
N         -5.69980        5.22550        0.43780
C         -4.07570        2.02350       -0.02920
C         -5.18650        1.17310        0.12720
N         -5.13210       -0.16030        0.12100
S         -6.53500       -0.74150        0.63250
N         -7.27660        0.65370        0.91800
C         -6.47880        1.66330        0.56980
C         -2.73320        1.55220       -0.05470
C         -1.69200        2.07530        0.71750
N         -1.85540        2.96220        1.76050
C         -0.82790        3.86190        2.05960
C         -0.53540        4.19220        3.38040
C          0.49330        5.06410        3.67520
C          1.25150        5.61880        2.65110
S          2.60100        6.72340        2.90130
C          2.61390        7.01110        4.69340
C          0.95200        5.29890        1.32660
C         -0.07660        4.43480        1.03150
C         -3.04070        2.95500        2.51490
C         -3.67360        1.75110        2.82040
C         -4.90250        1.73620        3.44750
C         -5.52520        2.93050        3.79070
S         -7.12610        3.02580        4.52340
C         -7.81830        1.36220        4.28440
C         -4.85790        4.13340        3.56590
C         -3.62910        4.14650        2.94090
C         -0.47760        1.42300        0.41140
S          1.13820        1.55970        0.99690
C          1.65810        0.20620       -0.02020
C          0.59190       -0.34090       -0.74020
N          0.59730       -1.43060       -1.58870
C          1.28140       -2.61750       -1.33320
C          1.64790       -2.98260       -0.03740
C          2.37940       -4.13180        0.18890
C          2.74600       -4.94190       -0.87510
S          3.74730       -6.38540       -0.66220
C          4.91120       -5.83740        0.62350
C          2.32570       -4.61990       -2.16100
C          1.61360       -3.46710       -2.39130
C         -0.27010       -1.35610       -2.70000
C         -1.15720       -2.39150       -2.99250
C         -2.01000       -2.28490       -4.06680
C         -2.00230       -1.14360       -4.86960
S         -3.14440       -1.12560       -6.21020
C         -2.92660        0.51560       -6.95480
C         -1.11740       -0.11260       -4.58170
C         -0.25810       -0.22260       -3.50600
C         -0.60320        0.38600       -0.49950
S         -2.24680        0.17750       -1.01680
C          3.03600       -0.11270        0.03950
C          3.91140        0.43190        0.97240
C          5.19310       -0.07540        0.87310
S          6.49390        0.32510        1.99740
C          6.73730        2.08650        1.56270
C          7.33100        2.22660        0.17590
C          5.35040       -1.01930       -0.15350
S          3.84350       -1.24630       -1.00460
C          6.56910       -1.65990       -0.40030
C          6.85850       -2.70220       -1.23810
C          5.89230       -3.45000       -2.04760
O          4.74680       -3.12300       -2.31320
C          6.57890       -4.68500       -2.46260
C          6.03390       -5.76070       -3.15840
C          6.90320       -6.81010       -3.33540
C          8.22180       -6.79150       -2.86130
C          8.78150       -5.72610       -2.19550
C          7.91300       -4.64960       -2.00260
C          8.14040       -3.36700       -1.34170
C          9.35350       -2.84680       -0.97250
C          9.54090       -1.53200       -0.49570
N          9.76950       -0.46140       -0.14750
C         10.58030       -3.52960       -1.09790
N         11.60790       -4.03730       -1.16650
C          8.50450       -8.18670       -3.35750
C          8.49820       -9.33480       -2.31740
C          7.58340       -8.90040       -1.19870
C          6.33980       -8.91860       -1.65980
C          6.39230       -9.36420       -3.10020
C          7.58270      -10.33460       -3.04180
C          7.03890       -8.20350       -3.89570
H         -7.70540        4.55740        1.82790
H         -1.11280        3.75410        4.18090
H          0.69940        5.29280        4.70810
H          3.40580        7.73320        4.86620
H          1.66130        7.42670        5.00820
H          2.83780        6.08760        5.21930
H          1.53390        5.74600        0.53570
H         -0.32500        4.21110        0.00550
H         -3.20550        0.81670        2.54650
H         -5.36710        0.78690        3.66170
H         -7.77460        1.09070        3.23260
H         -7.29390        0.64370        4.90760
H         -8.85380        1.43080        4.60460
H         -5.33020        5.05790        3.86020
H         -3.13060        5.08520        2.74760
H          1.36370       -2.36040        0.79850
H          2.66580       -4.38540        1.19810
H          5.79920       -6.45270        0.51380
H          4.48260       -5.97880        1.61170
H          5.15600       -4.79330        0.45320
H          2.59000       -5.26680       -2.98210
H          1.34090       -3.19900       -3.39960
H         -1.17660       -3.27110       -2.36740
H         -2.70320       -3.07960       -4.29440
H         -3.65200        0.56770       -7.76080
H         -3.13720        1.28640       -6.21940
H         -1.92280        0.61350       -7.35770
H         -1.08110        0.77790       -5.18760
H          0.43330        0.57810       -3.28720
H          3.60660        1.14350        1.72000
H          5.77580        2.59130        1.65300
H          7.41850        2.46010        2.32570
H          8.25330        1.65450        0.09880
H          6.63430        1.86380       -0.57830
H          7.54870        3.27290       -0.02790
H          7.37050       -1.29450        0.23310
H          5.01220       -5.74120       -3.50080
H          9.79810       -5.72120       -1.83810
H          9.31560       -8.28370       -4.07630
H          9.48530       -9.68130       -2.02290
H          7.93230       -8.58330       -0.23280
H          5.43520       -8.61690       -1.16480
H          5.46130       -9.73590       -3.51930
H          7.95220      -10.62880       -4.02320
H          7.37350      -11.22200       -2.44630
H          6.89280       -8.30290       -4.96940
