143

C         -3.78670       -2.02460       -8.58620
C         -2.93950       -2.41600       -9.57110
C         -1.99540       -3.56210       -9.51150
O         -1.62020       -4.17300       -8.54190
C         -1.69460       -3.87420      -10.93130
C         -0.96600       -4.93880      -11.43520
Cl        -0.16900       -6.03960      -10.40490
C         -0.90050       -5.09750      -12.82760
Cl         0.01130       -6.37880      -13.49560
C         -1.60610       -4.23510      -13.66650
Cl        -1.57910       -4.50150      -15.35490
C         -2.34810       -3.16080      -13.15000
Cl        -3.31140       -2.23460      -14.22430
C         -2.34220       -2.94830      -11.77720
C         -2.95570       -1.92480      -10.94170
C         -3.25150       -0.62600      -11.25250
C         -3.01000        0.03860      -12.47440
N         -2.78930        0.69570      -13.38840
C         -3.67990        0.29730      -10.26860
N         -3.99360        1.09330       -9.50370
C         -3.68800       -2.30040       -7.17870
C         -2.43760       -2.35890       -6.53730
C         -2.40810       -2.45440       -5.16830
C         -1.23500       -2.37710       -4.25420
O         -0.06890       -2.28240       -4.55170
C         -1.83460       -2.36510       -2.89420
C         -3.23520       -2.48850       -2.99580
C         -3.59180       -2.52950       -4.40390
C         -4.82440       -2.50260       -5.03340
C         -4.85870       -2.36410       -6.40940
C         -4.01580       -2.46470       -1.85510
C         -3.40470       -2.19190       -0.64260
C         -2.02870       -1.95920       -0.55370
C         -1.22260       -2.12810       -1.68750
C         -1.45410       -1.40710        0.65570
C         -1.94580       -0.33380        1.37910
N         -3.08860        0.39230        1.07960
C         -3.47790        0.60930       -0.24890
C         -4.82740        0.56930       -0.60450
C         -5.20320        0.68760       -1.92320
C         -4.24640        0.84110       -2.92550
S         -4.84790        0.88950       -4.58440
C         -3.37570        1.18950       -5.59830
C         -2.90650        0.93170       -2.57180
C         -2.53110        0.82750       -1.24710
C         -3.85430        0.89990        2.13880
C         -4.44980        2.15440        2.04690
C         -5.18990        2.66140        3.09650
C         -5.34010        1.92400        4.26400
S         -6.25320        2.46660        5.67270
C         -6.72270        4.17110        5.26330
C         -4.75190        0.66420        4.35690
C         -4.02230        0.15490        3.30700
C         -1.07280       -0.00440        2.44930
S         -1.06100        1.23880        3.65450
C          0.46810        0.64470        4.26530
C          0.96950       -0.41570        3.52650
N          2.23860       -0.95000        3.70040
C          3.31000       -0.08090        3.95770
C          3.37940        1.15220        3.31300
C          4.36700        2.06340        3.62780
C          5.31320        1.75430        4.59440
S          6.55130        2.89870        5.13380
C          6.72200        4.01890        3.71440
C          5.28050        0.50400        5.20780
C          4.29410       -0.40550        4.89200
C          2.42770       -2.32790        3.56230
C          3.61290       -2.83790        3.03960
C          3.79070       -4.19940        2.89310
C          2.77860       -5.07840        3.25620
S          2.88510       -6.83370        3.11150
C          4.47660       -7.11110        2.28440
C          1.59130       -4.57200        3.78150
C          1.41840       -3.21590        3.93910
C          0.06590       -0.79170        2.50450
S          0.10470       -1.96250        1.23530
C          1.16000        1.24340        5.36840
C          1.72670        0.52540        6.40410
C          2.54380        1.31040        7.21340
O          3.24520        0.92790        8.28870
C          3.14940       -0.41990        8.69550
C          2.65290        2.64450        6.76110
S          1.61310        2.91030        5.38280
C          3.60360        3.50810        7.30430
C          4.06170        4.71180        6.82900
C          3.58920        5.37780        5.62260
O          2.58770        5.13020        4.97630
C          4.60990        6.40590        5.30660
C          4.71200        7.20490        4.18190
Cl         3.48040        7.23530        2.99650
C          5.87080        7.97680        4.01960
Cl         6.03190        8.99930        2.65750
C          6.91270        7.87140        4.93900
Cl         8.36270        8.73690        4.66150
C          6.80570        7.05310        6.07620
Cl         8.19660        6.83400        7.05460
C          5.61430        6.37420        6.29640
C          5.18200        5.46530        7.35670
C          5.61130        5.45310        8.65670
C          6.43640        6.42570        9.26150
N          7.01210        7.21220        9.86730
C          5.13980        4.55350        9.63920
N          4.82030        3.86050       10.49680
H         -4.64980       -1.43350       -8.87290
H         -1.52010       -2.26300       -7.09420
H         -5.74020       -2.54360       -4.46480
H         -5.81310       -2.30160       -6.91160
H         -5.08370       -2.61010       -1.90590
H         -4.00310       -2.13240        0.25410
H         -0.15270       -1.99490       -1.62660
H         -5.57620        0.42520        0.16020
H         -6.24540        0.64240       -2.19900
H         -3.72980        1.24080       -6.62400
H         -2.67430        0.36670       -5.49120
H         -2.92330        2.13600       -5.31760
H         -2.14290        1.08050       -3.31820
H         -1.48620        0.90100       -0.98520
H         -4.32640        2.73720        1.14630
H         -5.63610        3.63700        2.99260
H         -7.23480        4.55080        6.14180
H         -5.83240        4.76220        5.07060
H         -7.39770        4.18030        4.41240
H         -4.88100        0.09020        5.26140
H         -3.58000       -0.82750        3.38400
H          2.63890        1.40870        2.57050
H          4.37260        3.01770        3.12710
H          5.84640        4.65430        3.62010
H          7.59370        4.63090        3.92410
H          6.88310        3.43460        2.81380
H          6.02780        0.26330        5.94790
H          4.27140       -1.37170        5.37450
H          4.39820       -2.16030        2.73950
H          4.72110       -4.55880        2.48460
H          5.29220       -6.77720        2.91930
H          4.48700       -6.60380        1.32430
H          4.54350       -8.18430        2.13520
H          0.81030       -5.25870        4.06950
H          0.49950       -2.83470        4.35950
H          1.54440       -0.52450        6.54510
H          2.12040       -0.68330        8.95580
H          3.78080       -0.50490        9.57760
H          3.51360       -1.09440        7.91550
H          4.11750        3.08100        8.15700
