
  xtb     02102219313D
 energy: -205.627185883618 gnorm: 0.000231662657 xtb: 6.4.1 (unknown)
 93104  0     0  0            999 V2000
   -6.7880   -6.0578   -3.4814 C   0  0  0  0  0  0  0  0  0  0  0  0
   -7.6904   -6.7196   -4.2555 C   0  0  0  0  0  0  0  0  0  0  0  0
   -8.9904   -6.2864   -4.8252 C   0  0  0  0  0  0  0  0  0  0  0  0
   -9.4259   -5.1677   -4.9648 O   0  0  0  0  0  0  0  0  0  0  0  0
   -9.6977   -7.5400   -5.1822 C   0  0  0  0  0  0  0  0  0  0  0  0
  -11.0047   -7.6954   -5.6141 C   0  0  0  0  0  0  0  0  0  0  0  0
  -12.0048   -6.3530   -5.9384 Cl  0  0  0  0  0  0  0  0  0  0  0  0
  -11.4985   -8.9985   -5.7725 C   0  0  0  0  0  0  0  0  0  0  0  0
  -13.0946   -9.2414   -6.3332 Cl  0  0  0  0  0  0  0  0  0  0  0  0
  -10.7064  -10.0964   -5.4354 C   0  0  0  0  0  0  0  0  0  0  0  0
  -11.3652  -11.6699   -5.5453 Cl  0  0  0  0  0  0  0  0  0  0  0  0
   -9.3830   -9.9324   -4.9963 C   0  0  0  0  0  0  0  0  0  0  0  0
   -8.5247  -11.3085   -4.4407 Cl  0  0  0  0  0  0  0  0  0  0  0  0
   -8.8605   -8.6464   -4.9373 C   0  0  0  0  0  0  0  0  0  0  0  0
   -7.5414   -8.1397   -4.5847 C   0  0  0  0  0  0  0  0  0  0  0  0
   -6.3463   -8.7735   -4.7730 C   0  0  0  0  0  0  0  0  0  0  0  0
   -6.1640  -10.0157   -5.4233 C   0  0  0  0  0  0  0  0  0  0  0  0
   -5.9029  -10.9609   -6.0179 N   0  0  0  0  0  0  0  0  0  0  0  0
   -5.0824   -8.1923   -4.5101 C   0  0  0  0  0  0  0  0  0  0  0  0
   -4.0192   -7.7990   -4.3334 N   0  0  0  0  0  0  0  0  0  0  0  0
   -6.6324   -4.6936   -3.0648 C   0  0  0  0  0  0  0  0  0  0  0  0
   -5.5775   -4.4415   -2.1584 C   0  0  0  0  0  0  0  0  0  0  0  0
   -5.3060   -3.1524   -1.7848 C   0  0  0  0  0  0  0  0  0  0  0  0
   -4.2202   -2.6426   -0.9025 C   0  0  0  0  0  0  0  0  0  0  0  0
   -3.4097   -3.2846   -0.2811 O   0  0  0  0  0  0  0  0  0  0  0  0
   -4.3594   -1.1648   -0.9757 C   0  0  0  0  0  0  0  0  0  0  0  0
   -5.4679   -0.8317   -1.7801 C   0  0  0  0  0  0  0  0  0  0  0  0
   -6.0564   -2.0652   -2.2839 C   0  0  0  0  0  0  0  0  0  0  0  0
   -7.1089   -2.3045   -3.1496 C   0  0  0  0  0  0  0  0  0  0  0  0
   -7.3858   -3.6072   -3.5349 C   0  0  0  0  0  0  0  0  0  0  0  0
   -5.7771    0.4985   -1.9981 C   0  0  0  0  0  0  0  0  0  0  0  0
   -4.9468    1.4741   -1.4622 C   0  0  0  0  0  0  0  0  0  0  0  0
   -3.8202    1.1487   -0.7046 C   0  0  0  0  0  0  0  0  0  0  0  0
   -3.5465   -0.2002   -0.4336 C   0  0  0  0  0  0  0  0  0  0  0  0
   -2.8563    2.1609   -0.2770 C   0  0  0  0  0  0  0  0  0  0  0  0
   -2.5436    3.2565   -1.0571 C   0  0  0  0  0  0  0  0  0  0  0  0
   -1.4533    4.0910   -0.7861 C   0  0  0  0  0  0  0  0  0  0  0  0
   -0.6067    3.8963    0.2878 C   0  0  0  0  0  0  0  0  0  0  0  0
   -0.9768    2.8677    1.1908 C   0  0  0  0  0  0  0  0  0  0  0  0
   -0.3758    2.5314    2.3332 N   0  0  0  0  0  0  0  0  0  0  0  0
   -1.1380    1.2789    2.9830 S   0  0  0  0  0  0  0  0  0  0  0  0
   -2.2571    1.0783    1.8523 N   0  0  0  0  0  0  0  0  0  0  0  0
   -2.0874    1.9978    0.9010 C   0  0  0  0  0  0  0  0  0  0  0  0
    0.6769    4.5829    0.4287 C   0  0  0  0  0  0  0  0  0  0  0  0
    1.2610    4.7810    1.6888 C   0  0  0  0  0  0  0  0  0  0  0  0
    2.5600    5.2285    1.7522 C   0  0  0  0  0  0  0  0  0  0  0  0
    3.4338    5.3993    2.9446 C   0  0  0  0  0  0  0  0  0  0  0  0
    3.1341    5.3004    4.1091 O   0  0  0  0  0  0  0  0  0  0  0  0
    4.7777    5.6985    2.3724 C   0  0  0  0  0  0  0  0  0  0  0  0
    4.6785    5.7885    0.9685 C   0  0  0  0  0  0  0  0  0  0  0  0
    3.3018    5.5060    0.5869 C   0  0  0  0  0  0  0  0  0  0  0  0
    2.7040    5.3902   -0.6528 C   0  0  0  0  0  0  0  0  0  0  0  0
    1.3993    4.9240   -0.7178 C   0  0  0  0  0  0  0  0  0  0  0  0
    5.8051    6.0381    0.2075 C   0  0  0  0  0  0  0  0  0  0  0  0
    7.0349    6.1039    0.8434 C   0  0  0  0  0  0  0  0  0  0  0  0
    7.1496    5.9496    2.2283 C   0  0  0  0  0  0  0  0  0  0  0  0
    5.9894    5.8058    3.0094 C   0  0  0  0  0  0  0  0  0  0  0  0
    8.4350    5.8969    2.8857 C   0  0  0  0  0  0  0  0  0  0  0  0
    9.5048    5.1856    2.4583 C   0  0  0  0  0  0  0  0  0  0  0  0
    9.4793    4.1486    1.3902 C   0  0  0  0  0  0  0  0  0  0  0  0
    8.6607    3.9875    0.5187 O   0  0  0  0  0  0  0  0  0  0  0  0
   10.6507    3.2862    1.6741 C   0  0  0  0  0  0  0  0  0  0  0  0
   10.9902    2.0839    1.0758 C   0  0  0  0  0  0  0  0  0  0  0  0
   10.1019    1.4614   -0.2400 Cl  0  0  0  0  0  0  0  0  0  0  0  0
   12.0866    1.3752    1.5880 C   0  0  0  0  0  0  0  0  0  0  0  0
   12.5597   -0.0992    0.8657 Cl  0  0  0  0  0  0  0  0  0  0  0  0
   12.7670    1.8508    2.7093 C   0  0  0  0  0  0  0  0  0  0  0  0
   14.0417    0.9228    3.3691 Cl  0  0  0  0  0  0  0  0  0  0  0  0
   12.4152    3.0681    3.3148 C   0  0  0  0  0  0  0  0  0  0  0  0
   13.1889    3.5086    4.7796 Cl  0  0  0  0  0  0  0  0  0  0  0  0
   11.3885    3.8176    2.7528 C   0  0  0  0  0  0  0  0  0  0  0  0
   10.8069    5.1042    3.1136 C   0  0  0  0  0  0  0  0  0  0  0  0
   11.4058    6.1592    3.7400 C   0  0  0  0  0  0  0  0  0  0  0  0
   10.7407    7.3891    3.9620 C   0  0  0  0  0  0  0  0  0  0  0  0
   10.2584    8.4091    4.1672 N   0  0  0  0  0  0  0  0  0  0  0  0
   12.7690    6.2658    4.0950 C   0  0  0  0  0  0  0  0  0  0  0  0
   13.8680    6.4878    4.3362 N   0  0  0  0  0  0  0  0  0  0  0  0
   -6.0079   -6.6914   -3.0715 H   0  0  0  0  0  0  0  0  0  0  0  0
   -4.9727   -5.2505   -1.7756 H   0  0  0  0  0  0  0  0  0  0  0  0
   -7.7012   -1.4917   -3.5416 H   0  0  0  0  0  0  0  0  0  0  0  0
   -8.1920   -3.7863   -4.2262 H   0  0  0  0  0  0  0  0  0  0  0  0
   -6.6359    0.7815   -2.5879 H   0  0  0  0  0  0  0  0  0  0  0  0
   -5.1827    2.5139   -1.6347 H   0  0  0  0  0  0  0  0  0  0  0  0
   -2.6940   -0.4818    0.1626 H   0  0  0  0  0  0  0  0  0  0  0  0
   -3.1099    3.4388   -1.9582 H   0  0  0  0  0  0  0  0  0  0  0  0
   -1.2539    4.9009   -1.4718 H   0  0  0  0  0  0  0  0  0  0  0  0
    0.7186    4.5475    2.5902 H   0  0  0  0  0  0  0  0  0  0  0  0
    3.2474    5.6137   -1.5583 H   0  0  0  0  0  0  0  0  0  0  0  0
    0.9530    4.7656   -1.6882 H   0  0  0  0  0  0  0  0  0  0  0  0
    5.7421    6.1484   -0.8638 H   0  0  0  0  0  0  0  0  0  0  0  0
    7.9223    6.2962    0.2623 H   0  0  0  0  0  0  0  0  0  0  0  0
    6.0547    5.7155    4.0835 H   0  0  0  0  0  0  0  0  0  0  0  0
    8.4938    6.3910    3.8487 H   0  0  0  0  0  0  0  0  0  0  0  0
  1  2  2  0  0  0  0
  2  3  1  0  0  0  0
  3  4  2  0  0  0  0
  3  5  1  0  0  0  0
  5  6  2  0  0  0  0
  6  7  1  0  0  0  0
  6  8  1  0  0  0  0
  8  9  1  0  0  0  0
  8 10  2  0  0  0  0
 10 11  1  0  0  0  0
 10 12  1  0  0  0  0
 12 13  1  0  0  0  0
 12 14  2  0  0  0  0
 14 15  1  0  0  0  0
 15 16  2  0  0  0  0
 16 17  1  0  0  0  0
 17 18  3  0  0  0  0
 16 19  1  0  0  0  0
 19 20  3  0  0  0  0
  1 21  1  0  0  0  0
 21 22  2  0  0  0  0
 22 23  1  0  0  0  0
 23 24  1  0  0  0  0
 24 25  2  0  0  0  0
 24 26  1  0  0  0  0
 26 27  2  0  0  0  0
 27 28  1  0  0  0  0
 28 29  1  0  0  0  0
 29 30  2  0  0  0  0
 27 31  1  0  0  0  0
 31 32  2  0  0  0  0
 32 33  1  0  0  0  0
 33 34  2  0  0  0  0
 33 35  1  0  0  0  0
 35 36  2  0  0  0  0
 36 37  1  0  0  0  0
 37 38  2  0  0  0  0
 38 39  1  0  0  0  0
 39 40  2  0  0  0  0
 40 41  1  0  0  0  0
 41 42  1  0  0  0  0
 42 43  2  0  0  0  0
 38 44  1  0  0  0  0
 44 45  2  0  0  0  0
 45 46  1  0  0  0  0
 46 47  1  0  0  0  0
 47 48  2  0  0  0  0
 47 49  1  0  0  0  0
 49 50  2  0  0  0  0
 50 51  1  0  0  0  0
 51 52  1  0  0  0  0
 52 53  2  0  0  0  0
 50 54  1  0  0  0  0
 54 55  2  0  0  0  0
 55 56  1  0  0  0  0
 56 57  2  0  0  0  0
 56 58  1  0  0  0  0
 58 59  2  0  0  0  0
 59 60  1  0  0  0  0
 60 61  2  0  0  0  0
 60 62  1  0  0  0  0
 62 63  2  0  0  0  0
 63 64  1  0  0  0  0
 63 65  1  0  0  0  0
 65 66  1  0  0  0  0
 65 67  2  0  0  0  0
 67 68  1  0  0  0  0
 67 69  1  0  0  0  0
 69 70  1  0  0  0  0
 69 71  2  0  0  0  0
 71 72  1  0  0  0  0
 72 73  2  0  0  0  0
 73 74  1  0  0  0  0
 74 75  3  0  0  0  0
 73 76  1  0  0  0  0
 76 77  3  0  0  0  0
 15  2  1  0  0  0  0
 30 21  1  0  0  0  0
 43 35  1  0  0  0  0
 53 44  1  0  0  0  0
 72 59  1  0  0  0  0
 14  5  1  0  0  0  0
 28 23  2  0  0  0  0
 43 39  1  0  0  0  0
 51 46  2  0  0  0  0
 71 62  1  0  0  0  0
 34 26  1  0  0  0  0
 57 49  1  0  0  0  0
  1 78  1  0  0  0  0
 22 79  1  0  0  0  0
 29 80  1  0  0  0  0
 30 81  1  0  0  0  0
 31 82  1  0  0  0  0
 32 83  1  0  0  0  0
 34 84  1  0  0  0  0
 36 85  1  0  0  0  0
 37 86  1  0  0  0  0
 45 87  1  0  0  0  0
 52 88  1  0  0  0  0
 53 89  1  0  0  0  0
 54 90  1  0  0  0  0
 55 91  1  0  0  0  0
 57 92  1  0  0  0  0
 58 93  1  0  0  0  0
M  END
