
  xtb     02032219233D
 energy: -305.437796807892 gnorm: 0.000629889251 xtb: 6.4.1 (unknown)
152166  0     0  0            999 V2000
   -4.5134  -11.0524    1.5307 C   0  0  0  0  0  0  0  0  0  0  0  0
   -5.2281  -12.1061    2.0470 C   0  0  0  0  0  0  0  0  0  0  0  0
   -5.9241  -12.2103    3.3404 C   0  0  0  0  0  0  0  0  0  0  0  0
   -6.2047  -11.3359    4.1318 O   0  0  0  0  0  0  0  0  0  0  0  0
   -6.2005  -13.6581    3.5235 C   0  0  0  0  0  0  0  0  0  0  0  0
   -6.7195  -14.3008    4.6335 C   0  0  0  0  0  0  0  0  0  0  0  0
   -7.2906  -13.4310    5.9854 Cl  0  0  0  0  0  0  0  0  0  0  0  0
   -6.7586  -15.7024    4.6299 C   0  0  0  0  0  0  0  0  0  0  0  0
   -7.4213  -16.5403    5.9653 Cl  0  0  0  0  0  0  0  0  0  0  0  0
   -6.2188  -16.4147    3.5607 C   0  0  0  0  0  0  0  0  0  0  0  0
   -6.1861  -18.1238    3.6246 Cl  0  0  0  0  0  0  0  0  0  0  0  0
   -5.6884  -15.7563    2.4393 C   0  0  0  0  0  0  0  0  0  0  0  0
   -4.8838  -16.6918    1.2477 Cl  0  0  0  0  0  0  0  0  0  0  0  0
   -5.7483  -14.3698    2.3954 C   0  0  0  0  0  0  0  0  0  0  0  0
   -5.3385  -13.3968    1.3865 C   0  0  0  0  0  0  0  0  0  0  0  0
   -5.3082  -13.5948    0.0314 C   0  0  0  0  0  0  0  0  0  0  0  0
   -4.9881  -12.5937   -0.9138 C   0  0  0  0  0  0  0  0  0  0  0  0
   -4.7456  -11.8408   -1.7459 N   0  0  0  0  0  0  0  0  0  0  0  0
   -5.7701  -14.7445   -0.6458 C   0  0  0  0  0  0  0  0  0  0  0  0
   -6.2094  -15.5854   -1.2915 N   0  0  0  0  0  0  0  0  0  0  0  0
   -4.3510   -9.7350    1.9802 C   0  0  0  0  0  0  0  0  0  0  0  0
   -3.1883   -8.7376    1.1087 S   0  0  0  0  0  0  0  0  0  0  0  0
   -3.5397   -7.4018    2.1198 C   0  0  0  0  0  0  0  0  0  0  0  0
   -3.0047   -6.0948    2.1199 C   0  0  0  0  0  0  0  0  0  0  0  0
   -3.4770   -5.1943    3.0708 C   0  0  0  0  0  0  0  0  0  0  0  0
   -4.8374   -6.0971    4.1868 Ge  0  0  0  0  0  4  0  0  0  0  0  0
   -4.2608   -6.3711    6.0868 C   0  0  0  0  0  0  0  0  0  0  0  0
   -5.1890   -7.3234    6.8254 C   0  0  0  0  0  0  0  0  0  0  0  0
   -6.6797   -5.3436    3.9500 C   0  0  0  0  0  0  0  0  0  0  0  0
   -6.8450   -3.9812    4.6053 C   0  0  0  0  0  0  0  0  0  0  0  0
   -4.5169   -7.6964    3.0794 C   0  0  0  0  0  0  0  0  0  0  0  0
   -4.9641   -8.9990    2.9934 C   0  0  0  0  0  0  0  0  0  0  0  0
   -2.8727   -3.9470    2.9514 C   0  0  0  0  0  0  0  0  0  0  0  0
   -1.9479   -3.8810    1.9264 C   0  0  0  0  0  0  0  0  0  0  0  0
   -1.8120   -5.4001    1.0837 S   0  0  0  0  0  0  0  0  0  0  0  0
   -1.1659   -2.7621    1.5290 C   0  0  0  0  0  0  0  0  0  0  0  0
   -0.2435   -2.7036    0.5238 C   0  0  0  0  0  0  0  0  0  0  0  0
    0.3615   -1.4319    0.3790 C   0  0  0  0  0  0  0  0  0  0  0  0
    1.3187   -1.0332   -0.5705 C   0  0  0  0  0  0  0  0  0  0  0  0
    1.8944   -1.9951   -1.5184 C   0  0  0  0  0  0  0  0  0  0  0  0
    1.9380   -1.7264   -2.8830 C   0  0  0  0  0  0  0  0  0  0  0  0
    2.4711   -2.6318   -3.7784 C   0  0  0  0  0  0  0  0  0  0  0  0
    2.9913   -3.8468   -3.3353 C   0  0  0  0  0  0  0  0  0  0  0  0
    3.5565   -4.7974   -4.1002 O   0  0  0  0  0  0  0  0  0  0  0  0
    3.5466   -4.6863   -5.5132 C   0  0  0  0  0  0  0  0  0  0  0  0
    2.1841   -5.0207   -6.1096 C   0  0  0  0  0  0  0  0  0  0  0  0
    2.9520   -4.1133   -1.9550 C   0  0  0  0  0  0  0  0  0  0  0  0
    3.5106   -5.4204   -1.4700 C   0  0  0  0  0  0  0  0  0  0  0  0
    2.8951   -6.4812   -2.0187 F   0  0  0  0  0  0  0  0  0  0  0  0
    3.3853   -5.5712   -0.1397 F   0  0  0  0  0  0  0  0  0  0  0  0
    4.8200   -5.5592   -1.7355 F   0  0  0  0  0  0  0  0  0  0  0  0
    2.4145   -3.2034   -1.0646 C   0  0  0  0  0  0  0  0  0  0  0  0
    1.6895    0.3015   -0.5564 C   0  0  0  0  0  0  0  0  0  0  0  0
    1.1630    1.2459    0.3616 C   0  0  0  0  0  0  0  0  0  0  0  0
    0.2193    0.8427    1.3225 C   0  0  0  0  0  0  0  0  0  0  0  0
   -0.3501    1.7972    2.2819 C   0  0  0  0  0  0  0  0  0  0  0  0
   -0.3616    1.5225    3.6459 C   0  0  0  0  0  0  0  0  0  0  0  0
   -0.8886    2.4167    4.5562 C   0  0  0  0  0  0  0  0  0  0  0  0
   -1.4354    3.6255    4.1287 C   0  0  0  0  0  0  0  0  0  0  0  0
   -1.9976    4.5652    4.9094 O   0  0  0  0  0  0  0  0  0  0  0  0
   -1.9686    4.4424    6.3207 C   0  0  0  0  0  0  0  0  0  0  0  0
   -0.6045    4.7935    6.9042 C   0  0  0  0  0  0  0  0  0  0  0  0
   -1.4294    3.8974    2.7489 C   0  0  0  0  0  0  0  0  0  0  0  0
   -0.8974    2.9990    1.8436 C   0  0  0  0  0  0  0  0  0  0  0  0
   -2.0197    5.1972    2.2812 C   0  0  0  0  0  0  0  0  0  0  0  0
   -1.4087    6.2654    2.8194 F   0  0  0  0  0  0  0  0  0  0  0  0
   -1.9296    5.3526    0.9492 F   0  0  0  0  0  0  0  0  0  0  0  0
   -3.3247    5.3133    2.5792 F   0  0  0  0  0  0  0  0  0  0  0  0
   -0.1502   -0.4926    1.3098 C   0  0  0  0  0  0  0  0  0  0  0  0
   -1.3364   -1.2253    2.3592 S   0  0  0  0  0  0  0  0  0  0  0  0
    1.7362    2.5290    0.1871 C   0  0  0  0  0  0  0  0  0  0  0  0
    2.6597    2.5866   -0.8168 C   0  0  0  0  0  0  0  0  0  0  0  0
    2.8781    1.0330   -1.6033 S   0  0  0  0  0  0  0  0  0  0  0  0
    3.3904    3.7213   -1.2659 C   0  0  0  0  0  0  0  0  0  0  0  0
    3.0042    5.3164   -0.6800 S   0  0  0  0  0  0  0  0  0  0  0  0
    4.2316    5.9947   -1.6856 C   0  0  0  0  0  0  0  0  0  0  0  0
    4.5941    7.3492   -1.8587 C   0  0  0  0  0  0  0  0  0  0  0  0
    5.6332    7.6168   -2.7650 C   0  0  0  0  0  0  0  0  0  0  0  0
    6.3004    5.9152   -3.5105 Ge  0  0  0  0  0  4  0  0  0  0  0  0
    8.1493    5.4759   -2.8672 C   0  0  0  0  0  0  0  0  0  0  0  0
    8.5786    4.0559   -3.2023 C   0  0  0  0  0  0  0  0  0  0  0  0
    5.9827    5.6912   -5.4822 C   0  0  0  0  0  0  0  0  0  0  0  0
    5.5944    4.2673   -5.8537 C   0  0  0  0  0  0  0  0  0  0  0  0
    4.9108    5.0301   -2.4246 C   0  0  0  0  0  0  0  0  0  0  0  0
    4.4234    3.7497   -2.1839 C   0  0  0  0  0  0  0  0  0  0  0  0
    5.8698    8.9671   -2.8700 C   0  0  0  0  0  0  0  0  0  0  0  0
    5.0295    9.7590   -2.0714 C   0  0  0  0  0  0  0  0  0  0  0  0
    3.9225    8.7581   -1.1515 S   0  0  0  0  0  0  0  0  0  0  0  0
    5.1129   11.1543   -2.0620 C   0  0  0  0  0  0  0  0  0  0  0  0
    4.3456   12.0913   -1.4117 C   0  0  0  0  0  0  0  0  0  0  0  0
    3.1827   11.8127   -0.5704 C   0  0  0  0  0  0  0  0  0  0  0  0
    2.7831   10.7300   -0.1892 O   0  0  0  0  0  0  0  0  0  0  0  0
    2.5593   13.1275   -0.2942 C   0  0  0  0  0  0  0  0  0  0  0  0
    1.3699   13.3980    0.3585 C   0  0  0  0  0  0  0  0  0  0  0  0
    0.4758   12.1654    1.1298 Cl  0  0  0  0  0  0  0  0  0  0  0  0
    0.9043   14.7211    0.3612 C   0  0  0  0  0  0  0  0  0  0  0  0
   -0.5434   15.1128    1.1808 Cl  0  0  0  0  0  0  0  0  0  0  0  0
    1.5946   15.7063   -0.3421 C   0  0  0  0  0  0  0  0  0  0  0  0
    0.9513   17.2899   -0.4117 Cl  0  0  0  0  0  0  0  0  0  0  0  0
    2.7984   15.4219   -1.0084 C   0  0  0  0  0  0  0  0  0  0  0  0
    3.4869   16.6422   -1.9974 Cl  0  0  0  0  0  0  0  0  0  0  0  0
    3.3192   14.1376   -0.9190 C   0  0  0  0  0  0  0  0  0  0  0  0
    4.5353   13.5284   -1.4566 C   0  0  0  0  0  0  0  0  0  0  0  0
    5.7114   14.1727   -1.7431 C   0  0  0  0  0  0  0  0  0  0  0  0
    6.8642   13.5423   -2.2605 C   0  0  0  0  0  0  0  0  0  0  0  0
    7.8362   13.1147   -2.6982 N   0  0  0  0  0  0  0  0  0  0  0  0
    6.0238   15.5092   -1.4125 C   0  0  0  0  0  0  0  0  0  0  0  0
    6.4176   16.5377   -1.0894 N   0  0  0  0  0  0  0  0  0  0  0  0
   -3.9403  -11.2728    0.6371 H   0  0  0  0  0  0  0  0  0  0  0  0
   -3.2458   -6.7677    6.0742 H   0  0  0  0  0  0  0  0  0  0  0  0
   -4.2282   -5.4047    6.5893 H   0  0  0  0  0  0  0  0  0  0  0  0
   -6.1997   -6.9225    6.8676 H   0  0  0  0  0  0  0  0  0  0  0  0
   -4.8417   -7.4789    7.8451 H   0  0  0  0  0  0  0  0  0  0  0  0
   -5.2264   -8.2886    6.3251 H   0  0  0  0  0  0  0  0  0  0  0  0
   -7.3898   -6.0551    4.3705 H   0  0  0  0  0  0  0  0  0  0  0  0
   -6.8807   -5.2756    2.8812 H   0  0  0  0  0  0  0  0  0  0  0  0
   -6.6613   -4.0424    5.6761 H   0  0  0  0  0  0  0  0  0  0  0  0
   -7.8556   -3.6065    4.4540 H   0  0  0  0  0  0  0  0  0  0  0  0
   -6.1468   -3.2638    4.1794 H   0  0  0  0  0  0  0  0  0  0  0  0
   -5.7132   -9.4267    3.6341 H   0  0  0  0  0  0  0  0  0  0  0  0
   -3.0879   -3.1025    3.5834 H   0  0  0  0  0  0  0  0  0  0  0  0
   -0.0228   -3.5458   -0.1073 H   0  0  0  0  0  0  0  0  0  0  0  0
    1.5283   -0.7999   -3.2558 H   0  0  0  0  0  0  0  0  0  0  0  0
    2.4788   -2.3821   -4.8267 H   0  0  0  0  0  0  0  0  0  0  0  0
    4.2869   -5.4209   -5.8392 H   0  0  0  0  0  0  0  0  0  0  0  0
    3.8849   -3.6908   -5.8236 H   0  0  0  0  0  0  0  0  0  0  0  0
    1.8798   -6.0139   -5.7900 H   0  0  0  0  0  0  0  0  0  0  0  0
    2.2461   -5.0017   -7.1940 H   0  0  0  0  0  0  0  0  0  0  0  0
    1.4277   -4.3093   -5.7865 H   0  0  0  0  0  0  0  0  0  0  0  0
    2.4184   -3.4270   -0.0089 H   0  0  0  0  0  0  0  0  0  0  0  0
    0.0683    0.5999    4.0057 H   0  0  0  0  0  0  0  0  0  0  0  0
   -0.8708    2.1629    5.6034 H   0  0  0  0  0  0  0  0  0  0  0  0
   -2.7165    5.1620    6.6625 H   0  0  0  0  0  0  0  0  0  0  0  0
   -2.2869    3.4389    6.6267 H   0  0  0  0  0  0  0  0  0  0  0  0
   -0.6524    4.7605    7.9889 H   0  0  0  0  0  0  0  0  0  0  0  0
    0.1599    4.0994    6.5629 H   0  0  0  0  0  0  0  0  0  0  0  0
   -0.3217    5.7957    6.5927 H   0  0  0  0  0  0  0  0  0  0  0  0
   -0.9283    3.2262    0.7891 H   0  0  0  0  0  0  0  0  0  0  0  0
    1.4920    3.3817    0.7948 H   0  0  0  0  0  0  0  0  0  0  0  0
    8.8411    6.1925   -3.3094 H   0  0  0  0  0  0  0  0  0  0  0  0
    8.1661    5.6294   -1.7882 H   0  0  0  0  0  0  0  0  0  0  0  0
    7.8858    3.3344   -2.7742 H   0  0  0  0  0  0  0  0  0  0  0  0
    9.5714    3.8554   -2.8036 H   0  0  0  0  0  0  0  0  0  0  0  0
    8.6095    3.9065   -4.2795 H   0  0  0  0  0  0  0  0  0  0  0  0
    5.1921    6.3810   -5.7760 H   0  0  0  0  0  0  0  0  0  0  0  0
    6.8881    5.9869   -6.0112 H   0  0  0  0  0  0  0  0  0  0  0  0
    4.6793    3.9768   -5.3421 H   0  0  0  0  0  0  0  0  0  0  0  0
    5.4285    4.1880   -6.9266 H   0  0  0  0  0  0  0  0  0  0  0  0
    6.3772    3.5650   -5.5764 H   0  0  0  0  0  0  0  0  0  0  0  0
    4.7977    2.8555   -2.6526 H   0  0  0  0  0  0  0  0  0  0  0  0
    6.6234    9.4042   -3.5026 H   0  0  0  0  0  0  0  0  0  0  0  0
    5.8942   11.5352   -2.7088 H   0  0  0  0  0  0  0  0  0  0  0  0
  1  2  2  0  0  0  0
  2  3  1  0  0  0  0
  3  4  2  0  0  0  0
  3  5  1  0  0  0  0
  5  6  2  0  0  0  0
  6  7  1  0  0  0  0
  6  8  1  0  0  0  0
  8  9  1  0  0  0  0
  8 10  2  0  0  0  0
 10 11  1  0  0  0  0
 10 12  1  0  0  0  0
 12 13  1  0  0  0  0
 12 14  2  0  0  0  0
 14 15  1  0  0  0  0
 15 16  2  0  0  0  0
 16 17  1  0  0  0  0
 17 18  3  0  0  0  0
 16 19  1  0  0  0  0
 19 20  3  0  0  0  0
  1 21  1  0  0  0  0
 21 22  1  0  0  0  0
 22 23  1  0  0  0  0
 23 24  1  0  0  0  0
 24 25  2  0  0  0  0
 25 26  1  0  0  0  0
 26 27  1  0  0  0  0
 27 28  1  0  0  0  0
 26 29  1  0  0  0  0
 29 30  1  0  0  0  0
 26 31  1  0  0  0  0
 31 32  1  0  0  0  0
 25 33  1  0  0  0  0
 33 34  2  0  0  0  0
 34 35  1  0  0  0  0
 34 36  1  0  0  0  0
 36 37  2  0  0  0  0
 37 38  1  0  0  0  0
 38 39  2  0  0  0  0
 39 40  1  0  0  0  0
 40 41  2  0  0  0  0
 41 42  1  0  0  0  0
 42 43  2  0  0  0  0
 43 44  1  0  0  0  0
 44 45  1  0  0  0  0
 45 46  1  0  0  0  0
 43 47  1  0  0  0  0
 47 48  1  0  0  0  0
 48 49  1  0  0  0  0
 48 50  1  0  0  0  0
 48 51  1  0  0  0  0
 47 52  2  0  0  0  0
 39 53  1  0  0  0  0
 53 54  2  0  0  0  0
 54 55  1  0  0  0  0
 55 56  1  0  0  0  0
 56 57  2  0  0  0  0
 57 58  1  0  0  0  0
 58 59  2  0  0  0  0
 59 60  1  0  0  0  0
 60 61  1  0  0  0  0
 61 62  1  0  0  0  0
 59 63  1  0  0  0  0
 63 64  2  0  0  0  0
 63 65  1  0  0  0  0
 65 66  1  0  0  0  0
 65 67  1  0  0  0  0
 65 68  1  0  0  0  0
 55 69  2  0  0  0  0
 69 70  1  0  0  0  0
 54 71  1  0  0  0  0
 71 72  2  0  0  0  0
 72 73  1  0  0  0  0
 72 74  1  0  0  0  0
 74 75  1  0  0  0  0
 75 76  1  0  0  0  0
 76 77  1  0  0  0  0
 77 78  2  0  0  0  0
 78 79  1  0  0  0  0
 79 80  1  0  0  0  0
 80 81  1  0  0  0  0
 79 82  1  0  0  0  0
 82 83  1  0  0  0  0
 79 84  1  0  0  0  0
 84 85  1  0  0  0  0
 78 86  1  0  0  0  0
 86 87  2  0  0  0  0
 87 88  1  0  0  0  0
 87 89  1  0  0  0  0
 89 90  2  0  0  0  0
 90 91  1  0  0  0  0
 91 92  2  0  0  0  0
 91 93  1  0  0  0  0
 93 94  2  0  0  0  0
 94 95  1  0  0  0  0
 94 96  1  0  0  0  0
 96 97  1  0  0  0  0
 96 98  2  0  0  0  0
 98 99  1  0  0  0  0
 98100  1  0  0  0  0
100101  1  0  0  0  0
100102  2  0  0  0  0
102103  1  0  0  0  0
103104  2  0  0  0  0
104105  1  0  0  0  0
105106  3  0  0  0  0
104107  1  0  0  0  0
107108  3  0  0  0  0
 15  2  1  0  0  0  0
 32 21  2  0  0  0  0
 70 36  1  0  0  0  0
 85 74  2  0  0  0  0
103 90  1  0  0  0  0
 14  5  1  0  0  0  0
 31 23  2  0  0  0  0
 69 38  1  0  0  0  0
 84 76  2  0  0  0  0
102 93  1  0  0  0  0
 35 24  1  0  0  0  0
 52 40  1  0  0  0  0
 73 53  1  0  0  0  0
 88 77  1  0  0  0  0
 64 56  1  0  0  0  0
  1109  1  0  0  0  0
 27110  1  0  0  0  0
 27111  1  0  0  0  0
 28112  1  0  0  0  0
 28113  1  0  0  0  0
 28114  1  0  0  0  0
 29115  1  0  0  0  0
 29116  1  0  0  0  0
 30117  1  0  0  0  0
 30118  1  0  0  0  0
 30119  1  0  0  0  0
 32120  1  0  0  0  0
 33121  1  0  0  0  0
 37122  1  0  0  0  0
 41123  1  0  0  0  0
 42124  1  0  0  0  0
 45125  1  0  0  0  0
 45126  1  0  0  0  0
 46127  1  0  0  0  0
 46128  1  0  0  0  0
 46129  1  0  0  0  0
 52130  1  0  0  0  0
 57131  1  0  0  0  0
 58132  1  0  0  0  0
 61133  1  0  0  0  0
 61134  1  0  0  0  0
 62135  1  0  0  0  0
 62136  1  0  0  0  0
 62137  1  0  0  0  0
 64138  1  0  0  0  0
 71139  1  0  0  0  0
 80140  1  0  0  0  0
 80141  1  0  0  0  0
 81142  1  0  0  0  0
 81143  1  0  0  0  0
 81144  1  0  0  0  0
 82145  1  0  0  0  0
 82146  1  0  0  0  0
 83147  1  0  0  0  0
 83148  1  0  0  0  0
 83149  1  0  0  0  0
 85150  1  0  0  0  0
 86151  1  0  0  0  0
 89152  1  0  0  0  0
M  END
