144

C          3.43080        0.00230       10.61320
C          4.47300       -0.14110       11.47080
C          5.89690       -0.42740       11.15460
O          6.44140       -0.40650       10.07690
C          6.53940       -0.70940       12.46090
C          7.81910       -1.17780       12.70680
Cl         8.95920       -1.35730       11.45090
C          8.15670       -1.52060       14.02370
Cl         9.73290       -2.07660       14.38210
C          7.19670       -1.45290       15.03390
Cl         7.60300       -1.97570       16.61010
C          5.90080       -0.97740       14.77790
Cl         4.72760       -1.09130       16.02360
C          5.59860       -0.53430       13.49540
C          4.38970        0.04500       12.92010
C          3.46590        0.79990       13.58680
C          3.60970        1.27670       14.91040
N          3.68610        1.79900       15.92860
C          2.30230        1.36480       13.01540
N          1.32540        1.84440       12.65040
C          3.34470       -0.22380        9.19430
C          2.33140        0.46660        8.49680
C          2.18800        0.25890        7.14880
C          1.20970        0.85840        6.19880
O          0.36250        1.68510        6.43050
C          1.50960        0.19690        4.89990
C          2.58350       -0.70140        5.06830
C          3.00820       -0.65800        6.45660
C          3.98860       -1.35610        7.13970
C          4.15130       -1.13190        8.49620
C          3.01460       -1.46610        3.99940
C          2.38900       -1.31390        2.77450
C          1.34790       -0.39480        2.58810
C          0.89020        0.35360        3.68490
C          0.72970       -0.23390        1.29570
C          1.29220       -0.39500        0.03490
N          2.63290       -0.57850       -0.24250
C          2.96510       -1.20740       -1.45860
C          3.84380       -0.60820       -2.35400
C          4.08390       -1.18010       -3.58760
C          3.44700       -2.36250       -3.94250
S          3.62420       -3.14580       -5.51150
C          4.44260       -1.88570       -6.53110
C          2.61060       -2.99440       -3.02420
C          2.37140       -2.42410       -1.79440
C          3.63480        0.02370        0.52870
C          3.42380        1.23910        1.18150
C          4.40200        1.77330        1.98680
C          5.62220        1.11900        2.15330
S          6.77670        1.88940        3.24070
C          8.20970        0.77560        3.22500
C          5.85340       -0.06830        1.47200
C          4.86670       -0.60930        0.67070
C          0.31070       -0.26970       -0.97790
S          0.36310       -0.36450       -2.70570
C         -1.36820       -0.04850       -2.79400
C         -1.91250        0.27810       -1.53130
N         -3.13090        0.83850       -1.25220
C         -3.83120        1.65370       -2.13610
C         -3.17900        2.37350       -3.13970
C         -3.89460        3.06260       -4.09490
C         -5.28650        3.08040       -4.05110
S         -6.29830        3.83300       -5.26910
C         -5.18440        4.04800       -6.68310
C         -5.93540        2.46750       -2.97570
C         -5.22300        1.76870       -2.03220
C         -3.68860        0.56660        0.01540
C         -4.13320        1.60230        0.83630
C         -4.65130        1.31900        2.07850
C         -4.73920       -0.00030        2.52750
S         -5.41100       -0.23050        4.13580
C         -5.23320       -2.01150        4.43810
C         -4.31190       -1.03360        1.70180
C         -3.79000       -0.74870        0.45580
C         -0.95040        0.06100       -0.51340
S         -0.96870        0.20450        1.21370
C         -1.96820       -0.21410       -4.05960
C         -3.35130       -0.35880       -4.32620
C         -3.87520       -0.38480       -5.67430
N         -5.19760       -0.53130       -5.68830
S         -5.73180       -0.66420       -4.17720
N         -4.31770       -0.52500       -3.42220
C         -3.06060       -0.36260       -6.83310
C         -1.67170       -0.32770       -6.56720
N         -0.69460       -0.25800       -7.46810
S          0.72120       -0.22250       -6.72030
N          0.17630       -0.22410       -5.20310
C         -1.15350       -0.27780       -5.22100
C         -3.63960       -0.33020       -8.11510
C         -3.08410       -0.81970       -9.27360
C         -2.09550       -1.91310       -9.33520
O         -1.54810       -2.49300       -8.42230
C         -2.01820       -2.28240      -10.77260
C         -1.25190       -3.26590      -11.36130
C         -1.36550       -3.45680      -12.73400
Cl        -0.42920       -4.66210      -13.53110
C         -2.24820       -2.66340      -13.46700
F         -2.35860       -2.86070      -14.78820
C         -3.02440       -1.67420      -12.88130
C         -2.90400       -1.48320      -11.51490
C         -3.54840       -0.53840      -10.60660
C         -4.35190        0.51550      -10.97060
C         -4.78810        1.51220      -10.07630
N         -5.13100        2.38640       -9.41320
C         -4.77710        0.76320      -12.28990
N         -5.15870        1.00120      -13.34660
H          2.49340        0.33030       11.04690
H          1.68590        1.16150        9.01380
H          4.61590       -2.07210        6.63120
H          4.89960       -1.69340        9.02920
H          3.81490       -2.18130        4.11290
H          2.68950       -1.94120        1.95040
H          0.07170        1.04890        3.57020
H          4.32180        0.32300       -2.08770
H          4.75680       -0.68480       -4.26860
H          4.41890       -2.27080       -7.54580
H          5.47330       -1.75380       -6.21430
H          3.88630       -0.95450       -6.47470
H          2.14160       -3.92710       -3.29640
H          1.70560       -2.90380       -1.09190
H          2.49000        1.76460        1.05400
H          4.23550        2.70880        2.49810
H          8.62270        0.71270        2.22250
H          7.92430       -0.20280        3.59950
H          8.93540        1.22780        3.89390
H          6.79190       -0.59040        1.56390
H          5.04820       -1.54020        0.15340
H         -2.10050        2.38130       -3.18290
H         -3.36090        3.58630       -4.87180
H         -5.82080        4.27500       -7.53240
H         -4.49880        4.87150       -6.50350
H         -4.65470        3.12040       -6.87580
H         -7.01120        2.52300       -2.91600
H         -5.74460        1.24920       -1.24410
H         -4.05730        2.62400        0.49640
H         -4.98680        2.11430        2.72550
H         -5.85940       -2.57330        3.75120
H         -4.18940       -2.29770        4.35080
H         -5.57410       -2.16840        5.45690
H         -4.38440       -2.06260        2.01310
H         -3.46480       -1.54880       -0.19240
H         -4.64270        0.07870       -8.15350
H         -0.58080       -3.86820      -10.77010
H         -3.69360       -1.09830      -13.49970
