136

C         -4.51580        4.73740        7.98740
C         -4.13560        5.78100        8.78730
C         -3.08250        6.79590        8.57780
O         -2.19460        6.81990        7.75470
C         -3.33520        7.84360        9.59810
C         -2.71030        9.07000        9.74480
Cl        -1.36550        9.50930        8.79230
C         -3.21850        9.96290       10.69890
Cl        -2.45930       11.47600       10.94010
C         -4.36740        9.63910       11.41920
Cl        -5.02850       10.78670       12.50100
C         -4.99920        8.39490       11.26280
Cl        -6.50310        8.13790       12.04590
C         -4.43060        7.46730       10.39910
C         -4.79410        6.09790       10.04940
C         -5.42330        5.19890       10.86710
C         -5.71200        3.85650       10.52890
N         -5.99390        2.75890       10.34670
C         -5.71780        5.40380       12.23390
N         -5.90000        5.43050       13.36620
C         -3.98850        4.23820        6.77940
C         -2.88840        4.59740        6.03460
C         -2.67660        3.79130        4.90410
C         -1.65090        3.91850        3.93430
C         -0.62000        4.92670        4.02240
C         -0.05700        5.64360        2.99870
C          0.92850        6.54810        3.43100
C          1.14460        6.51220        4.77680
C          2.05380        7.35390        5.60200
C          1.25070        8.35560        6.43570
S          0.11440        5.35650        5.54170
C         -1.68100        3.00210        2.89100
C         -2.65790        1.98140        2.77230
C         -3.70660        1.88200        3.71180
C         -4.75470        0.89690        3.55730
C         -5.37710        0.50500        2.40300
C         -6.37170       -0.46860        2.61150
C         -6.50780       -0.83360        3.91670
C         -7.47150       -1.79750        4.51660
C         -8.58890       -1.06480        5.26260
S         -5.40750        0.04210        4.92650
C         -3.67160        2.78260        4.76980
S         -4.82540        2.86180        6.06490
C         -2.38010        1.10750        1.69740
C         -1.25800        1.43530        0.99050
S         -0.48840        2.87690        1.62650
C         -0.68440        0.73670       -0.12430
C          0.47360        1.17440       -0.74860
C          1.07500        0.48560       -1.79750
C          0.57370       -0.70420       -2.30170
C         -0.63060       -1.17770       -1.71440
N         -1.32180       -2.26670       -2.04930
S         -2.62090       -2.37820       -1.10940
N         -2.37900       -1.05610       -0.23150
C         -1.25950       -0.45830       -0.63570
C          1.23620       -1.43060       -3.34710
C          0.94470       -2.68550       -3.79820
C          1.79680       -3.13840       -4.82960
C          1.78050       -4.40040       -5.46100
C          0.73690       -5.35900       -5.17950
C         -0.59350       -5.11630       -4.97910
C         -1.35530       -6.27620       -4.71310
C         -2.82260       -6.20050       -4.41950
C         -3.05720       -5.66020       -3.00740
C         -0.59120       -7.40960       -4.69970
C         -1.00060       -8.82950       -4.50440
C         -1.24280       -9.51530       -5.85170
S          1.07090       -7.06180       -5.04580
C          2.81330       -4.65060       -6.35480
C          3.81810       -3.69970       -6.67670
C          3.81490       -2.42170       -6.06670
C          4.81800       -1.41930       -6.33870
C          4.64520       -0.06390       -6.40570
C          5.83670        0.66190       -6.62620
C          5.84560        2.15750       -6.69680
C          5.61710        2.76610       -5.31250
C          6.93270       -0.15090       -6.72030
S          6.50120       -1.81910       -6.54520
C          8.36760        0.20620       -6.91010
C          9.05350        0.49070       -5.57150
C          2.79130       -2.18350       -5.15600
S          2.60370       -0.73850       -4.19850
C          4.70070       -4.19050       -7.65610
C          4.41290       -5.47310       -8.06420
S          3.01020       -6.12960       -7.24980
C          5.15900       -6.20660       -9.03120
C          4.91160       -7.48870       -9.46590
C          3.85210       -8.30350       -9.02180
N          3.01000       -9.01780       -8.70840
C          5.74480       -8.09470      -10.43190
N          6.41010       -8.60090      -11.21650
C          6.27660       -5.53570       -9.59550
N          7.17460       -4.98840      -10.04890
H         -5.39140        4.19040        8.31860
H         -2.26690        5.42750        6.31010
H         -0.37440        5.55990        1.97490
H          1.46040        7.20590        2.76660
H          2.63790        6.71840        6.27250
H          2.74440        7.88510        4.94370
H          1.91500        8.94560        7.06210
H          0.69540        9.02860        5.78600
H          0.54170        7.83040        7.07170
H         -5.15990        0.93380        1.44120
H         -6.96700       -0.88540        1.81830
H         -7.89910       -2.41090        3.72060
H         -6.94830       -2.45530        5.21460
H         -9.13190       -0.41110        4.58360
H         -8.17210       -0.46070        6.06510
H         -9.28700       -1.77930        5.69100
H         -2.96190        0.23530        1.46740
H          0.93490        2.08510       -0.39540
H          1.98270        0.88390       -2.22700
H          0.16100       -3.27650       -3.36530
H         -1.03320       -4.13870       -5.06720
H         -3.29450       -5.53220       -5.14340
H         -3.28220       -7.18390       -4.51960
H         -2.60700       -4.67570       -2.89820
H         -4.12230       -5.58090       -2.80250
H         -2.61010       -6.32390       -2.27040
H         -0.21110       -9.36230       -3.97020
H         -1.90790       -8.87130       -3.89880
H         -2.03110       -9.00530       -6.40120
H         -1.53670      -10.55070       -5.69970
H         -0.33600       -9.49550       -6.45170
H          3.68100        0.40850       -6.34490
H          5.04790        2.48560       -7.36780
H          6.79500        2.51160       -7.09940
H          4.66500        2.43490       -4.90430
H          6.40450        2.46080       -4.62710
H          5.61190        3.85180       -5.37270
H          8.44420        1.08590       -7.55320
H          8.87970       -0.62090       -7.40570
H          8.98920       -0.37990       -4.92270
H         10.10210        0.72850       -5.73060
H          8.57860        1.33080       -5.07060
H          5.52040       -3.62870       -8.06650
