
  xtb     02112205333D
 energy: -287.042448181614 gnorm: 0.000606158292 xtb: 6.4.1 (unknown)
152167  0     0  0            999 V2000
   10.0758   -5.1304    0.3765 C   0  0  0  0  0  0  0  0  0  0  0  0
    9.8957   -6.2679    1.0861 C   0  0  0  0  0  0  0  0  0  0  0  0
    8.7020   -6.6166    1.9016 C   0  0  0  0  0  0  0  0  0  0  0  0
    7.8098   -5.8829    2.2546 O   0  0  0  0  0  0  0  0  0  0  0  0
    8.8759   -8.0427    2.2562 C   0  0  0  0  0  0  0  0  0  0  0  0
    7.9727   -8.8917    2.8732 C   0  0  0  0  0  0  0  0  0  0  0  0
    6.4788   -8.3200    3.4657 Cl  0  0  0  0  0  0  0  0  0  0  0  0
    8.3096  -10.2478    2.9857 C   0  0  0  0  0  0  0  0  0  0  0  0
    7.2395  -11.3305    3.7615 Cl  0  0  0  0  0  0  0  0  0  0  0  0
    9.4978  -10.7226    2.4279 C   0  0  0  0  0  0  0  0  0  0  0  0
    9.8399  -12.3962    2.4932 Cl  0  0  0  0  0  0  0  0  0  0  0  0
   10.4098   -9.8569    1.8041 C   0  0  0  0  0  0  0  0  0  0  0  0
   11.7621  -10.5354    0.9975 Cl  0  0  0  0  0  0  0  0  0  0  0  0
   10.1247   -8.4959    1.7818 C   0  0  0  0  0  0  0  0  0  0  0  0
   10.8642   -7.3498    1.2664 C   0  0  0  0  0  0  0  0  0  0  0  0
   12.2224   -7.2292    1.1714 C   0  0  0  0  0  0  0  0  0  0  0  0
   13.1669   -8.1473    1.6845 C   0  0  0  0  0  0  0  0  0  0  0  0
   14.0046   -8.7734    2.1552 N   0  0  0  0  0  0  0  0  0  0  0  0
   12.8934   -6.0786    0.6978 C   0  0  0  0  0  0  0  0  0  0  0  0
   13.5122   -5.1897    0.3180 N   0  0  0  0  0  0  0  0  0  0  0  0
    9.0920   -4.1040    0.1118 C   0  0  0  0  0  0  0  0  0  0  0  0
    7.7508   -4.4077   -0.1716 C   0  0  0  0  0  0  0  0  0  0  0  0
    6.8860   -3.3747   -0.4382 C   0  0  0  0  0  0  0  0  0  0  0  0
    5.4316   -3.4261   -0.7534 C   0  0  0  0  0  0  0  0  0  0  0  0
    4.7306   -4.4036   -0.8721 O   0  0  0  0  0  0  0  0  0  0  0  0
    5.0294   -1.9997   -0.8608 C   0  0  0  0  0  0  0  0  0  0  0  0
    6.1573   -1.1771   -0.6675 C   0  0  0  0  0  0  0  0  0  0  0  0
    7.3090   -2.0289   -0.4106 C   0  0  0  0  0  0  0  0  0  0  0  0
    8.6328   -1.7276   -0.1497 C   0  0  0  0  0  0  0  0  0  0  0  0
    9.5151   -2.7698    0.0843 C   0  0  0  0  0  0  0  0  0  0  0  0
    6.0224    0.1974   -0.7042 C   0  0  0  0  0  0  0  0  0  0  0  0
    4.7533    0.7374   -0.8454 C   0  0  0  0  0  0  0  0  0  0  0  0
    3.6224   -0.0740   -0.9623 C   0  0  0  0  0  0  0  0  0  0  0  0
    3.7748   -1.4658   -1.0288 C   0  0  0  0  0  0  0  0  0  0  0  0
    2.2877    0.4911   -0.9160 C   0  0  0  0  0  0  0  0  0  0  0  0
    1.7980    1.4103   -0.0052 C   0  0  0  0  0  0  0  0  0  0  0  0
    2.5245    1.9531    1.0468 N   0  0  0  0  0  0  0  0  0  0  0  0
    2.3001    3.2740    1.4384 C   0  0  0  0  0  0  0  0  0  0  0  0
    1.9334    4.2374    0.5017 C   0  0  0  0  0  0  0  0  0  0  0  0
    1.6900    5.5421    0.8856 C   0  0  0  0  0  0  0  0  0  0  0  0
    1.8252    5.9113    2.2159 C   0  0  0  0  0  0  0  0  0  0  0  0
    1.5482    7.5436    2.8301 S   0  0  0  0  0  0  0  0  0  0  0  0
    1.1780    8.5161    1.3424 C   0  0  0  0  0  0  0  0  0  0  0  0
    2.2035    4.9529    3.1556 C   0  0  0  0  0  0  0  0  0  0  0  0
    2.4330    3.6508    2.7763 C   0  0  0  0  0  0  0  0  0  0  0  0
    3.4706    1.1453    1.6967 C   0  0  0  0  0  0  0  0  0  0  0  0
    4.7229    1.6446    2.0546 C   0  0  0  0  0  0  0  0  0  0  0  0
    5.6955    0.7941    2.5320 C   0  0  0  0  0  0  0  0  0  0  0  0
    5.4462   -0.5711    2.6608 C   0  0  0  0  0  0  0  0  0  0  0  0
    6.8068   -1.5952    3.1213 S   0  0  0  0  0  0  0  0  0  0  0  0
    6.1254   -3.2721    3.0638 C   0  0  0  0  0  0  0  0  0  0  0  0
    4.1707   -1.0534    2.3970 C   0  0  0  0  0  0  0  0  0  0  0  0
    3.1951   -0.2001    1.9258 C   0  0  0  0  0  0  0  0  0  0  0  0
    0.4090    1.6248   -0.2034 C   0  0  0  0  0  0  0  0  0  0  0  0
   -0.7792    2.6176    0.5623 S   0  0  0  0  0  0  0  0  0  0  0  0
   -2.0407    1.9152   -0.4385 C   0  0  0  0  0  0  0  0  0  0  0  0
   -1.5477    1.0109   -1.3658 C   0  0  0  0  0  0  0  0  0  0  0  0
   -2.2710    0.3707   -2.3581 N   0  0  0  0  0  0  0  0  0  0  0  0
   -1.8657   -0.9129   -2.7597 C   0  0  0  0  0  0  0  0  0  0  0  0
   -1.8758   -1.2673   -4.1087 C   0  0  0  0  0  0  0  0  0  0  0  0
   -1.4164   -2.5034   -4.5015 C   0  0  0  0  0  0  0  0  0  0  0  0
   -0.9309   -3.4126   -3.5615 C   0  0  0  0  0  0  0  0  0  0  0  0
   -0.3235   -4.9465   -4.1843 S   0  0  0  0  0  0  0  0  0  0  0  0
    0.5441   -5.6781   -2.7669 C   0  0  0  0  0  0  0  0  0  0  0  0
   -0.9574   -3.0791   -2.2145 C   0  0  0  0  0  0  0  0  0  0  0  0
   -1.4268   -1.8413   -1.8196 C   0  0  0  0  0  0  0  0  0  0  0  0
   -3.4050    0.9600   -2.9325 C   0  0  0  0  0  0  0  0  0  0  0  0
   -3.4584    2.3321   -3.1647 C   0  0  0  0  0  0  0  0  0  0  0  0
   -4.6288    2.9323   -3.5840 C   0  0  0  0  0  0  0  0  0  0  0  0
   -5.7656    2.1641   -3.7977 C   0  0  0  0  0  0  0  0  0  0  0  0
   -7.3457    2.8263   -4.2226 S   0  0  0  0  0  0  0  0  0  0  0  0
   -7.1147    4.6210   -4.0750 C   0  0  0  0  0  0  0  0  0  0  0  0
   -5.6880    0.7789   -3.6640 C   0  0  0  0  0  0  0  0  0  0  0  0
   -4.5246    0.1825   -3.2356 C   0  0  0  0  0  0  0  0  0  0  0  0
   -0.1447    0.8503   -1.2083 C   0  0  0  0  0  0  0  0  0  0  0  0
    1.0418   -0.1515   -1.9666 S   0  0  0  0  0  0  0  0  0  0  0  0
   -3.4120    2.3483   -0.2827 C   0  0  0  0  0  0  0  0  0  0  0  0
   -4.4574    1.4169   -0.4102 C   0  0  0  0  0  0  0  0  0  0  0  0
   -5.7472    1.8815   -0.4660 C   0  0  0  0  0  0  0  0  0  0  0  0
   -7.0016    1.1234   -0.7143 C   0  0  0  0  0  0  0  0  0  0  0  0
   -7.1347   -0.0702   -0.8347 O   0  0  0  0  0  0  0  0  0  0  0  0
   -8.0538    2.1729   -0.7858 C   0  0  0  0  0  0  0  0  0  0  0  0
   -7.4713    3.4366   -0.5500 C   0  0  0  0  0  0  0  0  0  0  0  0
   -6.0409    3.2556   -0.3544 C   0  0  0  0  0  0  0  0  0  0  0  0
   -5.0228    4.1592   -0.1132 C   0  0  0  0  0  0  0  0  0  0  0  0
   -3.7164    3.6950   -0.0800 C   0  0  0  0  0  0  0  0  0  0  0  0
   -8.2563    4.5748   -0.5855 C   0  0  0  0  0  0  0  0  0  0  0  0
   -9.6152    4.4443   -0.8228 C   0  0  0  0  0  0  0  0  0  0  0  0
  -10.2053    3.1932   -1.0342 C   0  0  0  0  0  0  0  0  0  0  0  0
   -9.3936    2.0429   -1.0486 C   0  0  0  0  0  0  0  0  0  0  0  0
  -11.6145    3.0305   -1.2830 C   0  0  0  0  0  0  0  0  0  0  0  0
  -12.6439    3.7232   -0.7308 C   0  0  0  0  0  0  0  0  0  0  0  0
  -12.5635    4.6061    0.4665 C   0  0  0  0  0  0  0  0  0  0  0  0
  -11.5803    5.0332    1.0265 O   0  0  0  0  0  0  0  0  0  0  0  0
  -13.9653    4.8078    0.8924 C   0  0  0  0  0  0  0  0  0  0  0  0
  -14.4302    5.5035    1.9904 C   0  0  0  0  0  0  0  0  0  0  0  0
  -15.8015    5.5610    2.2022 C   0  0  0  0  0  0  0  0  0  0  0  0
  -16.4208    6.4197    3.5534 Cl  0  0  0  0  0  0  0  0  0  0  0  0
  -16.6793    4.9210    1.3180 C   0  0  0  0  0  0  0  0  0  0  0  0
  -18.3715    4.9932    1.5968 Cl  0  0  0  0  0  0  0  0  0  0  0  0
  -16.2068    4.2224    0.2131 C   0  0  0  0  0  0  0  0  0  0  0  0
  -14.8386    4.1665   -0.0026 C   0  0  0  0  0  0  0  0  0  0  0  0
  -14.0527    3.5295   -1.0524 C   0  0  0  0  0  0  0  0  0  0  0  0
  -14.5539    2.9322   -2.1757 C   0  0  0  0  0  0  0  0  0  0  0  0
  -13.7758    2.4133   -3.2347 C   0  0  0  0  0  0  0  0  0  0  0  0
  -13.2164    1.9930   -4.1444 N   0  0  0  0  0  0  0  0  0  0  0  0
  -15.9325    2.7898   -2.4462 C   0  0  0  0  0  0  0  0  0  0  0  0
  -17.0368    2.6393   -2.7184 N   0  0  0  0  0  0  0  0  0  0  0  0
   11.0497   -4.9462   -0.0599 H   0  0  0  0  0  0  0  0  0  0  0  0
    7.4059   -5.4289   -0.2096 H   0  0  0  0  0  0  0  0  0  0  0  0
    8.9776   -0.7057   -0.1283 H   0  0  0  0  0  0  0  0  0  0  0  0
   10.5534   -2.5522    0.2886 H   0  0  0  0  0  0  0  0  0  0  0  0
    6.8786    0.8445   -0.5943 H   0  0  0  0  0  0  0  0  0  0  0  0
    4.6291    1.8100   -0.8540 H   0  0  0  0  0  0  0  0  0  0  0  0
    2.9130   -2.1050   -1.1522 H   0  0  0  0  0  0  0  0  0  0  0  0
    1.8454    3.9657   -0.5401 H   0  0  0  0  0  0  0  0  0  0  0  0
    1.4039    6.2588    0.1329 H   0  0  0  0  0  0  0  0  0  0  0  0
    1.0483    9.5369    1.6875 H   0  0  0  0  0  0  0  0  0  0  0  0
    0.2593    8.1630    0.8836 H   0  0  0  0  0  0  0  0  0  0  0  0
    2.0124    8.4648    0.6493 H   0  0  0  0  0  0  0  0  0  0  0  0
    2.3047    5.2447    4.1895 H   0  0  0  0  0  0  0  0  0  0  0  0
    2.7123    2.9126    3.5125 H   0  0  0  0  0  0  0  0  0  0  0  0
    4.9373    2.6949    1.9251 H   0  0  0  0  0  0  0  0  0  0  0  0
    6.6750    1.1719    2.7813 H   0  0  0  0  0  0  0  0  0  0  0  0
    6.9654   -3.9453    3.1997 H   0  0  0  0  0  0  0  0  0  0  0  0
    5.4056   -3.4078    3.8659 H   0  0  0  0  0  0  0  0  0  0  0  0
    5.6769   -3.4581    2.0926 H   0  0  0  0  0  0  0  0  0  0  0  0
    3.9259   -2.0926    2.5431 H   0  0  0  0  0  0  0  0  0  0  0  0
    2.2113   -0.5874    1.7054 H   0  0  0  0  0  0  0  0  0  0  0  0
   -2.2318   -0.5596   -4.8422 H   0  0  0  0  0  0  0  0  0  0  0  0
   -1.4092   -2.7761   -5.5454 H   0  0  0  0  0  0  0  0  0  0  0  0
    1.2803   -4.9784   -2.3828 H   0  0  0  0  0  0  0  0  0  0  0  0
   -0.1665   -5.9703   -1.9991 H   0  0  0  0  0  0  0  0  0  0  0  0
    1.0443   -6.5599   -3.1553 H   0  0  0  0  0  0  0  0  0  0  0  0
   -0.6196   -3.7730   -1.4620 H   0  0  0  0  0  0  0  0  0  0  0  0
   -1.4520   -1.5910   -0.7687 H   0  0  0  0  0  0  0  0  0  0  0  0
   -2.5822    2.9390   -2.9907 H   0  0  0  0  0  0  0  0  0  0  0  0
   -4.6406    3.9997   -3.7336 H   0  0  0  0  0  0  0  0  0  0  0  0
   -6.7414    4.8615   -3.0840 H   0  0  0  0  0  0  0  0  0  0  0  0
   -6.4438    4.9784   -4.8507 H   0  0  0  0  0  0  0  0  0  0  0  0
   -8.1006    5.0530   -4.2145 H   0  0  0  0  0  0  0  0  0  0  0  0
   -6.5629    0.1806   -3.8641 H   0  0  0  0  0  0  0  0  0  0  0  0
   -4.4893   -0.8868   -3.0947 H   0  0  0  0  0  0  0  0  0  0  0  0
   -4.2541    0.3594   -0.4682 H   0  0  0  0  0  0  0  0  0  0  0  0
   -5.2287    5.2111    0.0170 H   0  0  0  0  0  0  0  0  0  0  0  0
   -2.9039    4.3928    0.0652 H   0  0  0  0  0  0  0  0  0  0  0  0
   -7.8261    5.5532   -0.4321 H   0  0  0  0  0  0  0  0  0  0  0  0
  -10.2256    5.3306   -0.8802 H   0  0  0  0  0  0  0  0  0  0  0  0
   -9.8211    1.0696   -1.2376 H   0  0  0  0  0  0  0  0  0  0  0  0
  -11.8591    2.2121   -1.9506 H   0  0  0  0  0  0  0  0  0  0  0  0
  -13.7424    5.9897    2.6643 H   0  0  0  0  0  0  0  0  0  0  0  0
  -16.9112    3.7377   -0.4428 H   0  0  0  0  0  0  0  0  0  0  0  0
  1  2  2  0  0  0  0
  2  3  1  0  0  0  0
  3  4  2  0  0  0  0
  3  5  1  0  0  0  0
  5  6  2  0  0  0  0
  6  7  1  0  0  0  0
  6  8  1  0  0  0  0
  8  9  1  0  0  0  0
  8 10  2  0  0  0  0
 10 11  1  0  0  0  0
 10 12  1  0  0  0  0
 12 13  1  0  0  0  0
 12 14  2  0  0  0  0
 14 15  1  0  0  0  0
 15 16  2  0  0  0  0
 16 17  1  0  0  0  0
 17 18  3  0  0  0  0
 16 19  1  0  0  0  0
 19 20  3  0  0  0  0
  1 21  1  0  0  0  0
 21 22  2  0  0  0  0
 22 23  1  0  0  0  0
 23 24  1  0  0  0  0
 24 25  2  0  0  0  0
 24 26  1  0  0  0  0
 26 27  2  0  0  0  0
 27 28  1  0  0  0  0
 28 29  1  0  0  0  0
 29 30  2  0  0  0  0
 27 31  1  0  0  0  0
 31 32  2  0  0  0  0
 32 33  1  0  0  0  0
 33 34  2  0  0  0  0
 33 35  1  0  0  0  0
 35 36  2  0  0  0  0
 36 37  1  0  0  0  0
 37 38  1  0  0  0  0
 38 39  2  0  0  0  0
 39 40  1  0  0  0  0
 40 41  2  0  0  0  0
 41 42  1  0  0  0  0
 42 43  1  0  0  0  0
 41 44  1  0  0  0  0
 44 45  2  0  0  0  0
 37 46  1  0  0  0  0
 46 47  2  0  0  0  0
 47 48  1  0  0  0  0
 48 49  2  0  0  0  0
 49 50  1  0  0  0  0
 50 51  1  0  0  0  0
 49 52  1  0  0  0  0
 52 53  2  0  0  0  0
 36 54  1  0  0  0  0
 54 55  1  0  0  0  0
 55 56  1  0  0  0  0
 56 57  2  0  0  0  0
 57 58  1  0  0  0  0
 58 59  1  0  0  0  0
 59 60  2  0  0  0  0
 60 61  1  0  0  0  0
 61 62  2  0  0  0  0
 62 63  1  0  0  0  0
 63 64  1  0  0  0  0
 62 65  1  0  0  0  0
 65 66  2  0  0  0  0
 58 67  1  0  0  0  0
 67 68  2  0  0  0  0
 68 69  1  0  0  0  0
 69 70  2  0  0  0  0
 70 71  1  0  0  0  0
 71 72  1  0  0  0  0
 70 73  1  0  0  0  0
 73 74  2  0  0  0  0
 57 75  1  0  0  0  0
 75 76  1  0  0  0  0
 56 77  1  0  0  0  0
 77 78  2  0  0  0  0
 78 79  1  0  0  0  0
 79 80  1  0  0  0  0
 80 81  2  0  0  0  0
 80 82  1  0  0  0  0
 82 83  2  0  0  0  0
 83 84  1  0  0  0  0
 84 85  1  0  0  0  0
 85 86  2  0  0  0  0
 83 87  1  0  0  0  0
 87 88  2  0  0  0  0
 88 89  1  0  0  0  0
 89 90  2  0  0  0  0
 89 91  1  0  0  0  0
 91 92  2  0  0  0  0
 92 93  1  0  0  0  0
 93 94  2  0  0  0  0
 93 95  1  0  0  0  0
 95 96  2  0  0  0  0
 96 97  1  0  0  0  0
 97 98  1  0  0  0  0
 97 99  2  0  0  0  0
 99100  1  0  0  0  0
 99101  1  0  0  0  0
101102  2  0  0  0  0
102103  1  0  0  0  0
103104  2  0  0  0  0
104105  1  0  0  0  0
105106  3  0  0  0  0
104107  1  0  0  0  0
107108  3  0  0  0  0
 15  2  1  0  0  0  0
 30 21  1  0  0  0  0
 76 35  1  0  0  0  0
 86 77  1  0  0  0  0
103 92  1  0  0  0  0
 14  5  1  0  0  0  0
 28 23  2  0  0  0  0
 45 38  1  0  0  0  0
 53 46  1  0  0  0  0
 75 54  2  0  0  0  0
 84 79  2  0  0  0  0
102 95  1  0  0  0  0
 34 26  1  0  0  0  0
 66 59  1  0  0  0  0
 74 67  1  0  0  0  0
 90 82  1  0  0  0  0
  1109  1  0  0  0  0
 22110  1  0  0  0  0
 29111  1  0  0  0  0
 30112  1  0  0  0  0
 31113  1  0  0  0  0
 32114  1  0  0  0  0
 34115  1  0  0  0  0
 39116  1  0  0  0  0
 40117  1  0  0  0  0
 43118  1  0  0  0  0
 43119  1  0  0  0  0
 43120  1  0  0  0  0
 44121  1  0  0  0  0
 45122  1  0  0  0  0
 47123  1  0  0  0  0
 48124  1  0  0  0  0
 51125  1  0  0  0  0
 51126  1  0  0  0  0
 51127  1  0  0  0  0
 52128  1  0  0  0  0
 53129  1  0  0  0  0
 60130  1  0  0  0  0
 61131  1  0  0  0  0
 64132  1  0  0  0  0
 64133  1  0  0  0  0
 64134  1  0  0  0  0
 65135  1  0  0  0  0
 66136  1  0  0  0  0
 68137  1  0  0  0  0
 69138  1  0  0  0  0
 72139  1  0  0  0  0
 72140  1  0  0  0  0
 72141  1  0  0  0  0
 73142  1  0  0  0  0
 74143  1  0  0  0  0
 78144  1  0  0  0  0
 85145  1  0  0  0  0
 86146  1  0  0  0  0
 87147  1  0  0  0  0
 88148  1  0  0  0  0
 90149  1  0  0  0  0
 91150  1  0  0  0  0
 96151  1  0  0  0  0
101152  1  0  0  0  0
M  END
