
  xtb     02042204063D
 energy: -331.038425529700 gnorm: 0.000249196177 xtb: 6.4.1 (unknown)
168185  0     0  0            999 V2000
    2.7098    9.3203   -2.1823 C   0  0  0  0  0  0  0  0  0  0  0  0
    2.3513   10.0688   -3.2702 C   0  0  0  0  0  0  0  0  0  0  0  0
    1.6407    9.6591   -4.5003 C   0  0  0  0  0  0  0  0  0  0  0  0
    0.9892    8.6612   -4.7111 O   0  0  0  0  0  0  0  0  0  0  0  0
    1.8847   10.7485   -5.4754 C   0  0  0  0  0  0  0  0  0  0  0  0
    1.5690   10.7755   -6.8229 C   0  0  0  0  0  0  0  0  0  0  0  0
    0.6876    9.5131   -7.5592 Cl  0  0  0  0  0  0  0  0  0  0  0  0
    2.0106   11.8697   -7.5809 C   0  0  0  0  0  0  0  0  0  0  0  0
    1.6203   11.9671   -9.2419 Cl  0  0  0  0  0  0  0  0  0  0  0  0
    2.8021   12.8557   -6.9935 C   0  0  0  0  0  0  0  0  0  0  0  0
    3.4069   14.1292   -7.9614 Cl  0  0  0  0  0  0  0  0  0  0  0  0
    3.1255   12.8159   -5.6272 C   0  0  0  0  0  0  0  0  0  0  0  0
    4.2449   13.9634   -5.0179 Cl  0  0  0  0  0  0  0  0  0  0  0  0
    2.6029   11.7880   -4.8531 C   0  0  0  0  0  0  0  0  0  0  0  0
    2.7060   11.4741   -3.4312 C   0  0  0  0  0  0  0  0  0  0  0  0
    2.8630   12.3697   -2.4087 C   0  0  0  0  0  0  0  0  0  0  0  0
    2.8851   12.0239   -1.0377 C   0  0  0  0  0  0  0  0  0  0  0  0
    2.9156   11.8345    0.0940 N   0  0  0  0  0  0  0  0  0  0  0  0
    2.8390   13.7765   -2.5351 C   0  0  0  0  0  0  0  0  0  0  0  0
    2.7313   14.9186   -2.5171 N   0  0  0  0  0  0  0  0  0  0  0  0
    2.4509    7.9722   -1.8605 C   0  0  0  0  0  0  0  0  0  0  0  0
    1.6734    7.0164   -2.4713 C   0  0  0  0  0  0  0  0  0  0  0  0
    1.6730    5.7744   -1.8178 C   0  0  0  0  0  0  0  0  0  0  0  0
    0.9989    4.5942   -2.2215 C   0  0  0  0  0  0  0  0  0  0  0  0
    0.3720    4.4706   -3.5115 C   0  0  0  0  0  0  0  0  0  0  0  0
   -0.7004    3.6946   -3.8758 C   0  0  0  0  0  0  0  0  0  0  0  0
   -0.9889    3.7318   -5.2464 C   0  0  0  0  0  0  0  0  0  0  0  0
   -0.1174    4.5221   -5.9488 C   0  0  0  0  0  0  0  0  0  0  0  0
   -0.0478    4.9169   -7.6448 S   0  0  0  0  0  0  0  0  0  0  0  0
   -1.1427    3.6580   -8.3926 C   0  0  0  0  0  0  0  0  0  0  0  0
   -0.5441    2.2665   -8.3356 C   0  0  0  0  0  0  0  0  0  0  0  0
    1.0577    5.2524   -4.9172 S   0  0  0  0  0  0  0  0  0  0  0  0
    1.0663    3.5265   -1.3316 C   0  0  0  0  0  0  0  0  0  0  0  0
    1.8565    3.5306   -0.1542 C   0  0  0  0  0  0  0  0  0  0  0  0
    2.5887    4.6851    0.2066 C   0  0  0  0  0  0  0  0  0  0  0  0
    3.4607    4.7280    1.3592 C   0  0  0  0  0  0  0  0  0  0  0  0
    3.6680    5.7588    2.2356 C   0  0  0  0  0  0  0  0  0  0  0  0
    4.5864    5.4608    3.2562 C   0  0  0  0  0  0  0  0  0  0  0  0
    5.1054    4.2020    3.1554 C   0  0  0  0  0  0  0  0  0  0  0  0
    6.2851    3.4856    4.2221 S   0  0  0  0  0  0  0  0  0  0  0  0
    5.8714    1.7118    4.0367 C   0  0  0  0  0  0  0  0  0  0  0  0
    4.5017    1.3852    4.5974 C   0  0  0  0  0  0  0  0  0  0  0  0
    4.4759    3.3695    1.7662 S   0  0  0  0  0  0  0  0  0  0  0  0
    2.4441    5.7920   -0.6241 C   0  0  0  0  0  0  0  0  0  0  0  0
    3.2035    7.3385   -0.3969 S   0  0  0  0  0  0  0  0  0  0  0  0
    1.8256    2.2765    0.4981 C   0  0  0  0  0  0  0  0  0  0  0  0
    1.0952    1.3255   -0.1579 C   0  0  0  0  0  0  0  0  0  0  0  0
    0.2925    1.9872   -1.5663 S   0  0  0  0  0  0  0  0  0  0  0  0
    0.9370   -0.0421    0.2097 C   0  0  0  0  0  0  0  0  0  0  0  0
    0.7033   -1.1463   -0.6048 C   0  0  0  0  0  0  0  0  0  0  0  0
    0.6436   -1.1809   -1.9848 N   0  0  0  0  0  0  0  0  0  0  0  0
    1.4264   -0.3738   -2.8082 C   0  0  0  0  0  0  0  0  0  0  0  0
    0.9437    0.0145   -4.0600 C   0  0  0  0  0  0  0  0  0  0  0  0
    1.6331    0.9399   -4.8105 C   0  0  0  0  0  0  0  0  0  0  0  0
    2.8120    1.5008   -4.3303 C   0  0  0  0  0  0  0  0  0  0  0  0
    3.5688    2.7746   -5.2929 S   0  0  0  0  0  0  0  0  0  0  0  0
    4.3481    3.8002   -4.0109 C   0  0  0  0  0  0  0  0  0  0  0  0
    3.3460    1.0451   -3.1317 C   0  0  0  0  0  0  0  0  0  0  0  0
    2.6653    0.1067   -2.3843 C   0  0  0  0  0  0  0  0  0  0  0  0
   -0.2313   -2.1393   -2.5412 C   0  0  0  0  0  0  0  0  0  0  0  0
   -1.5541   -2.1992   -2.1033 C   0  0  0  0  0  0  0  0  0  0  0  0
   -2.3753   -3.2238   -2.5174 C   0  0  0  0  0  0  0  0  0  0  0  0
   -1.8900   -4.2032   -3.3798 C   0  0  0  0  0  0  0  0  0  0  0  0
   -2.9840   -5.5302   -3.7759 S   0  0  0  0  0  0  0  0  0  0  0  0
   -1.8511   -6.8400   -4.3251 C   0  0  0  0  0  0  0  0  0  0  0  0
   -0.5991   -4.0989   -3.8820 C   0  0  0  0  0  0  0  0  0  0  0  0
    0.2261   -3.0733   -3.4634 C   0  0  0  0  0  0  0  0  0  0  0  0
    0.5169   -2.3138    0.1763 C   0  0  0  0  0  0  0  0  0  0  0  0
    0.0589   -3.9339   -0.2193 S   0  0  0  0  0  0  0  0  0  0  0  0
    0.0154   -4.3497    1.4764 C   0  0  0  0  0  0  0  0  0  0  0  0
    0.2839   -3.2579    2.3114 C   0  0  0  0  0  0  0  0  0  0  0  0
    0.0555   -3.2307    3.6746 N   0  0  0  0  0  0  0  0  0  0  0  0
    0.9903   -2.6114    4.5104 C   0  0  0  0  0  0  0  0  0  0  0  0
    0.5795   -1.9036    5.6411 C   0  0  0  0  0  0  0  0  0  0  0  0
    1.5137   -1.3537    6.4881 C   0  0  0  0  0  0  0  0  0  0  0  0
    2.8770   -1.4943    6.2282 C   0  0  0  0  0  0  0  0  0  0  0  0
    3.9771   -0.7834    7.4089 S   0  0  0  0  0  0  0  0  0  0  0  0
    5.6072   -1.4265    6.9327 C   0  0  0  0  0  0  0  0  0  0  0  0
    3.2872   -2.1671    5.0838 C   0  0  0  0  0  0  0  0  0  0  0  0
    2.3502   -2.7189    4.2329 C   0  0  0  0  0  0  0  0  0  0  0  0
   -1.0514   -3.9032    4.2027 C   0  0  0  0  0  0  0  0  0  0  0  0
   -0.9889   -4.5321    5.4454 C   0  0  0  0  0  0  0  0  0  0  0  0
   -2.0374   -5.3090    5.8966 C   0  0  0  0  0  0  0  0  0  0  0  0
   -3.1772   -5.4634    5.1179 C   0  0  0  0  0  0  0  0  0  0  0  0
   -4.5354   -6.4912    5.5821 S   0  0  0  0  0  0  0  0  0  0  0  0
   -3.7622   -7.6973    6.7017 C   0  0  0  0  0  0  0  0  0  0  0  0
   -3.2861   -4.7618    3.9186 C   0  0  0  0  0  0  0  0  0  0  0  0
   -2.2375   -3.9936    3.4684 C   0  0  0  0  0  0  0  0  0  0  0  0
    0.6147   -2.1172    1.5460 C   0  0  0  0  0  0  0  0  0  0  0  0
    1.0126   -0.4730    1.9189 S   0  0  0  0  0  0  0  0  0  0  0  0
   -0.3987   -5.6565    1.8355 C   0  0  0  0  0  0  0  0  0  0  0  0
   -0.0297   -6.3218    3.0252 C   0  0  0  0  0  0  0  0  0  0  0  0
   -0.7407   -7.4891    3.4997 C   0  0  0  0  0  0  0  0  0  0  0  0
   -0.2404   -7.9345    4.6511 N   0  0  0  0  0  0  0  0  0  0  0  0
    1.0306   -7.0346    5.0560 S   0  0  0  0  0  4  0  0  0  0  0  0
    0.9806   -5.9957    3.8317 N   0  0  0  0  0  0  0  0  0  0  0  0
   -1.8767   -8.0008    2.8306 C   0  0  0  0  0  0  0  0  0  0  0  0
   -2.0568   -7.5023    1.5227 C   0  0  0  0  0  0  0  0  0  0  0  0
   -2.8823   -7.9829    0.5948 N   0  0  0  0  0  0  0  0  0  0  0  0
   -2.7729   -7.0887   -0.7287 S   0  0  0  0  0  0  0  0  0  0  0  0
   -1.6471   -6.0581   -0.2256 N   0  0  0  0  0  0  0  0  0  0  0  0
   -1.3042   -6.3725    1.0239 C   0  0  0  0  0  0  0  0  0  0  0  0
   -2.7377   -8.9177    3.4790 C   0  0  0  0  0  0  0  0  0  0  0  0
   -4.1001   -8.9401    3.3677 C   0  0  0  0  0  0  0  0  0  0  0  0
   -4.9279   -7.8443    2.8256 C   0  0  0  0  0  0  0  0  0  0  0  0
   -4.5791   -6.8631    2.2067 O   0  0  0  0  0  0  0  0  0  0  0  0
   -6.3043   -8.1271    3.3054 C   0  0  0  0  0  0  0  0  0  0  0  0
   -7.4299   -7.3328    3.1897 C   0  0  0  0  0  0  0  0  0  0  0  0
   -7.4178   -5.9045    2.2592 Cl  0  0  0  0  0  0  0  0  0  0  0  0
   -8.5922   -7.7204    3.8702 C   0  0  0  0  0  0  0  0  0  0  0  0
  -10.0183   -6.7886    3.7242 Cl  0  0  0  0  0  0  0  0  0  0  0  0
   -8.5734   -8.8376    4.7024 C   0  0  0  0  0  0  0  0  0  0  0  0
   -9.9717   -9.2336    5.6055 Cl  0  0  0  0  0  0  0  0  0  0  0  0
   -7.4226   -9.6315    4.8285 C   0  0  0  0  0  0  0  0  0  0  0  0
   -7.4153  -10.8775    6.0089 Cl  0  0  0  0  0  0  0  0  0  0  0  0
   -6.3057   -9.3114    4.0689 C   0  0  0  0  0  0  0  0  0  0  0  0
   -4.9854   -9.9235    3.9585 C   0  0  0  0  0  0  0  0  0  0  0  0
   -4.6497  -11.2374    4.1499 C   0  0  0  0  0  0  0  0  0  0  0  0
   -3.3387  -11.7330    3.9644 C   0  0  0  0  0  0  0  0  0  0  0  0
   -2.3030  -12.2118    3.8410 N   0  0  0  0  0  0  0  0  0  0  0  0
   -5.5410  -12.3068    4.3801 C   0  0  0  0  0  0  0  0  0  0  0  0
   -6.1830  -13.2532    4.4771 N   0  0  0  0  0  0  0  0  0  0  0  0
    3.3366    9.8185   -1.4515 H   0  0  0  0  0  0  0  0  0  0  0  0
    1.0989    7.2319   -3.3513 H   0  0  0  0  0  0  0  0  0  0  0  0
   -1.3050    3.1500   -3.1736 H   0  0  0  0  0  0  0  0  0  0  0  0
   -1.8131    3.1993   -5.6839 H   0  0  0  0  0  0  0  0  0  0  0  0
   -2.1108    3.7141   -7.8968 H   0  0  0  0  0  0  0  0  0  0  0  0
   -1.2549    3.9928   -9.4235 H   0  0  0  0  0  0  0  0  0  0  0  0
   -0.4293    1.9371   -7.3054 H   0  0  0  0  0  0  0  0  0  0  0  0
   -1.1938    1.5640   -8.8538 H   0  0  0  0  0  0  0  0  0  0  0  0
    0.4332    2.2560   -8.8126 H   0  0  0  0  0  0  0  0  0  0  0  0
    3.1318    6.6890    2.1871 H   0  0  0  0  0  0  0  0  0  0  0  0
    4.8480    6.1369    4.0487 H   0  0  0  0  0  0  0  0  0  0  0  0
    6.6624    1.1943    4.5787 H   0  0  0  0  0  0  0  0  0  0  0  0
    5.9460    1.4697    2.9761 H   0  0  0  0  0  0  0  0  0  0  0  0
    4.4738    1.5622    5.6697 H   0  0  0  0  0  0  0  0  0  0  0  0
    3.7349    1.9988    4.1299 H   0  0  0  0  0  0  0  0  0  0  0  0
    4.2559    0.3432    4.4026 H   0  0  0  0  0  0  0  0  0  0  0  0
    2.3499    2.0527    1.4087 H   0  0  0  0  0  0  0  0  0  0  0  0
    0.0028   -0.3797   -4.4125 H   0  0  0  0  0  0  0  0  0  0  0  0
    1.2499    1.2669   -5.7642 H   0  0  0  0  0  0  0  0  0  0  0  0
    3.6722    3.8886   -3.1653 H   0  0  0  0  0  0  0  0  0  0  0  0
    5.3005    3.3749   -3.7075 H   0  0  0  0  0  0  0  0  0  0  0  0
    4.5064    4.7745   -4.4624 H   0  0  0  0  0  0  0  0  0  0  0  0
    4.2900    1.4220   -2.7708 H   0  0  0  0  0  0  0  0  0  0  0  0
    3.0824   -0.2347   -1.4486 H   0  0  0  0  0  0  0  0  0  0  0  0
   -1.9172   -1.4534   -1.4115 H   0  0  0  0  0  0  0  0  0  0  0  0
   -3.3912   -3.2915   -2.1611 H   0  0  0  0  0  0  0  0  0  0  0  0
   -1.4757   -6.6256   -5.3214 H   0  0  0  0  0  0  0  0  0  0  0  0
   -2.4396   -7.7518   -4.3466 H   0  0  0  0  0  0  0  0  0  0  0  0
   -1.0409   -6.9342   -3.6086 H   0  0  0  0  0  0  0  0  0  0  0  0
   -0.2178   -4.8224   -4.5842 H   0  0  0  0  0  0  0  0  0  0  0  0
    1.2396   -3.0076   -3.8304 H   0  0  0  0  0  0  0  0  0  0  0  0
   -0.4741   -1.7958    5.8499 H   0  0  0  0  0  0  0  0  0  0  0  0
    1.2018   -0.8114    7.3672 H   0  0  0  0  0  0  0  0  0  0  0  0
    6.2877   -1.0987    7.7123 H   0  0  0  0  0  0  0  0  0  0  0  0
    5.5779   -2.5114    6.8999 H   0  0  0  0  0  0  0  0  0  0  0  0
    5.9154   -1.0097    5.9785 H   0  0  0  0  0  0  0  0  0  0  0  0
    4.3338   -2.2870    4.8530 H   0  0  0  0  0  0  0  0  0  0  0  0
    2.6709   -3.2693    3.3615 H   0  0  0  0  0  0  0  0  0  0  0  0
   -0.0962   -4.4401    6.0463 H   0  0  0  0  0  0  0  0  0  0  0  0
   -1.9484   -5.8032    6.8508 H   0  0  0  0  0  0  0  0  0  0  0  0
   -4.4690   -8.5171    6.7882 H   0  0  0  0  0  0  0  0  0  0  0  0
   -2.8312   -8.0467    6.2645 H   0  0  0  0  0  0  0  0  0  0  0  0
   -3.5981   -7.2544    7.6796 H   0  0  0  0  0  0  0  0  0  0  0  0
   -4.1869   -4.8484    3.3329 H   0  0  0  0  0  0  0  0  0  0  0  0
   -2.3271   -3.4692    2.5290 H   0  0  0  0  0  0  0  0  0  0  0  0
   -2.2598   -9.5599    4.2095 H   0  0  0  0  0  0  0  0  0  0  0  0
  1  2  2  0  0  0  0
  2  3  1  0  0  0  0
  3  4  2  0  0  0  0
  3  5  1  0  0  0  0
  5  6  2  0  0  0  0
  6  7  1  0  0  0  0
  6  8  1  0  0  0  0
  8  9  1  0  0  0  0
  8 10  2  0  0  0  0
 10 11  1  0  0  0  0
 10 12  1  0  0  0  0
 12 13  1  0  0  0  0
 12 14  2  0  0  0  0
 14 15  1  0  0  0  0
 15 16  2  0  0  0  0
 16 17  1  0  0  0  0
 17 18  3  0  0  0  0
 16 19  1  0  0  0  0
 19 20  3  0  0  0  0
  1 21  1  0  0  0  0
 21 22  2  0  0  0  0
 22 23  1  0  0  0  0
 23 24  2  0  0  0  0
 24 25  1  0  0  0  0
 25 26  2  0  0  0  0
 26 27  1  0  0  0  0
 27 28  2  0  0  0  0
 28 29  1  0  0  0  0
 29 30  1  0  0  0  0
 30 31  1  0  0  0  0
 28 32  1  0  0  0  0
 24 33  1  0  0  0  0
 33 34  2  0  0  0  0
 34 35  1  0  0  0  0
 35 36  1  0  0  0  0
 36 37  2  0  0  0  0
 37 38  1  0  0  0  0
 38 39  2  0  0  0  0
 39 40  1  0  0  0  0
 40 41  1  0  0  0  0
 41 42  1  0  0  0  0
 39 43  1  0  0  0  0
 35 44  2  0  0  0  0
 44 45  1  0  0  0  0
 34 46  1  0  0  0  0
 46 47  2  0  0  0  0
 47 48  1  0  0  0  0
 47 49  1  0  0  0  0
 49 50  2  0  0  0  0
 50 51  1  0  0  0  0
 51 52  1  0  0  0  0
 52 53  2  0  0  0  0
 53 54  1  0  0  0  0
 54 55  2  0  0  0  0
 55 56  1  0  0  0  0
 56 57  1  0  0  0  0
 55 58  1  0  0  0  0
 58 59  2  0  0  0  0
 51 60  1  0  0  0  0
 60 61  2  0  0  0  0
 61 62  1  0  0  0  0
 62 63  2  0  0  0  0
 63 64  1  0  0  0  0
 64 65  1  0  0  0  0
 63 66  1  0  0  0  0
 66 67  2  0  0  0  0
 50 68  1  0  0  0  0
 68 69  1  0  0  0  0
 69 70  1  0  0  0  0
 70 71  2  0  0  0  0
 71 72  1  0  0  0  0
 72 73  1  0  0  0  0
 73 74  2  0  0  0  0
 74 75  1  0  0  0  0
 75 76  2  0  0  0  0
 76 77  1  0  0  0  0
 77 78  1  0  0  0  0
 76 79  1  0  0  0  0
 79 80  2  0  0  0  0
 72 81  1  0  0  0  0
 81 82  2  0  0  0  0
 82 83  1  0  0  0  0
 83 84  2  0  0  0  0
 84 85  1  0  0  0  0
 85 86  1  0  0  0  0
 84 87  1  0  0  0  0
 87 88  2  0  0  0  0
 71 89  1  0  0  0  0
 89 90  1  0  0  0  0
 70 91  1  0  0  0  0
 91 92  2  0  0  0  0
 92 93  1  0  0  0  0
 93 94  1  0  0  0  0
 94 95  2  0  0  0  0
 95 96  2  0  0  0  0
 93 97  2  0  0  0  0
 97 98  1  0  0  0  0
 98 99  2  0  0  0  0
 99100  1  0  0  0  0
100101  1  0  0  0  0
101102  2  0  0  0  0
 97103  1  0  0  0  0
103104  2  0  0  0  0
104105  1  0  0  0  0
105106  2  0  0  0  0
105107  1  0  0  0  0
107108  2  0  0  0  0
108109  1  0  0  0  0
108110  1  0  0  0  0
110111  1  0  0  0  0
110112  2  0  0  0  0
112113  1  0  0  0  0
112114  1  0  0  0  0
114115  1  0  0  0  0
114116  2  0  0  0  0
116117  1  0  0  0  0
117118  2  0  0  0  0
118119  1  0  0  0  0
119120  3  0  0  0  0
118121  1  0  0  0  0
121122  3  0  0  0  0
 15  2  1  0  0  0  0
 45 21  1  0  0  0  0
 90 49  1  0  0  0  0
102 91  1  0  0  0  0
117104  1  0  0  0  0
 14  5  1  0  0  0  0
 44 23  1  0  0  0  0
 59 52  1  0  0  0  0
 67 60  1  0  0  0  0
 89 68  2  0  0  0  0
 96 92  1  0  0  0  0
102 98  1  0  0  0  0
116107  1  0  0  0  0
 32 25  1  0  0  0  0
 48 33  1  0  0  0  0
 80 73  1  0  0  0  0
 88 81  1  0  0  0  0
 43 36  1  0  0  0  0
  1123  1  0  0  0  0
 22124  1  0  0  0  0
 26125  1  0  0  0  0
 27126  1  0  0  0  0
 30127  1  0  0  0  0
 30128  1  0  0  0  0
 31129  1  0  0  0  0
 31130  1  0  0  0  0
 31131  1  0  0  0  0
 37132  1  0  0  0  0
 38133  1  0  0  0  0
 41134  1  0  0  0  0
 41135  1  0  0  0  0
 42136  1  0  0  0  0
 42137  1  0  0  0  0
 42138  1  0  0  0  0
 46139  1  0  0  0  0
 53140  1  0  0  0  0
 54141  1  0  0  0  0
 57142  1  0  0  0  0
 57143  1  0  0  0  0
 57144  1  0  0  0  0
 58145  1  0  0  0  0
 59146  1  0  0  0  0
 61147  1  0  0  0  0
 62148  1  0  0  0  0
 65149  1  0  0  0  0
 65150  1  0  0  0  0
 65151  1  0  0  0  0
 66152  1  0  0  0  0
 67153  1  0  0  0  0
 74154  1  0  0  0  0
 75155  1  0  0  0  0
 78156  1  0  0  0  0
 78157  1  0  0  0  0
 78158  1  0  0  0  0
 79159  1  0  0  0  0
 80160  1  0  0  0  0
 82161  1  0  0  0  0
 83162  1  0  0  0  0
 86163  1  0  0  0  0
 86164  1  0  0  0  0
 86165  1  0  0  0  0
 87166  1  0  0  0  0
 88167  1  0  0  0  0
103168  1  0  0  0  0
M  END
