
  xtb     02112202043D
 energy: -343.092436440703 gnorm: 0.000958732337 xtb: 6.4.1 (unknown)
178196  0     0  0            999 V2000
   -4.9784   -2.5472   -7.4538 C   0  0  0  0  0  0  0  0  0  0  0  0
   -5.2415   -1.9472   -8.6566 C   0  0  0  0  0  0  0  0  0  0  0  0
   -6.6240   -1.5398   -8.9836 C   0  0  0  0  0  0  0  0  0  0  0  0
   -7.6398   -1.8626   -8.4109 O   0  0  0  0  0  0  0  0  0  0  0  0
   -6.4813   -0.5769  -10.1066 C   0  0  0  0  0  0  0  0  0  0  0  0
   -7.4307    0.2605  -10.6621 C   0  0  0  0  0  0  0  0  0  0  0  0
   -9.0703    0.1793  -10.1939 Cl  0  0  0  0  0  0  0  0  0  0  0  0
   -7.0144    1.1987  -11.6173 C   0  0  0  0  0  0  0  0  0  0  0  0
   -8.1608    2.2370  -12.3487 Cl  0  0  0  0  0  0  0  0  0  0  0  0
   -5.6649    1.3149  -11.9431 C   0  0  0  0  0  0  0  0  0  0  0  0
   -5.1678    2.5261  -13.0441 Cl  0  0  0  0  0  0  0  0  0  0  0  0
   -4.7040    0.4667  -11.3707 C   0  0  0  0  0  0  0  0  0  0  0  0
   -3.0444    0.7612  -11.6845 Cl  0  0  0  0  0  0  0  0  0  0  0  0
   -5.1272   -0.5189  -10.4936 C   0  0  0  0  0  0  0  0  0  0  0  0
   -4.3957   -1.5422   -9.7494 C   0  0  0  0  0  0  0  0  0  0  0  0
   -3.2932   -2.2426  -10.1645 C   0  0  0  0  0  0  0  0  0  0  0  0
   -2.6324   -2.1050  -11.4001 C   0  0  0  0  0  0  0  0  0  0  0  0
   -2.0688   -2.1107  -12.4004 N   0  0  0  0  0  0  0  0  0  0  0  0
   -2.7781   -3.3270   -9.4215 C   0  0  0  0  0  0  0  0  0  0  0  0
   -2.3270   -4.2169   -8.8540 N   0  0  0  0  0  0  0  0  0  0  0  0
   -3.7983   -2.5643   -6.6865 C   0  0  0  0  0  0  0  0  0  0  0  0
   -3.7647   -3.3330   -5.4930 C   0  0  0  0  0  0  0  0  0  0  0  0
   -2.7229   -3.2054   -4.5025 C   0  0  0  0  0  0  0  0  0  0  0  0
   -2.9138   -4.0172   -3.4641 N   0  0  0  0  0  0  0  0  0  0  0  0
   -4.2637   -4.8599   -3.7022 S   0  0  0  0  0  4  0  0  0  0  0  0
   -4.6784   -4.2269   -5.1215 N   0  0  0  0  0  0  0  0  0  0  0  0
   -1.7289   -2.2059   -4.5962 C   0  0  0  0  0  0  0  0  0  0  0  0
   -1.6378   -1.5931   -5.8655 C   0  0  0  0  0  0  0  0  0  0  0  0
   -0.6400   -0.8075   -6.2684 N   0  0  0  0  0  0  0  0  0  0  0  0
   -0.9285   -0.3238   -7.7722 S   0  0  0  0  0  0  0  0  0  0  0  0
   -2.3449   -1.0561   -7.9764 N   0  0  0  0  0  0  0  0  0  0  0  0
   -2.6439   -1.7672   -6.8920 C   0  0  0  0  0  0  0  0  0  0  0  0
   -0.9858   -1.8184   -3.4594 C   0  0  0  0  0  0  0  0  0  0  0  0
   -0.5115   -0.5445   -3.1036 C   0  0  0  0  0  0  0  0  0  0  0  0
   -0.8162    0.6425   -3.7326 N   0  0  0  0  0  0  0  0  0  0  0  0
    0.1865    1.6254   -3.7997 C   0  0  0  0  0  0  0  0  0  0  0  0
   -0.1085    2.9620   -3.5382 C   0  0  0  0  0  0  0  0  0  0  0  0
    0.8748    3.9188   -3.6583 C   0  0  0  0  0  0  0  0  0  0  0  0
    2.1628    3.5599   -4.0504 C   0  0  0  0  0  0  0  0  0  0  0  0
    3.3443    4.8608   -4.2199 S   0  0  0  0  0  0  0  0  0  0  0  0
    4.5237    4.1834   -5.4285 C   0  0  0  0  0  0  0  0  0  0  0  0
    2.4655    2.2238   -4.2814 C   0  0  0  0  0  0  0  0  0  0  0  0
    1.4832    1.2639   -4.1529 C   0  0  0  0  0  0  0  0  0  0  0  0
   -2.0302    0.8353   -4.3962 C   0  0  0  0  0  0  0  0  0  0  0  0
   -2.0936    1.6206   -5.5502 C   0  0  0  0  0  0  0  0  0  0  0  0
   -3.2537    1.6850   -6.2875 C   0  0  0  0  0  0  0  0  0  0  0  0
   -4.3915    0.9812   -5.8911 C   0  0  0  0  0  0  0  0  0  0  0  0
   -5.7686    1.0355   -6.9867 S   0  0  0  0  0  0  0  0  0  0  0  0
   -7.0847    0.1758   -6.0852 C   0  0  0  0  0  0  0  0  0  0  0  0
   -4.3626    0.2786   -4.6910 C   0  0  0  0  0  0  0  0  0  0  0  0
   -3.1993    0.2178   -3.9506 C   0  0  0  0  0  0  0  0  0  0  0  0
    0.1957   -0.6044   -1.8844 C   0  0  0  0  0  0  0  0  0  0  0  0
    1.0221    0.5602   -0.8998 S   0  0  0  0  0  0  0  0  0  0  0  0
    1.2816   -0.6535    0.3567 C   0  0  0  0  0  0  0  0  0  0  0  0
    0.8161   -1.9126   -0.0298 C   0  0  0  0  0  0  0  0  0  0  0  0
    0.9186   -3.0798    0.7107 N   0  0  0  0  0  0  0  0  0  0  0  0
   -0.1715   -3.9637    0.5510 C   0  0  0  0  0  0  0  0  0  0  0  0
   -1.4583   -3.4854    0.7967 C   0  0  0  0  0  0  0  0  0  0  0  0
   -2.5557   -4.2564    0.4880 C   0  0  0  0  0  0  0  0  0  0  0  0
   -2.3891   -5.5227   -0.0683 C   0  0  0  0  0  0  0  0  0  0  0  0
   -3.8567   -6.3901   -0.5194 S   0  0  0  0  0  0  0  0  0  0  0  0
   -3.2484   -7.6938   -1.6273 C   0  0  0  0  0  0  0  0  0  0  0  0
   -1.1085   -6.0304   -0.2438 C   0  0  0  0  0  0  0  0  0  0  0  0
   -0.0071   -5.2538    0.0595 C   0  0  0  0  0  0  0  0  0  0  0  0
    2.1418   -3.5331    1.2065 C   0  0  0  0  0  0  0  0  0  0  0  0
    2.1667   -4.5499    2.1630 C   0  0  0  0  0  0  0  0  0  0  0  0
    3.3667   -5.0203    2.6418 C   0  0  0  0  0  0  0  0  0  0  0  0
    4.5714   -4.4627    2.2171 C   0  0  0  0  0  0  0  0  0  0  0  0
    6.0390   -5.1104    2.9552 S   0  0  0  0  0  0  0  0  0  0  0  0
    7.3828   -4.2986    2.0453 C   0  0  0  0  0  0  0  0  0  0  0  0
    4.5519   -3.4461    1.2733 C   0  0  0  0  0  0  0  0  0  0  0  0
    3.3492   -3.0007    0.7610 C   0  0  0  0  0  0  0  0  0  0  0  0
    0.1911   -1.8600   -1.2905 C   0  0  0  0  0  0  0  0  0  0  0  0
   -0.6835   -3.0230   -2.2254 S   0  0  0  0  0  0  0  0  0  0  0  0
    1.7017   -0.2596    1.6445 C   0  0  0  0  0  0  0  0  0  0  0  0
    2.1976    0.9927    2.0146 C   0  0  0  0  0  0  0  0  0  0  0  0
    2.6286    1.9745    1.1374 N   0  0  0  0  0  0  0  0  0  0  0  0
    2.3526    3.3046    1.5300 C   0  0  0  0  0  0  0  0  0  0  0  0
    1.0421    3.6480    1.8471 C   0  0  0  0  0  0  0  0  0  0  0  0
    0.7521    4.9204    2.3010 C   0  0  0  0  0  0  0  0  0  0  0  0
    1.7616    5.8579    2.4374 C   0  0  0  0  0  0  0  0  0  0  0  0
    3.0642    5.5202    2.1112 C   0  0  0  0  0  0  0  0  0  0  0  0
    3.3650    4.2493    1.6601 C   0  0  0  0  0  0  0  0  0  0  0  0
    3.5813    1.7099    0.1524 C   0  0  0  0  0  0  0  0  0  0  0  0
    3.7623    2.6147   -0.8932 C   0  0  0  0  0  0  0  0  0  0  0  0
    4.7337    2.3858   -1.8459 C   0  0  0  0  0  0  0  0  0  0  0  0
    5.5075    1.2379   -1.8054 C   0  0  0  0  0  0  0  0  0  0  0  0
    5.3148    0.3257   -0.7816 C   0  0  0  0  0  0  0  0  0  0  0  0
    4.3726    0.5623    0.2000 C   0  0  0  0  0  0  0  0  0  0  0  0
    2.2140    1.1493    3.4144 C   0  0  0  0  0  0  0  0  0  0  0  0
    2.5666    2.4926    4.4397 S   0  0  0  0  0  0  0  0  0  0  0  0
    2.2132    1.5058    5.8587 C   0  0  0  0  0  0  0  0  0  0  0  0
    1.7411    0.2100    5.5014 C   0  0  0  0  0  0  0  0  0  0  0  0
    1.2708   -0.7239    6.3848 N   0  0  0  0  0  0  0  0  0  0  0  0
    1.5296   -2.0856    6.1326 C   0  0  0  0  0  0  0  0  0  0  0  0
    0.5260   -3.0368    6.2867 C   0  0  0  0  0  0  0  0  0  0  0  0
    0.8139   -4.3747    6.0984 C   0  0  0  0  0  0  0  0  0  0  0  0
    2.0962   -4.7727    5.7588 C   0  0  0  0  0  0  0  0  0  0  0  0
    3.0911   -3.8251    5.5835 C   0  0  0  0  0  0  0  0  0  0  0  0
    2.8114   -2.4847    5.7633 C   0  0  0  0  0  0  0  0  0  0  0  0
    0.4728   -0.3721    7.4892 C   0  0  0  0  0  0  0  0  0  0  0  0
   -0.4054    0.7078    7.4056 C   0  0  0  0  0  0  0  0  0  0  0  0
   -1.1819    1.0504    8.4939 C   0  0  0  0  0  0  0  0  0  0  0  0
   -1.1088    0.3152    9.6674 C   0  0  0  0  0  0  0  0  0  0  0  0
   -0.2561   -0.7717    9.7433 C   0  0  0  0  0  0  0  0  0  0  0  0
    0.5390   -1.1156    8.6649 C   0  0  0  0  0  0  0  0  0  0  0  0
    1.7878    0.0233    4.1137 C   0  0  0  0  0  0  0  0  0  0  0  0
    1.3696   -1.2820    3.0438 S   0  0  0  0  0  0  0  0  0  0  0  0
    2.4811    1.8752    7.1705 C   0  0  0  0  0  0  0  0  0  0  0  0
    2.9279    3.0795    7.6834 C   0  0  0  0  0  0  0  0  0  0  0  0
    3.0222    4.3276    6.9380 C   0  0  0  0  0  0  0  0  0  0  0  0
    2.8003    4.5155    5.7548 O   0  0  0  0  0  0  0  0  0  0  0  0
    3.4355    5.3576    7.9158 C   0  0  0  0  0  0  0  0  0  0  0  0
    3.7293    6.6882    7.6858 C   0  0  0  0  0  0  0  0  0  0  0  0
    3.4927    7.3979    6.1527 Cl  0  0  0  0  0  0  0  0  0  0  0  0
    4.2436    7.4454    8.7476 C   0  0  0  0  0  0  0  0  0  0  0  0
    4.5866    9.1059    8.5265 Cl  0  0  0  0  0  0  0  0  0  0  0  0
    4.5180    6.8320    9.9676 C   0  0  0  0  0  0  0  0  0  0  0  0
    5.2380    7.7507   11.2186 Cl  0  0  0  0  0  0  0  0  0  0  0  0
    4.2326    5.4733   10.1876 C   0  0  0  0  0  0  0  0  0  0  0  0
    4.7755    4.7673   11.6534 Cl  0  0  0  0  0  0  0  0  0  0  0  0
    3.6123    4.7499    9.1758 C   0  0  0  0  0  0  0  0  0  0  0  0
    3.1857    3.3537    9.0768 C   0  0  0  0  0  0  0  0  0  0  0  0
    2.9481    2.4979   10.1306 C   0  0  0  0  0  0  0  0  0  0  0  0
    2.7879    1.1046   10.0170 C   0  0  0  0  0  0  0  0  0  0  0  0
    2.7289   -0.0444   10.0266 N   0  0  0  0  0  0  0  0  0  0  0  0
    2.6982    2.8898   11.4614 C   0  0  0  0  0  0  0  0  0  0  0  0
    2.3459    3.1104   12.5320 N   0  0  0  0  0  0  0  0  0  0  0  0
   -5.8426   -2.9737   -6.9530 H   0  0  0  0  0  0  0  0  0  0  0  0
   -1.1117    3.2418   -3.2540 H   0  0  0  0  0  0  0  0  0  0  0  0
    0.6549    4.9566   -3.4612 H   0  0  0  0  0  0  0  0  0  0  0  0
    5.1748    3.4464   -4.9671 H   0  0  0  0  0  0  0  0  0  0  0  0
    5.1140    5.0286   -5.7684 H   0  0  0  0  0  0  0  0  0  0  0  0
    3.9760    3.7526   -6.2607 H   0  0  0  0  0  0  0  0  0  0  0  0
    3.4584    1.9213   -4.5712 H   0  0  0  0  0  0  0  0  0  0  0  0
    1.7057    0.2276   -4.3575 H   0  0  0  0  0  0  0  0  0  0  0  0
   -1.2100    2.1392   -5.8904 H   0  0  0  0  0  0  0  0  0  0  0  0
   -3.2870    2.2592   -7.2005 H   0  0  0  0  0  0  0  0  0  0  0  0
   -7.2971    0.6988   -5.1576 H   0  0  0  0  0  0  0  0  0  0  0  0
   -6.8021   -0.8577   -5.9101 H   0  0  0  0  0  0  0  0  0  0  0  0
   -7.9521    0.2022   -6.7369 H   0  0  0  0  0  0  0  0  0  0  0  0
   -5.2382   -0.2339   -4.3268 H   0  0  0  0  0  0  0  0  0  0  0  0
   -3.1918   -0.3373   -3.0241 H   0  0  0  0  0  0  0  0  0  0  0  0
   -1.5833   -2.4922    1.2022 H   0  0  0  0  0  0  0  0  0  0  0  0
   -3.5539   -3.8819    0.6534 H   0  0  0  0  0  0  0  0  0  0  0  0
   -2.7302   -8.4615   -1.0598 H   0  0  0  0  0  0  0  0  0  0  0  0
   -4.1305   -8.1198   -2.0951 H   0  0  0  0  0  0  0  0  0  0  0  0
   -2.6020   -7.2529   -2.3800 H   0  0  0  0  0  0  0  0  0  0  0  0
   -0.9532   -7.0207   -0.6393 H   0  0  0  0  0  0  0  0  0  0  0  0
    0.9867   -5.6376   -0.1158 H   0  0  0  0  0  0  0  0  0  0  0  0
    1.2391   -4.9672    2.5227 H   0  0  0  0  0  0  0  0  0  0  0  0
    3.3882   -5.8263    3.3573 H   0  0  0  0  0  0  0  0  0  0  0  0
    7.3717   -3.2290    2.2349 H   0  0  0  0  0  0  0  0  0  0  0  0
    8.3005   -4.7301    2.4328 H   0  0  0  0  0  0  0  0  0  0  0  0
    7.2926   -4.5147    0.9847 H   0  0  0  0  0  0  0  0  0  0  0  0
    5.4651   -2.9996    0.9138 H   0  0  0  0  0  0  0  0  0  0  0  0
    3.3528   -2.2361   -0.0016 H   0  0  0  0  0  0  0  0  0  0  0  0
    0.2622    2.9075    1.7404 H   0  0  0  0  0  0  0  0  0  0  0  0
   -0.2657    5.1790    2.5519 H   0  0  0  0  0  0  0  0  0  0  0  0
    1.5351    6.8474    2.8029 H   0  0  0  0  0  0  0  0  0  0  0  0
    3.8552    6.2455    2.2247 H   0  0  0  0  0  0  0  0  0  0  0  0
    4.3834    3.9769    1.4258 H   0  0  0  0  0  0  0  0  0  0  0  0
    3.1454    3.4985   -0.9487 H   0  0  0  0  0  0  0  0  0  0  0  0
    4.8888    3.1204   -2.6195 H   0  0  0  0  0  0  0  0  0  0  0  0
    6.2606    1.0576   -2.5578 H   0  0  0  0  0  0  0  0  0  0  0  0
    5.9182   -0.5692   -0.7352 H   0  0  0  0  0  0  0  0  0  0  0  0
    4.2605   -0.1335    1.0186 H   0  0  0  0  0  0  0  0  0  0  0  0
   -0.4697   -2.7213    6.5607 H   0  0  0  0  0  0  0  0  0  0  0  0
    0.0334   -5.1101    6.2235 H   0  0  0  0  0  0  0  0  0  0  0  0
    2.3199   -5.8215    5.6384 H   0  0  0  0  0  0  0  0  0  0  0  0
    4.0927   -4.1308    5.3231 H   0  0  0  0  0  0  0  0  0  0  0  0
    3.5870   -1.7415    5.6487 H   0  0  0  0  0  0  0  0  0  0  0  0
   -0.4732    1.2737    6.4880 H   0  0  0  0  0  0  0  0  0  0  0  0
   -1.8561    1.8908    8.4222 H   0  0  0  0  0  0  0  0  0  0  0  0
   -1.7169    0.5892   10.5156 H   0  0  0  0  0  0  0  0  0  0  0  0
   -0.1911   -1.3484   10.6524 H   0  0  0  0  0  0  0  0  0  0  0  0
    1.2179   -1.9504    8.7341 H   0  0  0  0  0  0  0  0  0  0  0  0
    2.3317    1.0821    7.8914 H   0  0  0  0  0  0  0  0  0  0  0  0
  1  2  2  0  0  0  0
  2  3  1  0  0  0  0
  3  4  2  0  0  0  0
  3  5  1  0  0  0  0
  5  6  2  0  0  0  0
  6  7  1  0  0  0  0
  6  8  1  0  0  0  0
  8  9  1  0  0  0  0
  8 10  2  0  0  0  0
 10 11  1  0  0  0  0
 10 12  1  0  0  0  0
 12 13  1  0  0  0  0
 12 14  2  0  0  0  0
 14 15  1  0  0  0  0
 15 16  2  0  0  0  0
 16 17  1  0  0  0  0
 17 18  3  0  0  0  0
 16 19  1  0  0  0  0
 19 20  3  0  0  0  0
  1 21  1  0  0  0  0
 21 22  2  0  0  0  0
 22 23  1  0  0  0  0
 23 24  1  0  0  0  0
 24 25  2  0  0  0  0
 25 26  2  0  0  0  0
 23 27  2  0  0  0  0
 27 28  1  0  0  0  0
 28 29  2  0  0  0  0
 29 30  1  0  0  0  0
 30 31  1  0  0  0  0
 31 32  2  0  0  0  0
 27 33  1  0  0  0  0
 33 34  2  0  0  0  0
 34 35  1  0  0  0  0
 35 36  1  0  0  0  0
 36 37  2  0  0  0  0
 37 38  1  0  0  0  0
 38 39  2  0  0  0  0
 39 40  1  0  0  0  0
 40 41  1  0  0  0  0
 39 42  1  0  0  0  0
 42 43  2  0  0  0  0
 35 44  1  0  0  0  0
 44 45  2  0  0  0  0
 45 46  1  0  0  0  0
 46 47  2  0  0  0  0
 47 48  1  0  0  0  0
 48 49  1  0  0  0  0
 47 50  1  0  0  0  0
 50 51  2  0  0  0  0
 34 52  1  0  0  0  0
 52 53  1  0  0  0  0
 53 54  1  0  0  0  0
 54 55  2  0  0  0  0
 55 56  1  0  0  0  0
 56 57  1  0  0  0  0
 57 58  2  0  0  0  0
 58 59  1  0  0  0  0
 59 60  2  0  0  0  0
 60 61  1  0  0  0  0
 61 62  1  0  0  0  0
 60 63  1  0  0  0  0
 63 64  2  0  0  0  0
 56 65  1  0  0  0  0
 65 66  2  0  0  0  0
 66 67  1  0  0  0  0
 67 68  2  0  0  0  0
 68 69  1  0  0  0  0
 69 70  1  0  0  0  0
 68 71  1  0  0  0  0
 71 72  2  0  0  0  0
 55 73  1  0  0  0  0
 73 74  1  0  0  0  0
 54 75  1  0  0  0  0
 75 76  2  0  0  0  0
 76 77  1  0  0  0  0
 77 78  1  0  0  0  0
 78 79  2  0  0  0  0
 79 80  1  0  0  0  0
 80 81  2  0  0  0  0
 81 82  1  0  0  0  0
 82 83  2  0  0  0  0
 77 84  1  0  0  0  0
 84 85  2  0  0  0  0
 85 86  1  0  0  0  0
 86 87  2  0  0  0  0
 87 88  1  0  0  0  0
 88 89  2  0  0  0  0
 76 90  1  0  0  0  0
 90 91  1  0  0  0  0
 91 92  1  0  0  0  0
 92 93  2  0  0  0  0
 93 94  1  0  0  0  0
 94 95  1  0  0  0  0
 95 96  2  0  0  0  0
 96 97  1  0  0  0  0
 97 98  2  0  0  0  0
 98 99  1  0  0  0  0
 99100  2  0  0  0  0
 94101  1  0  0  0  0
101102  2  0  0  0  0
102103  1  0  0  0  0
103104  2  0  0  0  0
104105  1  0  0  0  0
105106  2  0  0  0  0
 93107  1  0  0  0  0
107108  1  0  0  0  0
 92109  1  0  0  0  0
109110  2  0  0  0  0
110111  1  0  0  0  0
111112  2  0  0  0  0
111113  1  0  0  0  0
113114  2  0  0  0  0
114115  1  0  0  0  0
114116  1  0  0  0  0
116117  1  0  0  0  0
116118  2  0  0  0  0
118119  1  0  0  0  0
118120  1  0  0  0  0
120121  1  0  0  0  0
120122  2  0  0  0  0
122123  1  0  0  0  0
123124  2  0  0  0  0
124125  1  0  0  0  0
125126  3  0  0  0  0
124127  1  0  0  0  0
127128  3  0  0  0  0
 15  2  1  0  0  0  0
 32 21  1  0  0  0  0
 74 33  1  0  0  0  0
108 75  1  0  0  0  0
123110  1  0  0  0  0
 14  5  1  0  0  0  0
 26 22  1  0  0  0  0
 32 28  1  0  0  0  0
 43 36  1  0  0  0  0
 51 44  1  0  0  0  0
 73 52  2  0  0  0  0
 83 78  1  0  0  0  0
 89 84  1  0  0  0  0
107 90  2  0  0  0  0
122113  1  0  0  0  0
 64 57  1  0  0  0  0
 72 65  1  0  0  0  0
100 95  1  0  0  0  0
106101  1  0  0  0  0
  1129  1  0  0  0  0
 37130  1  0  0  0  0
 38131  1  0  0  0  0
 41132  1  0  0  0  0
 41133  1  0  0  0  0
 41134  1  0  0  0  0
 42135  1  0  0  0  0
 43136  1  0  0  0  0
 45137  1  0  0  0  0
 46138  1  0  0  0  0
 49139  1  0  0  0  0
 49140  1  0  0  0  0
 49141  1  0  0  0  0
 50142  1  0  0  0  0
 51143  1  0  0  0  0
 58144  1  0  0  0  0
 59145  1  0  0  0  0
 62146  1  0  0  0  0
 62147  1  0  0  0  0
 62148  1  0  0  0  0
 63149  1  0  0  0  0
 64150  1  0  0  0  0
 66151  1  0  0  0  0
 67152  1  0  0  0  0
 70153  1  0  0  0  0
 70154  1  0  0  0  0
 70155  1  0  0  0  0
 71156  1  0  0  0  0
 72157  1  0  0  0  0
 79158  1  0  0  0  0
 80159  1  0  0  0  0
 81160  1  0  0  0  0
 82161  1  0  0  0  0
 83162  1  0  0  0  0
 85163  1  0  0  0  0
 86164  1  0  0  0  0
 87165  1  0  0  0  0
 88166  1  0  0  0  0
 89167  1  0  0  0  0
 96168  1  0  0  0  0
 97169  1  0  0  0  0
 98170  1  0  0  0  0
 99171  1  0  0  0  0
100172  1  0  0  0  0
102173  1  0  0  0  0
103174  1  0  0  0  0
104175  1  0  0  0  0
105176  1  0  0  0  0
106177  1  0  0  0  0
109178  1  0  0  0  0
M  END
