
  xtb     02042204593D
 energy: -281.618806669319 gnorm: 0.000722061802 xtb: 6.4.1 (unknown)
139152  0     0  0            999 V2000
   -6.8388    3.9491    1.1637 C   0  0  0  0  0  0  0  0  0  0  0  0
   -6.9483    5.1475    1.8161 C   0  0  0  0  0  0  0  0  0  0  0  0
   -8.2757    5.6383    2.2448 C   0  0  0  0  0  0  0  0  0  0  0  0
   -9.3572    5.2219    1.9037 O   0  0  0  0  0  0  0  0  0  0  0  0
   -7.9863    6.7117    3.2346 C   0  0  0  0  0  0  0  0  0  0  0  0
   -8.8567    7.3868    4.0706 C   0  0  0  0  0  0  0  0  0  0  0  0
  -10.5469    7.1801    3.9491 Cl  0  0  0  0  0  0  0  0  0  0  0  0
   -8.3163    8.2472    5.0383 C   0  0  0  0  0  0  0  0  0  0  0  0
   -9.3569    9.1207    6.0772 Cl  0  0  0  0  0  0  0  0  0  0  0  0
   -6.9352    8.3603    5.1833 C   0  0  0  0  0  0  0  0  0  0  0  0
   -6.2992    9.3384    6.4344 Cl  0  0  0  0  0  0  0  0  0  0  0  0
   -6.0564    7.6753    4.3288 C   0  0  0  0  0  0  0  0  0  0  0  0
   -4.3740    7.7274    4.6561 Cl  0  0  0  0  0  0  0  0  0  0  0  0
   -6.5913    6.8994    3.3122 C   0  0  0  0  0  0  0  0  0  0  0  0
   -5.9662    6.1074    2.2535 C   0  0  0  0  0  0  0  0  0  0  0  0
   -4.8157    6.4227    1.5768 C   0  0  0  0  0  0  0  0  0  0  0  0
   -4.0017    7.5533    1.7922 C   0  0  0  0  0  0  0  0  0  0  0  0
   -3.3085    8.4669    1.8420 N   0  0  0  0  0  0  0  0  0  0  0  0
   -4.3826    5.7251    0.4317 C   0  0  0  0  0  0  0  0  0  0  0  0
   -3.9742    5.2065   -0.5084 N   0  0  0  0  0  0  0  0  0  0  0  0
   -5.7036    3.1370    0.9801 C   0  0  0  0  0  0  0  0  0  0  0  0
   -4.4841    3.2306    1.6924 C   0  0  0  0  0  0  0  0  0  0  0  0
   -3.3399    2.4180    1.3583 C   0  0  0  0  0  0  0  0  0  0  0  0
   -2.3120    2.6543    2.1684 N   0  0  0  0  0  0  0  0  0  0  0  0
   -2.7272    3.7661    3.2577 S   0  0  0  0  0  4  0  0  0  0  0  0
   -4.2332    4.0094    2.7448 N   0  0  0  0  0  0  0  0  0  0  0  0
   -3.3109    1.4993    0.2764 C   0  0  0  0  0  0  0  0  0  0  0  0
   -4.5885    1.2558   -0.2831 C   0  0  0  0  0  0  0  0  0  0  0  0
   -4.9024    0.2774   -1.1318 N   0  0  0  0  0  0  0  0  0  0  0  0
   -6.4726    0.3626   -1.4770 S   0  0  0  0  0  0  0  0  0  0  0  0
   -6.8371    1.6439   -0.5743 N   0  0  0  0  0  0  0  0  0  0  0  0
   -5.7468    2.0532    0.0662 C   0  0  0  0  0  0  0  0  0  0  0  0
   -2.0883    0.9002   -0.0930 C   0  0  0  0  0  0  0  0  0  0  0  0
   -1.7073    0.1414   -1.2224 C   0  0  0  0  0  0  0  0  0  0  0  0
   -2.3704    0.0050   -2.4133 N   0  0  0  0  0  0  0  0  0  0  0  0
   -3.1964    0.9900   -2.9486 C   0  0  0  0  0  0  0  0  0  0  0  0
   -4.2217    0.6383   -3.8292 C   0  0  0  0  0  0  0  0  0  0  0  0
   -5.1138    1.5842   -4.2870 C   0  0  0  0  0  0  0  0  0  0  0  0
   -4.9919    2.9119   -3.8859 C   0  0  0  0  0  0  0  0  0  0  0  0
   -6.1096    4.1877   -4.3292 S   0  0  0  0  0  0  0  0  0  0  0  0
   -7.4882    3.3053   -5.1171 C   0  0  0  0  0  0  0  0  0  0  0  0
   -3.9140    3.2839   -3.0779 C   0  0  0  0  0  0  0  0  0  0  0  0
   -3.0249    2.3403   -2.6250 C   0  0  0  0  0  0  0  0  0  0  0  0
   -2.1452   -1.1801   -3.1420 C   0  0  0  0  0  0  0  0  0  0  0  0
   -1.8049   -1.1351   -4.4938 C   0  0  0  0  0  0  0  0  0  0  0  0
   -1.5361   -2.3005   -5.1737 C   0  0  0  0  0  0  0  0  0  0  0  0
   -1.5996   -3.5335   -4.5223 C   0  0  0  0  0  0  0  0  0  0  0  0
   -1.2010   -4.9505   -5.4847 S   0  0  0  0  0  0  0  0  0  0  0  0
   -1.0787   -6.2871   -4.2625 C   0  0  0  0  0  0  0  0  0  0  0  0
   -1.9716   -3.5817   -3.1839 C   0  0  0  0  0  0  0  0  0  0  0  0
   -2.2415   -2.4124   -2.5021 C   0  0  0  0  0  0  0  0  0  0  0  0
   -0.4261   -0.4304   -1.0217 C   0  0  0  0  0  0  0  0  0  0  0  0
    0.5905   -1.4682   -1.9651 S   0  0  0  0  0  0  0  0  0  0  0  0
    1.8500   -1.4004   -0.7364 C   0  0  0  0  0  0  0  0  0  0  0  0
    1.5156   -0.5463    0.3149 C   0  0  0  0  0  0  0  0  0  0  0  0
    2.3162   -0.1853    1.3805 N   0  0  0  0  0  0  0  0  0  0  0  0
    1.6369    0.2708    2.5344 C   0  0  0  0  0  0  0  0  0  0  0  0
    0.6813   -0.5449    3.1314 C   0  0  0  0  0  0  0  0  0  0  0  0
   -0.1137   -0.0609    4.1521 C   0  0  0  0  0  0  0  0  0  0  0  0
    0.0373    1.2507    4.5813 C   0  0  0  0  0  0  0  0  0  0  0  0
   -1.0160    2.0080    5.7765 S   0  0  0  0  0  0  0  0  0  0  0  0
   -2.5115    0.9786    5.7011 C   0  0  0  0  0  0  0  0  0  0  0  0
    1.0548    2.0383    4.0470 C   0  0  0  0  0  0  0  0  0  0  0  0
    1.8508    1.5545    3.0339 C   0  0  0  0  0  0  0  0  0  0  0  0
    3.6776    0.1112    1.2461 C   0  0  0  0  0  0  0  0  0  0  0  0
    4.2403    0.4916    0.0315 C   0  0  0  0  0  0  0  0  0  0  0  0
    5.5816    0.8116   -0.0562 C   0  0  0  0  0  0  0  0  0  0  0  0
    6.3884    0.7607    1.0725 C   0  0  0  0  0  0  0  0  0  0  0  0
    8.1047    1.1666    1.0923 S   0  0  0  0  0  0  0  0  0  0  0  0
    8.4692    1.6384   -0.6214 C   0  0  0  0  0  0  0  0  0  0  0  0
    5.8313    0.3682    2.2897 C   0  0  0  0  0  0  0  0  0  0  0  0
    4.4969    0.0451    2.3764 C   0  0  0  0  0  0  0  0  0  0  0  0
    0.2038   -0.0394    0.1466 C   0  0  0  0  0  0  0  0  0  0  0  0
   -0.7765    1.0485    1.0713 S   0  0  0  0  0  0  0  0  0  0  0  0
    2.9791   -2.2427   -0.9112 C   0  0  0  0  0  0  0  0  0  0  0  0
    3.8957   -2.6890    0.0187 C   0  0  0  0  0  0  0  0  0  0  0  0
    4.7930   -3.6426   -0.4859 C   0  0  0  0  0  0  0  0  0  0  0  0
    5.9814   -4.1356    0.2350 C   0  0  0  0  0  0  0  0  0  0  0  0
    6.4175   -5.2674    0.1608 O   0  0  0  0  0  0  0  0  0  0  0  0
    6.7509   -3.0633    0.9685 C   0  0  0  0  0  0  0  0  0  0  0  0
    7.5378   -2.2667   -0.0767 C   0  0  0  0  0  0  0  0  0  0  0  0
    4.5741   -3.9196   -1.8368 C   0  0  0  0  0  0  0  0  0  0  0  0
    3.2930   -2.9419   -2.4753 S   0  0  0  0  0  0  0  0  0  0  0  0
    5.3733   -4.7543   -2.6608 C   0  0  0  0  0  0  0  0  0  0  0  0
    5.8272   -5.9522   -2.2027 C   0  0  0  0  0  0  0  0  0  0  0  0
    5.1218   -6.6937   -1.1099 C   0  0  0  0  0  0  0  0  0  0  0  0
    4.0490   -6.4299   -0.6241 O   0  0  0  0  0  0  0  0  0  0  0  0
    5.8539   -7.9806   -0.9999 C   0  0  0  0  0  0  0  0  0  0  0  0
    5.5888   -9.0480   -0.1612 C   0  0  0  0  0  0  0  0  0  0  0  0
    4.4172   -8.9345    1.0710 Cl  0  0  0  0  0  0  0  0  0  0  0  0
    6.3141  -10.2339   -0.3419 C   0  0  0  0  0  0  0  0  0  0  0  0
    6.0529  -11.5620    0.7017 Cl  0  0  0  0  0  0  0  0  0  0  0  0
    7.2182  -10.3458   -1.3975 C   0  0  0  0  0  0  0  0  0  0  0  0
    8.0161  -11.8353   -1.6629 Cl  0  0  0  0  0  0  0  0  0  0  0  0
    7.4756   -9.2635   -2.2522 C   0  0  0  0  0  0  0  0  0  0  0  0
    8.4702   -9.5210   -3.6258 Cl  0  0  0  0  0  0  0  0  0  0  0  0
    6.8385   -8.0531   -2.0066 C   0  0  0  0  0  0  0  0  0  0  0  0
    6.9490   -6.7446   -2.6432 C   0  0  0  0  0  0  0  0  0  0  0  0
    8.0417   -6.2008   -3.2697 C   0  0  0  0  0  0  0  0  0  0  0  0
    8.0706   -4.8486   -3.6768 C   0  0  0  0  0  0  0  0  0  0  0  0
    8.1594   -3.7488   -3.9944 N   0  0  0  0  0  0  0  0  0  0  0  0
    9.3169   -6.7823   -3.4256 C   0  0  0  0  0  0  0  0  0  0  0  0
   10.4081   -7.1192   -3.5392 N   0  0  0  0  0  0  0  0  0  0  0  0
   -7.7660    3.5360    0.7810 H   0  0  0  0  0  0  0  0  0  0  0  0
   -4.3548   -0.3956   -4.1078 H   0  0  0  0  0  0  0  0  0  0  0  0
   -5.9097    1.2725   -4.9436 H   0  0  0  0  0  0  0  0  0  0  0  0
   -7.8735    2.5491   -4.4396 H   0  0  0  0  0  0  0  0  0  0  0  0
   -7.1697    2.8704   -6.0599 H   0  0  0  0  0  0  0  0  0  0  0  0
   -8.2485    4.0582   -5.3000 H   0  0  0  0  0  0  0  0  0  0  0  0
   -3.8007    4.3158   -2.7877 H   0  0  0  0  0  0  0  0  0  0  0  0
   -2.2008    2.6493   -2.0018 H   0  0  0  0  0  0  0  0  0  0  0  0
   -1.7344   -0.1818   -4.9953 H   0  0  0  0  0  0  0  0  0  0  0  0
   -1.2561   -2.2731   -6.2152 H   0  0  0  0  0  0  0  0  0  0  0  0
   -0.7015   -7.1468   -4.8076 H   0  0  0  0  0  0  0  0  0  0  0  0
   -2.0586   -6.5154   -3.8534 H   0  0  0  0  0  0  0  0  0  0  0  0
   -0.3765   -6.0069   -3.4830 H   0  0  0  0  0  0  0  0  0  0  0  0
   -2.0567   -4.5211   -2.6631 H   0  0  0  0  0  0  0  0  0  0  0  0
   -2.5341   -2.4464   -1.4632 H   0  0  0  0  0  0  0  0  0  0  0  0
    0.5414   -1.5527    2.7683 H   0  0  0  0  0  0  0  0  0  0  0  0
   -0.8557   -0.7078    4.5909 H   0  0  0  0  0  0  0  0  0  0  0  0
   -2.7760    0.8094    4.6615 H   0  0  0  0  0  0  0  0  0  0  0  0
   -3.2906    1.5482    6.1981 H   0  0  0  0  0  0  0  0  0  0  0  0
   -2.3552    0.0403    6.2253 H   0  0  0  0  0  0  0  0  0  0  0  0
    1.1862    3.0451    4.4109 H   0  0  0  0  0  0  0  0  0  0  0  0
    2.6112    2.1808    2.5926 H   0  0  0  0  0  0  0  0  0  0  0  0
    3.6225    0.5650   -0.8502 H   0  0  0  0  0  0  0  0  0  0  0  0
    5.9793    1.1137   -1.0114 H   0  0  0  0  0  0  0  0  0  0  0  0
    8.2939    0.7979   -1.2865 H   0  0  0  0  0  0  0  0  0  0  0  0
    9.5226    1.9005   -0.6312 H   0  0  0  0  0  0  0  0  0  0  0  0
    7.8734    2.5017   -0.9026 H   0  0  0  0  0  0  0  0  0  0  0  0
    6.4612    0.3233    3.1646 H   0  0  0  0  0  0  0  0  0  0  0  0
    4.0726   -0.2532    3.3237 H   0  0  0  0  0  0  0  0  0  0  0  0
    3.8649   -2.3963    1.0510 H   0  0  0  0  0  0  0  0  0  0  0  0
    7.4429   -3.5422    1.6618 H   0  0  0  0  0  0  0  0  0  0  0  0
    6.0859   -2.3944    1.5130 H   0  0  0  0  0  0  0  0  0  0  0  0
    6.8588   -1.7343   -0.7397 H   0  0  0  0  0  0  0  0  0  0  0  0
    8.1813   -1.5481    0.4226 H   0  0  0  0  0  0  0  0  0  0  0  0
    8.1577   -2.9302   -0.6762 H   0  0  0  0  0  0  0  0  0  0  0  0
    5.6073   -4.4073   -3.6583 H   0  0  0  0  0  0  0  0  0  0  0  0
  1  2  2  0  0  0  0
  2  3  1  0  0  0  0
  3  4  2  0  0  0  0
  3  5  1  0  0  0  0
  5  6  2  0  0  0  0
  6  7  1  0  0  0  0
  6  8  1  0  0  0  0
  8  9  1  0  0  0  0
  8 10  2  0  0  0  0
 10 11  1  0  0  0  0
 10 12  1  0  0  0  0
 12 13  1  0  0  0  0
 12 14  2  0  0  0  0
 14 15  1  0  0  0  0
 15 16  2  0  0  0  0
 16 17  1  0  0  0  0
 17 18  3  0  0  0  0
 16 19  1  0  0  0  0
 19 20  3  0  0  0  0
  1 21  1  0  0  0  0
 21 22  2  0  0  0  0
 22 23  1  0  0  0  0
 23 24  1  0  0  0  0
 24 25  2  0  0  0  0
 25 26  2  0  0  0  0
 23 27  2  0  0  0  0
 27 28  1  0  0  0  0
 28 29  2  0  0  0  0
 29 30  1  0  0  0  0
 30 31  1  0  0  0  0
 31 32  2  0  0  0  0
 27 33  1  0  0  0  0
 33 34  2  0  0  0  0
 34 35  1  0  0  0  0
 35 36  1  0  0  0  0
 36 37  2  0  0  0  0
 37 38  1  0  0  0  0
 38 39  2  0  0  0  0
 39 40  1  0  0  0  0
 40 41  1  0  0  0  0
 39 42  1  0  0  0  0
 42 43  2  0  0  0  0
 35 44  1  0  0  0  0
 44 45  2  0  0  0  0
 45 46  1  0  0  0  0
 46 47  2  0  0  0  0
 47 48  1  0  0  0  0
 48 49  1  0  0  0  0
 47 50  1  0  0  0  0
 50 51  2  0  0  0  0
 34 52  1  0  0  0  0
 52 53  1  0  0  0  0
 53 54  1  0  0  0  0
 54 55  2  0  0  0  0
 55 56  1  0  0  0  0
 56 57  1  0  0  0  0
 57 58  2  0  0  0  0
 58 59  1  0  0  0  0
 59 60  2  0  0  0  0
 60 61  1  0  0  0  0
 61 62  1  0  0  0  0
 60 63  1  0  0  0  0
 63 64  2  0  0  0  0
 56 65  1  0  0  0  0
 65 66  2  0  0  0  0
 66 67  1  0  0  0  0
 67 68  2  0  0  0  0
 68 69  1  0  0  0  0
 69 70  1  0  0  0  0
 68 71  1  0  0  0  0
 71 72  2  0  0  0  0
 55 73  1  0  0  0  0
 73 74  1  0  0  0  0
 54 75  1  0  0  0  0
 75 76  2  0  0  0  0
 76 77  1  0  0  0  0
 77 78  1  0  0  0  0
 78 79  2  0  0  0  0
 78 80  1  0  0  0  0
 80 81  1  0  0  0  0
 77 82  2  0  0  0  0
 82 83  1  0  0  0  0
 82 84  1  0  0  0  0
 84 85  2  0  0  0  0
 85 86  1  0  0  0  0
 86 87  2  0  0  0  0
 86 88  1  0  0  0  0
 88 89  2  0  0  0  0
 89 90  1  0  0  0  0
 89 91  1  0  0  0  0
 91 92  1  0  0  0  0
 91 93  2  0  0  0  0
 93 94  1  0  0  0  0
 93 95  1  0  0  0  0
 95 96  1  0  0  0  0
 95 97  2  0  0  0  0
 97 98  1  0  0  0  0
 98 99  2  0  0  0  0
 99100  1  0  0  0  0
100101  3  0  0  0  0
 99102  1  0  0  0  0
102103  3  0  0  0  0
 15  2  1  0  0  0  0
 32 21  1  0  0  0  0
 74 33  1  0  0  0  0
 83 75  1  0  0  0  0
 98 85  1  0  0  0  0
 14  5  1  0  0  0  0
 26 22  1  0  0  0  0
 32 28  1  0  0  0  0
 43 36  1  0  0  0  0
 51 44  1  0  0  0  0
 73 52  2  0  0  0  0
 97 88  1  0  0  0  0
 64 57  1  0  0  0  0
 72 65  1  0  0  0  0
  1104  1  0  0  0  0
 37105  1  0  0  0  0
 38106  1  0  0  0  0
 41107  1  0  0  0  0
 41108  1  0  0  0  0
 41109  1  0  0  0  0
 42110  1  0  0  0  0
 43111  1  0  0  0  0
 45112  1  0  0  0  0
 46113  1  0  0  0  0
 49114  1  0  0  0  0
 49115  1  0  0  0  0
 49116  1  0  0  0  0
 50117  1  0  0  0  0
 51118  1  0  0  0  0
 58119  1  0  0  0  0
 59120  1  0  0  0  0
 62121  1  0  0  0  0
 62122  1  0  0  0  0
 62123  1  0  0  0  0
 63124  1  0  0  0  0
 64125  1  0  0  0  0
 66126  1  0  0  0  0
 67127  1  0  0  0  0
 70128  1  0  0  0  0
 70129  1  0  0  0  0
 70130  1  0  0  0  0
 71131  1  0  0  0  0
 72132  1  0  0  0  0
 76133  1  0  0  0  0
 80134  1  0  0  0  0
 80135  1  0  0  0  0
 81136  1  0  0  0  0
 81137  1  0  0  0  0
 81138  1  0  0  0  0
 84139  1  0  0  0  0
M  END
