
  xtb     02032219573D
 energy: -206.291126461580 gnorm: 0.000371916464 xtb: 6.4.1 (unknown)
102112  0     0  0            999 V2000
    4.0083   -3.3279   -8.0980 C   0  0  0  0  0  0  0  0  0  0  0  0
    4.9345   -2.3285   -8.1504 C   0  0  0  0  0  0  0  0  0  0  0  0
    5.4002   -1.7809   -9.4434 C   0  0  0  0  0  0  0  0  0  0  0  0
    5.2123   -2.2474  -10.5414 O   0  0  0  0  0  0  0  0  0  0  0  0
    6.0833   -0.5085   -9.0934 C   0  0  0  0  0  0  0  0  0  0  0  0
    6.5694    0.4790   -9.9325 C   0  0  0  0  0  0  0  0  0  0  0  0
    6.5697    0.2836  -11.6274 Cl  0  0  0  0  0  0  0  0  0  0  0  0
    7.0619    1.6585   -9.3544 C   0  0  0  0  0  0  0  0  0  0  0  0
    7.6986    2.8926  -10.3518 Cl  0  0  0  0  0  0  0  0  0  0  0  0
    7.0018    1.8439   -7.9738 C   0  0  0  0  0  0  0  0  0  0  0  0
    7.5252    3.3264   -7.3016 Cl  0  0  0  0  0  0  0  0  0  0  0  0
    6.5095    0.8384   -7.1266 C   0  0  0  0  0  0  0  0  0  0  0  0
    6.3179    1.1782   -5.4564 Cl  0  0  0  0  0  0  0  0  0  0  0  0
    6.1053   -0.3622   -7.6906 C   0  0  0  0  0  0  0  0  0  0  0  0
    5.6168   -1.6054   -7.0964 C   0  0  0  0  0  0  0  0  0  0  0  0
    6.0488   -2.1673   -5.9239 C   0  0  0  0  0  0  0  0  0  0  0  0
    5.7312   -3.4913   -5.5457 C   0  0  0  0  0  0  0  0  0  0  0  0
    5.5373   -4.5724   -5.2108 N   0  0  0  0  0  0  0  0  0  0  0  0
    7.0026   -1.6173   -5.0419 C   0  0  0  0  0  0  0  0  0  0  0  0
    7.8133   -1.2889   -4.2993 N   0  0  0  0  0  0  0  0  0  0  0  0
    3.2265   -3.7086   -6.9892 C   0  0  0  0  0  0  0  0  0  0  0  0
    2.8628   -2.6121   -5.6703 S   0  0  0  0  0  0  0  0  0  0  0  0
    2.0408   -3.8664   -4.8330 C   0  0  0  0  0  0  0  0  0  0  0  0
    1.4436   -3.8517   -3.5539 C   0  0  0  0  0  0  0  0  0  0  0  0
    0.9569   -5.0547   -3.0519 C   0  0  0  0  0  0  0  0  0  0  0  0
    1.2438   -6.4731   -4.3995 Ge  0  0  0  0  0  4  0  0  0  0  0  0
   -0.4809   -7.1783   -5.1451 C   0  0  0  0  0  0  0  0  0  0  0  0
   -1.4041   -6.0582   -5.5989 C   0  0  0  0  0  0  0  0  0  0  0  0
    2.6319   -7.8277   -3.8685 C   0  0  0  0  0  0  0  0  0  0  0  0
    3.6888   -8.0140   -4.9475 C   0  0  0  0  0  0  0  0  0  0  0  0
    2.0348   -5.0709   -5.5359 C   0  0  0  0  0  0  0  0  0  0  0  0
    2.6686   -4.9601   -6.7614 C   0  0  0  0  0  0  0  0  0  0  0  0
    0.4487   -4.9169   -1.7650 C   0  0  0  0  0  0  0  0  0  0  0  0
    0.5265   -3.6221   -1.2819 C   0  0  0  0  0  0  0  0  0  0  0  0
    1.2479   -2.5461   -2.4453 S   0  0  0  0  0  0  0  0  0  0  0  0
    0.1216   -3.1556   -0.0015 C   0  0  0  0  0  0  0  0  0  0  0  0
   -0.1486   -3.9075    1.1280 C   0  0  0  0  0  0  0  0  0  0  0  0
   -0.4861   -3.2252    2.2206 N   0  0  0  0  0  0  0  0  0  0  0  0
   -0.5134   -1.9394    2.0180 C   0  0  0  0  0  0  0  0  0  0  0  0
   -0.0839   -1.4716    0.3738 S   0  0  0  0  0  0  0  0  0  0  0  0
   -0.8459   -0.9892    3.0157 C   0  0  0  0  0  0  0  0  0  0  0  0
   -1.1414    0.6814    2.6376 S   0  0  0  0  0  0  0  0  0  0  0  0
   -1.4583    1.0108    4.3006 C   0  0  0  0  0  0  0  0  0  0  0  0
   -1.8400    2.2246    4.9128 C   0  0  0  0  0  0  0  0  0  0  0  0
   -2.0208    2.2029    6.3058 C   0  0  0  0  0  0  0  0  0  0  0  0
   -1.6449    0.3878    6.9861 Ge  0  0  0  0  0  4  0  0  0  0  0  0
   -3.2312   -0.5281    7.8052 C   0  0  0  0  0  0  0  0  0  0  0  0
   -3.0162   -2.0246    7.9724 C   0  0  0  0  0  0  0  0  0  0  0  0
    0.0604    0.3092    8.0379 C   0  0  0  0  0  0  0  0  0  0  0  0
    1.1887    1.0535    7.3403 C   0  0  0  0  0  0  0  0  0  0  0  0
   -1.3264   -0.1202    5.1052 C   0  0  0  0  0  0  0  0  0  0  0  0
   -0.9876   -1.2478    4.3699 C   0  0  0  0  0  0  0  0  0  0  0  0
   -2.4126    3.4330    6.7779 C   0  0  0  0  0  0  0  0  0  0  0  0
   -2.5535    4.4112    5.7799 C   0  0  0  0  0  0  0  0  0  0  0  0
   -2.1617    3.7513    4.2036 S   0  0  0  0  0  0  0  0  0  0  0  0
   -2.9909    5.7066    6.0693 C   0  0  0  0  0  0  0  0  0  0  0  0
   -3.2127    6.7837    5.2433 C   0  0  0  0  0  0  0  0  0  0  0  0
   -2.9673    6.8204    3.8029 C   0  0  0  0  0  0  0  0  0  0  0  0
   -2.6058    5.9074    3.0857 O   0  0  0  0  0  0  0  0  0  0  0  0
   -3.2160    8.2186    3.3838 C   0  0  0  0  0  0  0  0  0  0  0  0
   -3.0340    8.7908    2.1378 C   0  0  0  0  0  0  0  0  0  0  0  0
   -2.6135    7.8504    0.7776 Cl  0  0  0  0  0  0  0  0  0  0  0  0
   -3.1965   10.1786    2.0176 C   0  0  0  0  0  0  0  0  0  0  0  0
   -3.0214   10.9284    0.4914 Cl  0  0  0  0  0  0  0  0  0  0  0  0
   -3.4539   10.9514    3.1481 C   0  0  0  0  0  0  0  0  0  0  0  0
   -3.5436   12.6528    2.9946 Cl  0  0  0  0  0  0  0  0  0  0  0  0
   -3.6261   10.3637    4.4127 C   0  0  0  0  0  0  0  0  0  0  0  0
   -3.7513   11.3969    5.7757 Cl  0  0  0  0  0  0  0  0  0  0  0  0
   -3.5835    8.9789    4.5129 C   0  0  0  0  0  0  0  0  0  0  0  0
   -3.7585    8.0664    5.6425 C   0  0  0  0  0  0  0  0  0  0  0  0
   -4.4942    8.3107    6.7745 C   0  0  0  0  0  0  0  0  0  0  0  0
   -4.6297    7.4155    7.8577 C   0  0  0  0  0  0  0  0  0  0  0  0
   -4.7760    6.7614    8.7907 N   0  0  0  0  0  0  0  0  0  0  0  0
   -5.3680    9.4022    6.9707 C   0  0  0  0  0  0  0  0  0  0  0  0
   -6.1874   10.1776    7.1826 N   0  0  0  0  0  0  0  0  0  0  0  0
    3.8240   -3.8570   -9.0273 H   0  0  0  0  0  0  0  0  0  0  0  0
   -0.2473   -7.8395   -5.9792 H   0  0  0  0  0  0  0  0  0  0  0  0
   -0.9652   -7.7821   -4.3780 H   0  0  0  0  0  0  0  0  0  0  0  0
   -0.9321   -5.4656   -6.3804 H   0  0  0  0  0  0  0  0  0  0  0  0
   -2.3344   -6.4649   -5.9905 H   0  0  0  0  0  0  0  0  0  0  0  0
   -1.6417   -5.3965   -4.7679 H   0  0  0  0  0  0  0  0  0  0  0  0
    3.0992   -7.4869   -2.9457 H   0  0  0  0  0  0  0  0  0  0  0  0
    2.1315   -8.7725   -3.6573 H   0  0  0  0  0  0  0  0  0  0  0  0
    3.2343   -8.3351   -5.8828 H   0  0  0  0  0  0  0  0  0  0  0  0
    4.4088   -8.7701   -4.6408 H   0  0  0  0  0  0  0  0  0  0  0  0
    4.2232   -7.0832   -5.1237 H   0  0  0  0  0  0  0  0  0  0  0  0
    2.7848   -5.7706   -7.4597 H   0  0  0  0  0  0  0  0  0  0  0  0
    0.0241   -5.7249   -1.1961 H   0  0  0  0  0  0  0  0  0  0  0  0
   -0.0873   -4.9791    1.1801 H   0  0  0  0  0  0  0  0  0  0  0  0
   -3.4354   -0.0651    8.7702 H   0  0  0  0  0  0  0  0  0  0  0  0
   -4.0916   -0.3403    7.1633 H   0  0  0  0  0  0  0  0  0  0  0  0
   -2.1668   -2.2225    8.6228 H   0  0  0  0  0  0  0  0  0  0  0  0
   -3.8974   -2.4880    8.4120 H   0  0  0  0  0  0  0  0  0  0  0  0
   -2.8266   -2.4934    7.0092 H   0  0  0  0  0  0  0  0  0  0  0  0
   -0.1213    0.7348    9.0244 H   0  0  0  0  0  0  0  0  0  0  0  0
    0.3305   -0.7371    8.1783 H   0  0  0  0  0  0  0  0  0  0  0  0
    0.9315    2.1024    7.2053 H   0  0  0  0  0  0  0  0  0  0  0  0
    2.1034    0.9973    7.9272 H   0  0  0  0  0  0  0  0  0  0  0  0
    1.3836    0.6228    6.3598 H   0  0  0  0  0  0  0  0  0  0  0  0
   -0.8352   -2.2320    4.7746 H   0  0  0  0  0  0  0  0  0  0  0  0
   -2.6143    3.6503    7.8130 H   0  0  0  0  0  0  0  0  0  0  0  0
   -3.1716    5.8640    7.1258 H   0  0  0  0  0  0  0  0  0  0  0  0
  1  2  2  0  0  0  0
  2  3  1  0  0  0  0
  3  4  2  0  0  0  0
  3  5  1  0  0  0  0
  5  6  2  0  0  0  0
  6  7  1  0  0  0  0
  6  8  1  0  0  0  0
  8  9  1  0  0  0  0
  8 10  2  0  0  0  0
 10 11  1  0  0  0  0
 10 12  1  0  0  0  0
 12 13  1  0  0  0  0
 12 14  2  0  0  0  0
 14 15  1  0  0  0  0
 15 16  2  0  0  0  0
 16 17  1  0  0  0  0
 17 18  3  0  0  0  0
 16 19  1  0  0  0  0
 19 20  3  0  0  0  0
  1 21  1  0  0  0  0
 21 22  1  0  0  0  0
 22 23  1  0  0  0  0
 23 24  1  0  0  0  0
 24 25  2  0  0  0  0
 25 26  1  0  0  0  0
 26 27  1  0  0  0  0
 27 28  1  0  0  0  0
 26 29  1  0  0  0  0
 29 30  1  0  0  0  0
 26 31  1  0  0  0  0
 31 32  1  0  0  0  0
 25 33  1  0  0  0  0
 33 34  2  0  0  0  0
 34 35  1  0  0  0  0
 34 36  1  0  0  0  0
 36 37  2  0  0  0  0
 37 38  1  0  0  0  0
 38 39  2  0  0  0  0
 39 40  1  0  0  0  0
 39 41  1  0  0  0  0
 41 42  1  0  0  0  0
 42 43  1  0  0  0  0
 43 44  1  0  0  0  0
 44 45  2  0  0  0  0
 45 46  1  0  0  0  0
 46 47  1  0  0  0  0
 47 48  1  0  0  0  0
 46 49  1  0  0  0  0
 49 50  1  0  0  0  0
 46 51  1  0  0  0  0
 51 52  1  0  0  0  0
 45 53  1  0  0  0  0
 53 54  2  0  0  0  0
 54 55  1  0  0  0  0
 54 56  1  0  0  0  0
 56 57  2  0  0  0  0
 57 58  1  0  0  0  0
 58 59  2  0  0  0  0
 58 60  1  0  0  0  0
 60 61  2  0  0  0  0
 61 62  1  0  0  0  0
 61 63  1  0  0  0  0
 63 64  1  0  0  0  0
 63 65  2  0  0  0  0
 65 66  1  0  0  0  0
 65 67  1  0  0  0  0
 67 68  1  0  0  0  0
 67 69  2  0  0  0  0
 69 70  1  0  0  0  0
 70 71  2  0  0  0  0
 71 72  1  0  0  0  0
 72 73  3  0  0  0  0
 71 74  1  0  0  0  0
 74 75  3  0  0  0  0
 15  2  1  0  0  0  0
 32 21  2  0  0  0  0
 40 36  1  0  0  0  0
 52 41  2  0  0  0  0
 70 57  1  0  0  0  0
 14  5  1  0  0  0  0
 31 23  2  0  0  0  0
 51 43  2  0  0  0  0
 69 60  1  0  0  0  0
 35 24  1  0  0  0  0
 55 44  1  0  0  0  0
  1 76  1  0  0  0  0
 27 77  1  0  0  0  0
 27 78  1  0  0  0  0
 28 79  1  0  0  0  0
 28 80  1  0  0  0  0
 28 81  1  0  0  0  0
 29 82  1  0  0  0  0
 29 83  1  0  0  0  0
 30 84  1  0  0  0  0
 30 85  1  0  0  0  0
 30 86  1  0  0  0  0
 32 87  1  0  0  0  0
 33 88  1  0  0  0  0
 37 89  1  0  0  0  0
 47 90  1  0  0  0  0
 47 91  1  0  0  0  0
 48 92  1  0  0  0  0
 48 93  1  0  0  0  0
 48 94  1  0  0  0  0
 49 95  1  0  0  0  0
 49 96  1  0  0  0  0
 50 97  1  0  0  0  0
 50 98  1  0  0  0  0
 50 99  1  0  0  0  0
 52100  1  0  0  0  0
 53101  1  0  0  0  0
 56102  1  0  0  0  0
M  END
