
  xtb     02042203573D
 energy: -304.763426533151 gnorm: 0.000854360924 xtb: 6.4.1 (unknown)
155169  0     0  0            999 V2000
    4.8832   -3.3149    3.7595 C   0  0  0  0  0  0  0  0  0  0  0  0
    5.5477   -3.2317    4.9583 C   0  0  0  0  0  0  0  0  0  0  0  0
    5.4831   -2.1671    5.9734 C   0  0  0  0  0  0  0  0  0  0  0  0
    4.7288   -1.2217    6.0384 O   0  0  0  0  0  0  0  0  0  0  0  0
    6.5724   -2.4736    6.9360 C   0  0  0  0  0  0  0  0  0  0  0  0
    7.0124   -1.7150    8.0053 C   0  0  0  0  0  0  0  0  0  0  0  0
    6.1986   -0.2950    8.4883 Cl  0  0  0  0  0  0  0  0  0  0  0  0
    8.1626   -2.1358    8.6887 C   0  0  0  0  0  0  0  0  0  0  0  0
    8.7247   -1.2505   10.0389 Cl  0  0  0  0  0  0  0  0  0  0  0  0
    8.8738   -3.2464    8.2396 C   0  0  0  0  0  0  0  0  0  0  0  0
   10.3318   -3.6790    9.0230 Cl  0  0  0  0  0  0  0  0  0  0  0  0
    8.4263   -4.0072    7.1469 C   0  0  0  0  0  0  0  0  0  0  0  0
    9.4542   -5.2394    6.5422 Cl  0  0  0  0  0  0  0  0  0  0  0  0
    7.2249   -3.6585    6.5427 C   0  0  0  0  0  0  0  0  0  0  0  0
    6.4783   -4.2405    5.4301 C   0  0  0  0  0  0  0  0  0  0  0  0
    6.5064   -5.5573    5.0420 C   0  0  0  0  0  0  0  0  0  0  0  0
    5.8073   -6.1100    3.9492 C   0  0  0  0  0  0  0  0  0  0  0  0
    5.3072   -6.6664    3.0762 N   0  0  0  0  0  0  0  0  0  0  0  0
    7.0997   -6.6114    5.7712 C   0  0  0  0  0  0  0  0  0  0  0  0
    7.4432   -7.5486    6.3380 N   0  0  0  0  0  0  0  0  0  0  0  0
    3.9528   -2.4708    3.1397 C   0  0  0  0  0  0  0  0  0  0  0  0
    3.3089   -1.2954    3.5008 C   0  0  0  0  0  0  0  0  0  0  0  0
    2.4536   -0.7994    2.5249 C   0  0  0  0  0  0  0  0  0  0  0  0
    1.6013    0.3766    2.7578 C   0  0  0  0  0  0  0  0  0  0  0  0
    0.2040    0.2543    2.7198 C   0  0  0  0  0  0  0  0  0  0  0  0
   -0.2671   -0.9777    2.3735 O   0  0  0  0  0  0  0  0  0  0  0  0
   -1.6613   -1.2211    2.3864 C   0  0  0  0  0  0  0  0  0  0  0  0
   -2.3664   -0.7076    1.1347 C   0  0  0  0  0  0  0  0  0  0  0  0
   -0.5845    1.3510    3.0432 C   0  0  0  0  0  0  0  0  0  0  0  0
    0.0145    2.5446    3.3988 C   0  0  0  0  0  0  0  0  0  0  0  0
    1.3882    2.6835    3.4277 C   0  0  0  0  0  0  0  0  0  0  0  0
    2.1961    1.5956    3.1128 C   0  0  0  0  0  0  0  0  0  0  0  0
    3.5530    1.5922    3.1126 O   0  0  0  0  0  0  0  0  0  0  0  0
    4.2643    2.7773    3.4095 C   0  0  0  0  0  0  0  0  0  0  0  0
    4.3117    3.7426    2.2286 C   0  0  0  0  0  0  0  0  0  0  0  0
    2.4295   -1.5850    1.3620 C   0  0  0  0  0  0  0  0  0  0  0  0
    3.4428   -2.9717    1.5386 S   0  0  0  0  0  0  0  0  0  0  0  0
    1.7055   -1.2966    0.1780 C   0  0  0  0  0  0  0  0  0  0  0  0
    1.1443   -2.1571   -0.7706 C   0  0  0  0  0  0  0  0  0  0  0  0
    1.2265   -3.5389   -0.8150 N   0  0  0  0  0  0  0  0  0  0  0  0
    2.4503   -4.2095   -0.8725 C   0  0  0  0  0  0  0  0  0  0  0  0
    2.5414   -5.5212   -0.4103 C   0  0  0  0  0  0  0  0  0  0  0  0
    3.7541   -6.1764   -0.3927 C   0  0  0  0  0  0  0  0  0  0  0  0
    4.8997   -5.5347   -0.8518 C   0  0  0  0  0  0  0  0  0  0  0  0
    6.5036   -6.2616   -0.8442 S   0  0  0  0  0  0  0  0  0  0  0  0
    6.2891   -7.7844    0.1184 C   0  0  0  0  0  0  0  0  0  0  0  0
    4.8027   -4.2415   -1.3615 C   0  0  0  0  0  0  0  0  0  0  0  0
    3.5934   -3.5823   -1.3721 C   0  0  0  0  0  0  0  0  0  0  0  0
    0.0337   -4.1945   -1.1777 C   0  0  0  0  0  0  0  0  0  0  0  0
   -1.1306   -3.8954   -0.4714 C   0  0  0  0  0  0  0  0  0  0  0  0
   -2.3463   -4.3792   -0.8970 C   0  0  0  0  0  0  0  0  0  0  0  0
   -2.4165   -5.1833   -2.0315 C   0  0  0  0  0  0  0  0  0  0  0  0
   -4.0250   -5.6844   -2.5595 S   0  0  0  0  0  0  0  0  0  0  0  0
   -3.7730   -6.0435   -4.3227 C   0  0  0  0  0  0  0  0  0  0  0  0
   -1.2486   -5.5550   -2.6849 C   0  0  0  0  0  0  0  0  0  0  0  0
   -0.0295   -5.0608   -2.2637 C   0  0  0  0  0  0  0  0  0  0  0  0
    0.3456   -1.4371   -1.6878 C   0  0  0  0  0  0  0  0  0  0  0  0
   -0.7156   -1.8937   -2.9730 S   0  0  0  0  0  0  0  0  0  0  0  0
   -1.0928   -0.2190   -3.2975 C   0  0  0  0  0  0  0  0  0  0  0  0
   -0.3801    0.6559   -2.4696 C   0  0  0  0  0  0  0  0  0  0  0  0
   -0.4954    2.0490   -2.4251 N   0  0  0  0  0  0  0  0  0  0  0  0
    0.2310    2.8612   -3.2802 C   0  0  0  0  0  0  0  0  0  0  0  0
    1.2738    2.3333   -4.0465 C   0  0  0  0  0  0  0  0  0  0  0  0
    1.9705    3.1350   -4.9187 C   0  0  0  0  0  0  0  0  0  0  0  0
    1.6553    4.4871   -5.0486 C   0  0  0  0  0  0  0  0  0  0  0  0
    2.6178    5.4093   -6.2042 S   0  0  0  0  0  0  0  0  0  0  0  0
    1.9504    7.0934   -6.0915 C   0  0  0  0  0  0  0  0  0  0  0  0
    0.6253    5.0197   -4.2854 C   0  0  0  0  0  0  0  0  0  0  0  0
   -0.0812    4.2145   -3.4148 C   0  0  0  0  0  0  0  0  0  0  0  0
   -1.1825    2.5527   -1.3049 C   0  0  0  0  0  0  0  0  0  0  0  0
   -2.4575    2.0723   -1.0220 C   0  0  0  0  0  0  0  0  0  0  0  0
   -3.1582    2.5334    0.0757 C   0  0  0  0  0  0  0  0  0  0  0  0
   -2.5827    3.4741    0.9194 C   0  0  0  0  0  0  0  0  0  0  0  0
   -3.3615    4.1004    2.3702 S   0  0  0  0  0  0  0  0  0  0  0  0
   -4.9812    3.2825    2.3872 C   0  0  0  0  0  0  0  0  0  0  0  0
   -1.3028    3.9563    0.6386 C   0  0  0  0  0  0  0  0  0  0  0  0
   -0.6083    3.5023   -0.4586 C   0  0  0  0  0  0  0  0  0  0  0  0
    0.3777   -0.0594   -1.5237 C   0  0  0  0  0  0  0  0  0  0  0  0
    1.3546    0.3951   -0.1735 S   0  0  0  0  0  0  0  0  0  0  0  0
   -2.2666    0.0802   -4.0407 C   0  0  0  0  0  0  0  0  0  0  0  0
   -2.5246    1.3055   -4.6917 C   0  0  0  0  0  0  0  0  0  0  0  0
   -3.8699    1.7674   -4.9751 C   0  0  0  0  0  0  0  0  0  0  0  0
   -3.8642    2.9708   -5.5427 N   0  0  0  0  0  0  0  0  0  0  0  0
   -2.3406    3.4516   -5.7457 S   0  0  0  0  0  4  0  0  0  0  0  0
   -1.6100    2.1807   -5.0970 N   0  0  0  0  0  0  0  0  0  0  0  0
   -5.0057    1.0487   -4.5386 C   0  0  0  0  0  0  0  0  0  0  0  0
   -4.7369   -0.2770   -4.1181 C   0  0  0  0  0  0  0  0  0  0  0  0
   -5.6414   -1.2152   -3.8580 N   0  0  0  0  0  0  0  0  0  0  0  0
   -4.8964   -2.5675   -3.4148 S   0  0  0  0  0  0  0  0  0  0  0  0
   -3.3808   -2.0430   -3.5357 N   0  0  0  0  0  0  0  0  0  0  0  0
   -3.3917   -0.7730   -3.9353 C   0  0  0  0  0  0  0  0  0  0  0  0
   -6.2855    1.6378   -4.4633 C   0  0  0  0  0  0  0  0  0  0  0  0
   -7.1559    1.3748   -3.4303 C   0  0  0  0  0  0  0  0  0  0  0  0
   -6.6830    0.9327   -2.1107 C   0  0  0  0  0  0  0  0  0  0  0  0
   -5.5501    0.6721   -1.7564 O   0  0  0  0  0  0  0  0  0  0  0  0
   -7.8706    1.0006   -1.2263 C   0  0  0  0  0  0  0  0  0  0  0  0
   -7.9638    0.6437    0.1049 C   0  0  0  0  0  0  0  0  0  0  0  0
   -6.5866    0.1724    0.9952 Cl  0  0  0  0  0  0  0  0  0  0  0  0
   -9.2226    0.6611    0.7166 C   0  0  0  0  0  0  0  0  0  0  0  0
   -9.3795    0.2614    2.3741 Cl  0  0  0  0  0  0  0  0  0  0  0  0
  -10.3522    0.9634   -0.0406 C   0  0  0  0  0  0  0  0  0  0  0  0
  -11.8942    0.8850    0.6971 Cl  0  0  0  0  0  0  0  0  0  0  0  0
  -10.2535    1.3208   -1.3967 C   0  0  0  0  0  0  0  0  0  0  0  0
  -11.7093    1.5116   -2.2824 Cl  0  0  0  0  0  0  0  0  0  0  0  0
   -8.9913    1.4192   -1.9721 C   0  0  0  0  0  0  0  0  0  0  0  0
   -8.5346    1.7882   -3.3125 C   0  0  0  0  0  0  0  0  0  0  0  0
   -9.2334    2.4793   -4.2732 C   0  0  0  0  0  0  0  0  0  0  0  0
   -8.8029    2.6276   -5.6100 C   0  0  0  0  0  0  0  0  0  0  0  0
   -8.5745    2.7481   -6.7291 N   0  0  0  0  0  0  0  0  0  0  0  0
  -10.3939    3.2530   -4.0682 C   0  0  0  0  0  0  0  0  0  0  0  0
  -11.2532    4.0101   -3.9843 N   0  0  0  0  0  0  0  0  0  0  0  0
    5.1415   -4.1692    3.1442 H   0  0  0  0  0  0  0  0  0  0  0  0
    3.4571   -0.8214    4.4532 H   0  0  0  0  0  0  0  0  0  0  0  0
   -2.1150   -0.7958    3.2890 H   0  0  0  0  0  0  0  0  0  0  0  0
   -1.7471   -2.3106    2.4481 H   0  0  0  0  0  0  0  0  0  0  0  0
   -3.4295   -0.9235    1.1961 H   0  0  0  0  0  0  0  0  0  0  0  0
   -1.9671   -1.1861    0.2436 H   0  0  0  0  0  0  0  0  0  0  0  0
   -2.2296    0.3650    1.0280 H   0  0  0  0  0  0  0  0  0  0  0  0
   -1.6595    1.2918    3.0349 H   0  0  0  0  0  0  0  0  0  0  0  0
   -0.6110    3.3852    3.6580 H   0  0  0  0  0  0  0  0  0  0  0  0
    1.8135    3.6322    3.7098 H   0  0  0  0  0  0  0  0  0  0  0  0
    5.2740    2.4309    3.6469 H   0  0  0  0  0  0  0  0  0  0  0  0
    3.8509    3.2649    4.3001 H   0  0  0  0  0  0  0  0  0  0  0  0
    3.3119    4.0676    1.9513 H   0  0  0  0  0  0  0  0  0  0  0  0
    4.7616    3.2511    1.3697 H   0  0  0  0  0  0  0  0  0  0  0  0
    4.9074    4.6126    2.4905 H   0  0  0  0  0  0  0  0  0  0  0  0
    1.6558   -6.0149   -0.0397 H   0  0  0  0  0  0  0  0  0  0  0  0
    3.7987   -7.1800   -0.0043 H   0  0  0  0  0  0  0  0  0  0  0  0
    7.2870   -8.1956    0.2374 H   0  0  0  0  0  0  0  0  0  0  0  0
    5.6669   -8.4872   -0.4282 H   0  0  0  0  0  0  0  0  0  0  0  0
    5.8681   -7.5437    1.0908 H   0  0  0  0  0  0  0  0  0  0  0  0
    5.6900   -3.7583   -1.7403 H   0  0  0  0  0  0  0  0  0  0  0  0
    3.5264   -2.5768   -1.7603 H   0  0  0  0  0  0  0  0  0  0  0  0
   -1.0620   -3.2623    0.3991 H   0  0  0  0  0  0  0  0  0  0  0  0
   -3.2533   -4.1284   -0.3693 H   0  0  0  0  0  0  0  0  0  0  0  0
   -3.2037   -5.2353   -4.7713 H   0  0  0  0  0  0  0  0  0  0  0  0
   -4.7647   -6.0932   -4.7613 H   0  0  0  0  0  0  0  0  0  0  0  0
   -3.2712   -6.9985   -4.4485 H   0  0  0  0  0  0  0  0  0  0  0  0
   -1.2789   -6.2125   -3.5385 H   0  0  0  0  0  0  0  0  0  0  0  0
    0.8740   -5.3216   -2.7942 H   0  0  0  0  0  0  0  0  0  0  0  0
    1.5281    1.2887   -3.9547 H   0  0  0  0  0  0  0  0  0  0  0  0
    2.7753    2.7264   -5.5101 H   0  0  0  0  0  0  0  0  0  0  0  0
    0.9069    7.1016   -6.3925 H   0  0  0  0  0  0  0  0  0  0  0  0
    2.5380    7.6867   -6.7851 H   0  0  0  0  0  0  0  0  0  0  0  0
    2.0751    7.4760   -5.0828 H   0  0  0  0  0  0  0  0  0  0  0  0
    0.3511    6.0592   -4.3653 H   0  0  0  0  0  0  0  0  0  0  0  0
   -0.8949    4.6361   -2.8437 H   0  0  0  0  0  0  0  0  0  0  0  0
   -2.9225    1.3393   -1.6631 H   0  0  0  0  0  0  0  0  0  0  0  0
   -4.1472    2.1417    0.2469 H   0  0  0  0  0  0  0  0  0  0  0  0
   -4.8580    2.2068    2.4694 H   0  0  0  0  0  0  0  0  0  0  0  0
   -5.5394    3.5461    1.4936 H   0  0  0  0  0  0  0  0  0  0  0  0
   -5.4918    3.6634    3.2663 H   0  0  0  0  0  0  0  0  0  0  0  0
   -0.8602    4.6850    1.2994 H   0  0  0  0  0  0  0  0  0  0  0  0
    0.3867    3.8666   -0.6639 H   0  0  0  0  0  0  0  0  0  0  0  0
   -6.5235    2.3819   -5.2117 H   0  0  0  0  0  0  0  0  0  0  0  0
  1  2  2  0  0  0  0
  2  3  1  0  0  0  0
  3  4  2  0  0  0  0
  3  5  1  0  0  0  0
  5  6  2  0  0  0  0
  6  7  1  0  0  0  0
  6  8  1  0  0  0  0
  8  9  1  0  0  0  0
  8 10  2  0  0  0  0
 10 11  1  0  0  0  0
 10 12  1  0  0  0  0
 12 13  1  0  0  0  0
 12 14  2  0  0  0  0
 14 15  1  0  0  0  0
 15 16  2  0  0  0  0
 16 17  1  0  0  0  0
 17 18  3  0  0  0  0
 16 19  1  0  0  0  0
 19 20  3  0  0  0  0
  1 21  1  0  0  0  0
 21 22  2  0  0  0  0
 22 23  1  0  0  0  0
 23 24  1  0  0  0  0
 24 25  2  0  0  0  0
 25 26  1  0  0  0  0
 26 27  1  0  0  0  0
 27 28  1  0  0  0  0
 25 29  1  0  0  0  0
 29 30  2  0  0  0  0
 30 31  1  0  0  0  0
 31 32  2  0  0  0  0
 32 33  1  0  0  0  0
 33 34  1  0  0  0  0
 34 35  1  0  0  0  0
 23 36  2  0  0  0  0
 36 37  1  0  0  0  0
 36 38  1  0  0  0  0
 38 39  2  0  0  0  0
 39 40  1  0  0  0  0
 40 41  1  0  0  0  0
 41 42  2  0  0  0  0
 42 43  1  0  0  0  0
 43 44  2  0  0  0  0
 44 45  1  0  0  0  0
 45 46  1  0  0  0  0
 44 47  1  0  0  0  0
 47 48  2  0  0  0  0
 40 49  1  0  0  0  0
 49 50  2  0  0  0  0
 50 51  1  0  0  0  0
 51 52  2  0  0  0  0
 52 53  1  0  0  0  0
 53 54  1  0  0  0  0
 52 55  1  0  0  0  0
 55 56  2  0  0  0  0
 39 57  1  0  0  0  0
 57 58  1  0  0  0  0
 58 59  1  0  0  0  0
 59 60  2  0  0  0  0
 60 61  1  0  0  0  0
 61 62  1  0  0  0  0
 62 63  2  0  0  0  0
 63 64  1  0  0  0  0
 64 65  2  0  0  0  0
 65 66  1  0  0  0  0
 66 67  1  0  0  0  0
 65 68  1  0  0  0  0
 68 69  2  0  0  0  0
 61 70  1  0  0  0  0
 70 71  2  0  0  0  0
 71 72  1  0  0  0  0
 72 73  2  0  0  0  0
 73 74  1  0  0  0  0
 74 75  1  0  0  0  0
 73 76  1  0  0  0  0
 76 77  2  0  0  0  0
 60 78  1  0  0  0  0
 78 79  1  0  0  0  0
 59 80  1  0  0  0  0
 80 81  2  0  0  0  0
 81 82  1  0  0  0  0
 82 83  1  0  0  0  0
 83 84  2  0  0  0  0
 84 85  2  0  0  0  0
 82 86  2  0  0  0  0
 86 87  1  0  0  0  0
 87 88  2  0  0  0  0
 88 89  1  0  0  0  0
 89 90  1  0  0  0  0
 90 91  2  0  0  0  0
 86 92  1  0  0  0  0
 92 93  2  0  0  0  0
 93 94  1  0  0  0  0
 94 95  2  0  0  0  0
 94 96  1  0  0  0  0
 96 97  2  0  0  0  0
 97 98  1  0  0  0  0
 97 99  1  0  0  0  0
 99100  1  0  0  0  0
 99101  2  0  0  0  0
101102  1  0  0  0  0
101103  1  0  0  0  0
103104  1  0  0  0  0
103105  2  0  0  0  0
105106  1  0  0  0  0
106107  2  0  0  0  0
107108  1  0  0  0  0
108109  3  0  0  0  0
107110  1  0  0  0  0
110111  3  0  0  0  0
 15  2  1  0  0  0  0
 37 21  1  0  0  0  0
 79 38  1  0  0  0  0
 91 80  1  0  0  0  0
106 93  1  0  0  0  0
 14  5  1  0  0  0  0
 32 24  1  0  0  0  0
 48 41  1  0  0  0  0
 56 49  1  0  0  0  0
 78 57  2  0  0  0  0
 85 81  1  0  0  0  0
 91 87  1  0  0  0  0
105 96  1  0  0  0  0
 69 62  1  0  0  0  0
 77 70  1  0  0  0  0
  1112  1  0  0  0  0
 22113  1  0  0  0  0
 27114  1  0  0  0  0
 27115  1  0  0  0  0
 28116  1  0  0  0  0
 28117  1  0  0  0  0
 28118  1  0  0  0  0
 29119  1  0  0  0  0
 30120  1  0  0  0  0
 31121  1  0  0  0  0
 34122  1  0  0  0  0
 34123  1  0  0  0  0
 35124  1  0  0  0  0
 35125  1  0  0  0  0
 35126  1  0  0  0  0
 42127  1  0  0  0  0
 43128  1  0  0  0  0
 46129  1  0  0  0  0
 46130  1  0  0  0  0
 46131  1  0  0  0  0
 47132  1  0  0  0  0
 48133  1  0  0  0  0
 50134  1  0  0  0  0
 51135  1  0  0  0  0
 54136  1  0  0  0  0
 54137  1  0  0  0  0
 54138  1  0  0  0  0
 55139  1  0  0  0  0
 56140  1  0  0  0  0
 63141  1  0  0  0  0
 64142  1  0  0  0  0
 67143  1  0  0  0  0
 67144  1  0  0  0  0
 67145  1  0  0  0  0
 68146  1  0  0  0  0
 69147  1  0  0  0  0
 71148  1  0  0  0  0
 72149  1  0  0  0  0
 75150  1  0  0  0  0
 75151  1  0  0  0  0
 75152  1  0  0  0  0
 76153  1  0  0  0  0
 77154  1  0  0  0  0
 92155  1  0  0  0  0
M  END
