140

C         -8.49340       -1.96060       -1.94060
C         -9.23470       -1.40630       -2.95760
C         -9.05520       -0.04860       -3.49240
O         -8.20320        0.76530       -3.21430
C        -10.25980        0.19510       -4.33200
C        -10.61390        1.34770       -5.00800
Cl        -9.55100        2.67860       -5.11340
C        -11.87710        1.40280       -5.61500
Cl       -12.34210        2.79520       -6.49250
C        -12.76730        0.34190       -5.47030
Cl       -14.33850        0.46940       -6.13570
C        -12.40420       -0.82510       -4.77750
Cl       -13.60480       -2.02090       -4.50850
C        -11.11950       -0.92080       -4.26160
C        -10.41690       -1.98370       -3.54540
C        -10.62580       -3.34040       -3.60750
C        -11.55850       -4.03720       -4.40190
N        -12.21460       -4.71690       -5.05460
C         -9.74540       -4.26040       -2.99790
N         -9.05410       -5.07020       -2.56530
C         -7.17410       -1.63350       -1.58430
C         -6.70410       -1.88110       -0.27090
C         -5.33500       -1.66690        0.14230
N         -5.18050       -1.87800        1.45140
S         -6.58760       -2.32900        2.08530
N         -7.47230       -2.26930        0.74350
C         -4.33270       -1.25340       -0.76550
C         -4.82500       -0.92060       -2.05510
N         -4.06620       -0.47510       -3.05490
S         -4.97020       -0.35080       -4.38420
N         -6.34960       -0.88270       -3.76810
C         -6.19080       -1.13370       -2.47140
C         -2.94710       -1.16120       -0.50070
C         -2.14640       -1.72370        0.51260
N         -2.46750       -2.65250        1.47310
C         -3.38080       -3.67910        1.31990
C         -3.75750       -4.14200        0.05470
C         -4.74980       -5.08710       -0.08880
C         -5.37060       -5.62690        1.03490
S         -6.68370       -6.78510        0.98510
C         -7.08950       -6.95290       -0.77310
C         -4.92590       -5.24040        2.30420
C         -3.94570       -4.29080        2.44780
C         -1.82530       -2.44640        2.72000
C         -1.97790       -1.21300        3.35180
C         -1.30820       -0.95220        4.52420
C         -0.45720       -1.90930        5.07780
S          0.36610       -1.46910        6.56380
C          1.80770       -2.56890        6.58110
C         -0.32550       -3.14860        4.45900
C         -1.01110       -3.41820        3.29080
C         -0.81980       -1.23310        0.42170
S          0.61780       -1.51630        1.34720
C          1.53850       -0.49350        0.25970
C          0.73670        0.10690       -0.71710
N          1.11600        1.12380       -1.56270
C          2.09970        2.05090       -1.20560
C          2.98390        2.54880       -2.16380
C          4.02370        3.37430       -1.79060
C          4.19090        3.73770       -0.45770
S          5.59050        4.73470       -0.03520
C          4.93040        5.75230        1.31770
C          3.27600        3.29840        0.49210
C          2.23950        2.47040        0.11820
C          0.46810        1.20900       -2.80700
C          0.25770        0.05290       -3.55250
C         -0.46640        0.09680       -4.72660
C         -0.99160        1.30340       -5.17050
S         -1.98980        1.46950       -6.61120
C         -2.33390       -0.24580       -7.09560
C         -0.72930        2.47220       -4.45500
C         -0.00590        2.42950       -3.28510
C         -0.59390       -0.36560       -0.63210
S         -2.01160       -0.14870       -1.59940
C          2.94800       -0.31790        0.39480
C          3.63780       -0.24440        1.61270
C          3.01560       -0.58980        2.83130
N          2.54920       -0.90240        3.83190
C          4.97000        0.23150        1.68960
C          5.58990        0.22870        2.96220
N          6.11390        0.14100        3.97760
C          5.69470        0.62130        0.56090
C          5.10700        0.29150       -0.68760
C          3.75160       -0.16730       -0.76940
N          3.40280       -0.46450       -2.01920
S          4.64970       -0.17240       -2.99210
N          5.68670        0.35110       -1.88240
C          6.97570        1.25700        0.56310
C          7.41400        2.19870        1.43790
C          6.57260        2.94240        2.41210
O          5.39850        2.77210        2.67490
C          7.43610        4.01080        2.94300
C          7.12650        4.97080        3.88820
C          8.08310        5.91290        4.24630
C          7.82060        6.97370        5.26360
C          9.32810        5.83910        3.61610
F         10.25500        6.75540        3.94690
C          9.66870        4.88080        2.67620
C          8.70270        3.94550        2.33830
C          8.73520        2.80910        1.42720
C          9.83340        2.35440        0.75200
C          9.87610        1.18890       -0.04470
N         10.00480        0.24710       -0.68810
C         11.09790        2.98220        0.79050
N         12.14550        3.44970        0.77670
H         -8.96640       -2.69570       -1.29990
H         -3.27790       -3.74360       -0.82630
H         -5.03910       -5.39440       -1.08090
H         -7.42350       -6.00290       -1.17940
H         -6.23590       -7.34750       -1.31610
H         -7.90750       -7.66560       -0.81240
H         -5.38260       -5.68750        3.17350
H         -3.64820       -3.96990        3.43330
H         -2.62680       -0.47280        2.90810
H         -1.42100       -0.00140        5.02120
H          2.30670       -2.49410        5.62000
H          2.45580       -2.19090        7.36560
H          1.51090       -3.58820        6.81030
H          0.31540       -3.90720        4.87740
H         -0.90290       -4.37700        2.80580
H          2.86070        2.26380       -3.19850
H          4.72510        3.73360       -2.52750
H          5.67820        6.51490        1.51090
H          4.00020        6.20930        0.99460
H          4.78130        5.14400        2.20390
H          3.37950        3.57350        1.52840
H          1.53420        2.13440        0.86410
H          0.67030       -0.88120       -3.20250
H         -0.61520       -0.81460       -5.28120
H         -3.07570       -0.18410       -7.88570
H         -1.43210       -0.71650       -7.47670
H         -2.74000       -0.78890       -6.24720
H         -1.12200        3.40860       -4.82000
H          0.17430        3.33210       -2.72070
H          7.58880        1.00740       -0.29400
H          6.15220        4.97710        4.35330
H          8.50200        6.86010        6.10620
H          6.79800        6.92000        5.62540
H          7.99960        7.95940        4.83540
H         10.65490        4.89350        2.24250
