
  xtb     02112214183D
 energy: -234.273853993595 gnorm: 0.000646676912 xtb: 6.4.1 (unknown)
123134  0     0  0            999 V2000
   -4.9834    3.5146   -3.8592 C   0  0  0  0  0  0  0  0  0  0  0  0
   -3.9531    3.5118   -4.7682 C   0  0  0  0  0  0  0  0  0  0  0  0
   -2.8510    2.5322   -4.8305 C   0  0  0  0  0  0  0  0  0  0  0  0
   -2.7590    1.4631   -4.2712 O   0  0  0  0  0  0  0  0  0  0  0  0
   -1.9061    3.0737   -5.8467 C   0  0  0  0  0  0  0  0  0  0  0  0
   -0.6355    2.6307   -6.1635 C   0  0  0  0  0  0  0  0  0  0  0  0
    0.0112    1.1976   -5.4832 Cl  0  0  0  0  0  0  0  0  0  0  0  0
    0.1392    3.4045   -7.0391 C   0  0  0  0  0  0  0  0  0  0  0  0
    1.7140    2.8910   -7.4620 Cl  0  0  0  0  0  0  0  0  0  0  0  0
   -0.3543    4.6134   -7.5240 C   0  0  0  0  0  0  0  0  0  0  0  0
    0.6458    5.5880   -8.5156 Cl  0  0  0  0  0  0  0  0  0  0  0  0
   -1.6475    5.0555   -7.2013 C   0  0  0  0  0  0  0  0  0  0  0  0
   -2.1089    6.6342   -7.7026 Cl  0  0  0  0  0  0  0  0  0  0  0  0
   -2.4513    4.2429   -6.4107 C   0  0  0  0  0  0  0  0  0  0  0  0
   -3.8157    4.4008   -5.9034 C   0  0  0  0  0  0  0  0  0  0  0  0
   -4.8175    5.1281   -6.4968 C   0  0  0  0  0  0  0  0  0  0  0  0
   -6.1137    5.3032   -5.9670 C   0  0  0  0  0  0  0  0  0  0  0  0
   -7.1808    5.5238   -5.6037 N   0  0  0  0  0  0  0  0  0  0  0  0
   -4.7724    5.6639   -7.8018 C   0  0  0  0  0  0  0  0  0  0  0  0
   -4.8722    6.0366   -8.8829 N   0  0  0  0  0  0  0  0  0  0  0  0
   -5.0296    2.7978   -2.6547 C   0  0  0  0  0  0  0  0  0  0  0  0
   -6.1022    2.5987   -1.7773 C   0  0  0  0  0  0  0  0  0  0  0  0
   -5.6224    1.8408   -0.7217 C   0  0  0  0  0  0  0  0  0  0  0  0
   -4.2632    1.6362   -0.9758 C   0  0  0  0  0  0  0  0  0  0  0  0
   -3.9292    2.2037   -2.1408 O   0  0  0  0  0  0  0  0  0  0  0  0
   -3.2698    0.9693   -0.2243 C   0  0  0  0  0  0  0  0  0  0  0  0
   -1.8884    0.9732   -0.4420 C   0  0  0  0  0  0  0  0  0  0  0  0
   -1.1732    1.7619   -1.3100 N   0  0  0  0  0  0  0  0  0  0  0  0
   -0.0383    1.1594   -1.8979 C   0  0  0  0  0  0  0  0  0  0  0  0
   -0.1676   -0.0952   -2.4928 C   0  0  0  0  0  0  0  0  0  0  0  0
    0.9337   -0.7190   -3.0310 C   0  0  0  0  0  0  0  0  0  0  0  0
    2.1866   -0.1050   -2.9883 C   0  0  0  0  0  0  0  0  0  0  0  0
    3.5144   -0.9980   -3.7158 S   0  0  0  0  0  0  0  0  0  0  0  0
    4.9641    0.0566   -3.4449 C   0  0  0  0  0  0  0  0  0  0  0  0
    2.3140    1.1491   -2.4022 C   0  0  0  0  0  0  0  0  0  0  0  0
    1.2077    1.7754   -1.8621 C   0  0  0  0  0  0  0  0  0  0  0  0
   -1.4905    3.0898   -1.5789 C   0  0  0  0  0  0  0  0  0  0  0  0
   -2.2258    3.8593   -0.6717 C   0  0  0  0  0  0  0  0  0  0  0  0
   -2.6009    5.1426   -0.9906 C   0  0  0  0  0  0  0  0  0  0  0  0
   -2.2354    5.7090   -2.2121 C   0  0  0  0  0  0  0  0  0  0  0  0
   -2.8353    7.3343   -2.5329 S   0  0  0  0  0  0  0  0  0  0  0  0
   -2.2902    7.6807   -4.2273 C   0  0  0  0  0  0  0  0  0  0  0  0
   -1.4356    4.9805   -3.0814 C   0  0  0  0  0  0  0  0  0  0  0  0
   -1.0712    3.6860   -2.7671 C   0  0  0  0  0  0  0  0  0  0  0  0
   -1.2569    0.0365    0.4121 C   0  0  0  0  0  0  0  0  0  0  0  0
    0.3911   -0.4084    0.6485 S   0  0  0  0  0  0  0  0  0  0  0  0
   -0.0794   -1.5002    1.9464 C   0  0  0  0  0  0  0  0  0  0  0  0
   -1.4492   -1.4731    2.2109 C   0  0  0  0  0  0  0  0  0  0  0  0
   -2.1069   -2.1497    3.2141 N   0  0  0  0  0  0  0  0  0  0  0  0
   -3.4290   -2.5680    2.9785 C   0  0  0  0  0  0  0  0  0  0  0  0
   -4.4187   -2.3952    3.9459 C   0  0  0  0  0  0  0  0  0  0  0  0
   -5.7087   -2.8015    3.6938 C   0  0  0  0  0  0  0  0  0  0  0  0
   -6.0449   -3.3827    2.4708 C   0  0  0  0  0  0  0  0  0  0  0  0
   -7.7309   -3.8526    2.2657 S   0  0  0  0  0  0  0  0  0  0  0  0
   -7.8148   -4.4583    0.5566 C   0  0  0  0  0  0  0  0  0  0  0  0
   -5.0607   -3.5604    1.5078 C   0  0  0  0  0  0  0  0  0  0  0  0
   -3.7643   -3.1587    1.7638 C   0  0  0  0  0  0  0  0  0  0  0  0
   -1.5438   -2.3038    4.4875 C   0  0  0  0  0  0  0  0  0  0  0  0
   -1.8381   -3.4334    5.2479 C   0  0  0  0  0  0  0  0  0  0  0  0
   -1.2808   -3.6086    6.4996 C   0  0  0  0  0  0  0  0  0  0  0  0
   -0.4100   -2.6563    7.0137 C   0  0  0  0  0  0  0  0  0  0  0  0
    0.3751   -2.7710    8.5869 S   0  0  0  0  0  0  0  0  0  0  0  0
   -0.1708   -4.3760    9.2357 C   0  0  0  0  0  0  0  0  0  0  0  0
   -0.1224   -1.5193    6.2593 C   0  0  0  0  0  0  0  0  0  0  0  0
   -0.6828   -1.3412    5.0153 C   0  0  0  0  0  0  0  0  0  0  0  0
   -2.1043   -0.6071    1.2994 C   0  0  0  0  0  0  0  0  0  0  0  0
   -3.7481   -0.0954    1.0920 S   0  0  0  0  0  0  0  0  0  0  0  0
    0.9986   -2.2507    2.4794 C   0  0  0  0  0  0  0  0  0  0  0  0
    1.1254   -3.3504    3.3254 C   0  0  0  0  0  0  0  0  0  0  0  0
    2.4810   -3.6523    3.3841 C   0  0  0  0  0  0  0  0  0  0  0  0
    3.1408   -2.7355    2.5665 C   0  0  0  0  0  0  0  0  0  0  0  0
    2.2127   -1.8924    2.0292 O   0  0  0  0  0  0  0  0  0  0  0  0
    4.4602   -2.4881    2.1536 C   0  0  0  0  0  0  0  0  0  0  0  0
    5.6461   -3.0912    2.4785 C   0  0  0  0  0  0  0  0  0  0  0  0
    5.8645   -4.2065    3.4355 C   0  0  0  0  0  0  0  0  0  0  0  0
    5.0385   -4.8089    4.0878 O   0  0  0  0  0  0  0  0  0  0  0  0
    7.3177   -4.4323    3.4301 C   0  0  0  0  0  0  0  0  0  0  0  0
    8.1983   -5.2584    4.0473 C   0  0  0  0  0  0  0  0  0  0  0  0
    9.8106   -4.9340    3.5231 S   0  0  0  0  0  0  0  0  0  0  0  0
    9.2923   -3.6761    2.4629 C   0  0  0  0  0  0  0  0  0  0  0  0
    7.9411   -3.5211    2.5187 C   0  0  0  0  0  0  0  0  0  0  0  0
    6.9217   -2.6874    1.9139 C   0  0  0  0  0  0  0  0  0  0  0  0
    7.1828   -1.7194    0.9748 C   0  0  0  0  0  0  0  0  0  0  0  0
    8.4995   -1.4686    0.5357 C   0  0  0  0  0  0  0  0  0  0  0  0
    9.5609   -1.2450    0.1602 N   0  0  0  0  0  0  0  0  0  0  0  0
    6.2577   -0.8791    0.3325 C   0  0  0  0  0  0  0  0  0  0  0  0
    5.5868   -0.1455   -0.2464 N   0  0  0  0  0  0  0  0  0  0  0  0
   -5.8397    4.1495   -4.0353 H   0  0  0  0  0  0  0  0  0  0  0  0
   -7.0997    2.9622   -1.9195 H   0  0  0  0  0  0  0  0  0  0  0  0
   -6.1579    1.4858    0.1354 H   0  0  0  0  0  0  0  0  0  0  0  0
   -1.1419   -0.5571   -2.5449 H   0  0  0  0  0  0  0  0  0  0  0  0
    0.8406   -1.6864   -3.5006 H   0  0  0  0  0  0  0  0  0  0  0  0
    4.8236    1.0130   -3.9395 H   0  0  0  0  0  0  0  0  0  0  0  0
    5.1399    0.1724   -2.3784 H   0  0  0  0  0  0  0  0  0  0  0  0
    5.7961   -0.4724   -3.9000 H   0  0  0  0  0  0  0  0  0  0  0  0
    3.2711    1.6400   -2.3456 H   0  0  0  0  0  0  0  0  0  0  0  0
    1.3107    2.7454   -1.3983 H   0  0  0  0  0  0  0  0  0  0  0  0
   -2.5100    3.4441    0.2835 H   0  0  0  0  0  0  0  0  0  0  0  0
   -3.1861    5.7271   -0.2973 H   0  0  0  0  0  0  0  0  0  0  0  0
   -2.6973    6.9376   -4.9057 H   0  0  0  0  0  0  0  0  0  0  0  0
   -1.2056    7.7074   -4.2772 H   0  0  0  0  0  0  0  0  0  0  0  0
   -2.6926    8.6596   -4.4687 H   0  0  0  0  0  0  0  0  0  0  0  0
   -1.0980    5.4002   -4.0160 H   0  0  0  0  0  0  0  0  0  0  0  0
   -0.4555    3.1270   -3.4525 H   0  0  0  0  0  0  0  0  0  0  0  0
   -4.1693   -1.9336    4.8892 H   0  0  0  0  0  0  0  0  0  0  0  0
   -6.4786   -2.6648    4.4373 H   0  0  0  0  0  0  0  0  0  0  0  0
   -7.2008   -5.3472    0.4443 H   0  0  0  0  0  0  0  0  0  0  0  0
   -8.8574   -4.7091    0.3879 H   0  0  0  0  0  0  0  0  0  0  0  0
   -7.5083   -3.6741   -0.1292 H   0  0  0  0  0  0  0  0  0  0  0  0
   -5.2848   -4.0154    0.5570 H   0  0  0  0  0  0  0  0  0  0  0  0
   -3.0001   -3.3087    1.0152 H   0  0  0  0  0  0  0  0  0  0  0  0
   -2.5046   -4.1848    4.8506 H   0  0  0  0  0  0  0  0  0  0  0  0
   -1.5292   -4.4967    7.0573 H   0  0  0  0  0  0  0  0  0  0  0  0
    0.1493   -5.1730    8.5712 H   0  0  0  0  0  0  0  0  0  0  0  0
    0.3189   -4.4813   10.1988 H   0  0  0  0  0  0  0  0  0  0  0  0
   -1.2486   -4.3781    9.3697 H   0  0  0  0  0  0  0  0  0  0  0  0
    0.5434   -0.7750    6.6678 H   0  0  0  0  0  0  0  0  0  0  0  0
   -0.4617   -0.4496    4.4491 H   0  0  0  0  0  0  0  0  0  0  0  0
    0.3333   -3.8711    3.8204 H   0  0  0  0  0  0  0  0  0  0  0  0
    2.9494   -4.4382    3.9392 H   0  0  0  0  0  0  0  0  0  0  0  0
    4.5085   -1.6637    1.4511 H   0  0  0  0  0  0  0  0  0  0  0  0
    8.0120   -6.0285    4.7686 H   0  0  0  0  0  0  0  0  0  0  0  0
   10.0199   -3.1466    1.8814 H   0  0  0  0  0  0  0  0  0  0  0  0
  1  2  2  0  0  0  0
  2  3  1  0  0  0  0
  3  4  2  0  0  0  0
  3  5  1  0  0  0  0
  5  6  2  0  0  0  0
  6  7  1  0  0  0  0
  6  8  1  0  0  0  0
  8  9  1  0  0  0  0
  8 10  2  0  0  0  0
 10 11  1  0  0  0  0
 10 12  1  0  0  0  0
 12 13  1  0  0  0  0
 12 14  2  0  0  0  0
 14 15  1  0  0  0  0
 15 16  2  0  0  0  0
 16 17  1  0  0  0  0
 17 18  3  0  0  0  0
 16 19  1  0  0  0  0
 19 20  3  0  0  0  0
  1 21  1  0  0  0  0
 21 22  2  0  0  0  0
 22 23  1  0  0  0  0
 23 24  2  0  0  0  0
 24 25  1  0  0  0  0
 24 26  1  0  0  0  0
 26 27  2  0  0  0  0
 27 28  1  0  0  0  0
 28 29  1  0  0  0  0
 29 30  2  0  0  0  0
 30 31  1  0  0  0  0
 31 32  2  0  0  0  0
 32 33  1  0  0  0  0
 33 34  1  0  0  0  0
 32 35  1  0  0  0  0
 35 36  2  0  0  0  0
 28 37  1  0  0  0  0
 37 38  2  0  0  0  0
 38 39  1  0  0  0  0
 39 40  2  0  0  0  0
 40 41  1  0  0  0  0
 41 42  1  0  0  0  0
 40 43  1  0  0  0  0
 43 44  2  0  0  0  0
 27 45  1  0  0  0  0
 45 46  1  0  0  0  0
 46 47  1  0  0  0  0
 47 48  2  0  0  0  0
 48 49  1  0  0  0  0
 49 50  1  0  0  0  0
 50 51  2  0  0  0  0
 51 52  1  0  0  0  0
 52 53  2  0  0  0  0
 53 54  1  0  0  0  0
 54 55  1  0  0  0  0
 53 56  1  0  0  0  0
 56 57  2  0  0  0  0
 49 58  1  0  0  0  0
 58 59  2  0  0  0  0
 59 60  1  0  0  0  0
 60 61  2  0  0  0  0
 61 62  1  0  0  0  0
 62 63  1  0  0  0  0
 61 64  1  0  0  0  0
 64 65  2  0  0  0  0
 48 66  1  0  0  0  0
 66 67  1  0  0  0  0
 47 68  1  0  0  0  0
 68 69  2  0  0  0  0
 69 70  1  0  0  0  0
 70 71  2  0  0  0  0
 71 72  1  0  0  0  0
 71 73  1  0  0  0  0
 73 74  2  0  0  0  0
 74 75  1  0  0  0  0
 75 76  2  0  0  0  0
 75 77  1  0  0  0  0
 77 78  2  0  0  0  0
 78 79  1  0  0  0  0
 79 80  1  0  0  0  0
 80 81  2  0  0  0  0
 81 82  1  0  0  0  0
 82 83  2  0  0  0  0
 83 84  1  0  0  0  0
 84 85  3  0  0  0  0
 83 86  1  0  0  0  0
 86 87  3  0  0  0  0
 15  2  1  0  0  0  0
 25 21  1  0  0  0  0
 67 26  1  0  0  0  0
 72 68  1  0  0  0  0
 82 74  1  0  0  0  0
 14  5  1  0  0  0  0
 36 29  1  0  0  0  0
 44 37  1  0  0  0  0
 66 45  2  0  0  0  0
 81 77  1  0  0  0  0
 57 50  1  0  0  0  0
 65 58  1  0  0  0  0
  1 88  1  0  0  0  0
 22 89  1  0  0  0  0
 23 90  1  0  0  0  0
 30 91  1  0  0  0  0
 31 92  1  0  0  0  0
 34 93  1  0  0  0  0
 34 94  1  0  0  0  0
 34 95  1  0  0  0  0
 35 96  1  0  0  0  0
 36 97  1  0  0  0  0
 38 98  1  0  0  0  0
 39 99  1  0  0  0  0
 42100  1  0  0  0  0
 42101  1  0  0  0  0
 42102  1  0  0  0  0
 43103  1  0  0  0  0
 44104  1  0  0  0  0
 51105  1  0  0  0  0
 52106  1  0  0  0  0
 55107  1  0  0  0  0
 55108  1  0  0  0  0
 55109  1  0  0  0  0
 56110  1  0  0  0  0
 57111  1  0  0  0  0
 59112  1  0  0  0  0
 60113  1  0  0  0  0
 63114  1  0  0  0  0
 63115  1  0  0  0  0
 63116  1  0  0  0  0
 64117  1  0  0  0  0
 65118  1  0  0  0  0
 69119  1  0  0  0  0
 70120  1  0  0  0  0
 73121  1  0  0  0  0
 78122  1  0  0  0  0
 80123  1  0  0  0  0
M  END
