153

C         -0.68450        2.46370       -8.06110
C         -0.85130        1.49370       -8.98630
C         -1.44940        0.13910       -8.77850
O         -2.34900       -0.17270       -8.04710
C         -0.78680       -0.70130       -9.81040
C         -0.72490       -2.07990       -9.89130
Cl        -1.57920       -3.06690       -8.79380
C          0.08810       -2.65060      -10.88050
Cl         0.20670       -4.34860      -11.00880
C          0.83310       -1.83580      -11.73320
Cl         1.87960       -2.55620      -12.87510
C          0.75410       -0.43770      -11.65600
Cl         1.80740        0.50060      -12.63170
C         -0.09910        0.12950      -10.71840
C         -0.36800        1.51930      -10.36460
C         -0.32610        2.62100      -11.16890
C         -0.62440        3.92250      -10.70280
N         -0.83840        5.00110      -10.37560
C         -0.14340        2.61900      -12.56990
N         -0.09240        2.71170      -13.71190
C         -0.82880        2.27160       -6.64180
C         -0.92510        3.35110       -5.73710
C         -0.79690        3.07140       -4.40190
C         -0.60650        1.72490       -4.02730
N         -0.67410        0.74910       -4.95100
N         -0.74330        1.01720       -6.19460
C         -0.30850        1.31970       -2.69380
C          0.14790        0.07850       -2.24790
N          0.44870       -1.04100       -2.98970
C          0.14580       -2.28600       -2.40140
C         -1.09370       -2.48320       -1.79660
C         -1.38300       -3.67310       -1.16190
C         -0.43620       -4.68810       -1.13170
S         -0.71650       -6.22410       -0.29770
C         -2.49700       -6.49230       -0.56800
C          0.79630       -4.50300       -1.75100
C          1.08640       -3.31310       -2.38450
C          0.99980       -0.99660       -4.27110
C          1.90900       -0.00270       -4.62940
C          2.38730        0.08040       -5.92240
C          1.97260       -0.84000       -6.87360
S          2.47360       -0.78360       -8.56990
C          2.91150        0.96420       -8.80690
C          1.13150       -1.88420       -6.49990
C          0.65220       -1.96580       -5.21440
C          0.27460        0.08150       -0.83510
S          0.76720       -1.11130        0.30820
C          0.46320        0.00230        1.62870
C          0.02260        1.24030        1.19970
N         -0.35930        2.28820        2.01270
C         -1.01700        2.07070        3.23220
C         -0.80190        2.94200        4.29660
C         -1.48180        2.78130        5.48810
C         -2.37790        1.73190        5.64130
S         -3.32060        1.45100        7.10490
C         -2.41500        2.39700        8.36440
C         -2.58520        0.85090        4.58150
C         -1.91840        1.01810        3.38890
C         -0.20860        3.59760        1.53290
C         -1.21770        4.54420        1.71590
C         -1.06750        5.81980        1.22370
C          0.08890        6.18330        0.53380
S          0.15600        7.84480       -0.05610
C          1.72350        7.92540       -0.96820
C          1.09850        5.24780        0.35660
C          0.94890        3.96780        0.85420
C         -0.06790        1.27100       -0.21800
S         -0.52400        2.46890       -1.37420
C          0.75780       -0.49410        2.95880
C          1.65940        0.18820        3.78520
S          2.39330        1.68020        3.16560
C          4.16370        1.20820        3.19420
C          4.43940        0.03000        2.28260
C          2.02550       -0.35210        5.01920
S          2.92870        0.52640        6.24930
C          2.14000        2.18470        6.25500
C          1.89880        2.59360        7.69360
C          1.69700       -1.68680        5.31490
C          0.88040       -2.41410        4.44080
C          0.29120       -1.77060        3.33630
C         -0.87910       -2.35660        2.64670
O         -1.56920       -1.73740        1.85460
C         -1.21020       -3.72160        3.05070
C         -0.40510       -4.47280        3.95280
C          0.75400       -3.88760        4.61480
O          1.58400       -4.55070        5.20920
C         -0.85780       -5.75390        4.10720
S         -2.26890       -6.05000        3.18930
C         -2.25690       -4.45430        2.56830
C          2.16300       -2.27480        6.56570
C          1.38170       -2.93050        7.44110
C          1.95560       -3.83170        8.47890
O          3.03340       -3.75210        9.00430
C          0.91910       -4.88040        8.64430
C          1.02280       -6.09030        9.31000
Cl         2.41320       -6.48850       10.21080
C         -0.04460       -6.99590        9.21620
Cl         0.03840       -8.49660       10.02790
C         -1.16120       -6.68730        8.43810
Cl        -2.41500       -7.83890        8.27670
C         -1.26790       -5.45550        7.77700
Cl        -2.61950       -5.18180        6.75690
C         -0.23860       -4.53290        7.91110
C         -0.05300       -3.19460        7.37110
C         -0.97530       -2.22900        7.08200
C         -0.55740       -0.90220        6.84370
N         -0.25700        0.19800        6.71780
C         -2.38290       -2.31280        7.13720
N         -3.52790       -2.25650        7.17260
H         -0.29000        3.42660       -8.36220
H         -1.09390        4.35440       -6.09800
H         -0.83380        3.84320       -3.64700
H         -1.82810       -1.69210       -1.81590
H         -2.34350       -3.79720       -0.68910
H         -2.67250       -7.54470       -0.36950
H         -3.08770       -5.89050        0.11550
H         -2.73790       -6.26060       -1.60040
H          1.52480       -5.29850       -1.72240
H          2.04320       -3.16820       -2.86320
H          2.22430        0.72530       -3.89540
H          3.07730        0.86960       -6.17720
H          2.13570        1.58820       -8.37250
H          2.96210        1.11670       -9.88060
H          3.87990        1.17620       -8.36340
H          0.84260       -2.61540       -7.23830
H         -0.03310       -2.75300       -4.94250
H         -0.10430        3.75860        4.17920
H         -1.30230        3.47870        6.29000
H         -2.56770        3.46280        8.22240
H         -2.83180        2.09150        9.31890
H         -1.36300        2.13450        8.31290
H         -3.28710        0.03960        4.70390
H         -2.10220        0.33800        2.57180
H         -2.12160        4.26700        2.23680
H         -1.84960        6.55130        1.35660
H          2.55830        7.76500       -0.29210
H          1.72080        7.19780       -1.77440
H          1.77070        8.92980       -1.37770
H          2.00970        5.50080       -0.16070
H          1.74350        3.24800        0.72890
H          4.67320        2.10700        2.84840
H          4.45630        1.00050        4.22240
H          5.50740       -0.17660        2.26470
H          4.10730        0.24170        1.26830
H          3.92280       -0.86140        2.63450
H          1.20090        2.08620        5.71540
H          2.80080        2.88420        5.74420
H          2.83310        2.63660        8.24900
H          1.23900        1.87650        8.17640
H          1.43290        3.57650        7.71830
H         -0.43350       -6.52160        4.72380
H         -3.01500       -4.11740        1.88950
H          3.22040       -2.20380        6.78880
