
  xtb     02112203543D
 energy: -271.557966045106 gnorm: 0.000432749693 xtb: 6.4.1 (unknown)
146160  0     0  0            999 V2000
    9.3212    5.4194    1.6329 C   0  0  0  0  0  0  0  0  0  0  0  0
   10.5575    4.8527    1.7285 C   0  0  0  0  0  0  0  0  0  0  0  0
   11.7730    5.6819    1.5418 C   0  0  0  0  0  0  0  0  0  0  0  0
   11.8417    6.8865    1.5363 O   0  0  0  0  0  0  0  0  0  0  0  0
   12.8657    4.7045    1.2944 C   0  0  0  0  0  0  0  0  0  0  0  0
   14.1657    4.9364    0.8807 C   0  0  0  0  0  0  0  0  0  0  0  0
   14.7848    6.5202    0.7413 Cl  0  0  0  0  0  0  0  0  0  0  0  0
   14.9691    3.8305    0.5642 C   0  0  0  0  0  0  0  0  0  0  0  0
   16.5891    4.0691    0.0716 Cl  0  0  0  0  0  0  0  0  0  0  0  0
   14.4400    2.5417    0.6104 C   0  0  0  0  0  0  0  0  0  0  0  0
   15.4094    1.2181    0.1280 Cl  0  0  0  0  0  0  0  0  0  0  0  0
   13.1209    2.3126    1.0331 C   0  0  0  0  0  0  0  0  0  0  0  0
   12.4770    0.7285    0.9182 Cl  0  0  0  0  0  0  0  0  0  0  0  0
   12.3557    3.3973    1.4338 C   0  0  0  0  0  0  0  0  0  0  0  0
   10.9906    3.4916    1.9473 C   0  0  0  0  0  0  0  0  0  0  0  0
   10.3652    2.5954    2.7724 C   0  0  0  0  0  0  0  0  0  0  0  0
    9.1119    2.8534    3.3671 C   0  0  0  0  0  0  0  0  0  0  0  0
    8.0945    3.0097    3.8753 N   0  0  0  0  0  0  0  0  0  0  0  0
   10.9162    1.3961    3.2690 C   0  0  0  0  0  0  0  0  0  0  0  0
   11.2961    0.4375    3.7729 N   0  0  0  0  0  0  0  0  0  0  0  0
    8.0677    4.7976    1.4187 C   0  0  0  0  0  0  0  0  0  0  0  0
    7.8675    3.5010    0.8942 C   0  0  0  0  0  0  0  0  0  0  0  0
    6.5471    2.9380    0.6984 C   0  0  0  0  0  0  0  0  0  0  0  0
    6.6087    1.7113    0.1772 N   0  0  0  0  0  0  0  0  0  0  0  0
    8.1386    1.3096   -0.0564 S   0  0  0  0  0  4  0  0  0  0  0  0
    8.8198    2.6597    0.4856 N   0  0  0  0  0  0  0  0  0  0  0  0
    5.3613    3.6353    1.0168 C   0  0  0  0  0  0  0  0  0  0  0  0
    5.5554    4.9445    1.5070 C   0  0  0  0  0  0  0  0  0  0  0  0
    4.5999    5.8070    1.8641 N   0  0  0  0  0  0  0  0  0  0  0  0
    5.2841    7.1703    2.3608 S   0  0  0  0  0  0  0  0  0  0  0  0
    6.8173    6.7565    2.1541 N   0  0  0  0  0  0  0  0  0  0  0  0
    6.8753    5.5115    1.6804 C   0  0  0  0  0  0  0  0  0  0  0  0
    4.0763    3.0582    0.8415 C   0  0  0  0  0  0  0  0  0  0  0  0
    2.8224    3.6017    1.0518 C   0  0  0  0  0  0  0  0  0  0  0  0
    1.8866    2.6107    0.6993 C   0  0  0  0  0  0  0  0  0  0  0  0
    0.4702    2.5678    0.6759 C   0  0  0  0  0  0  0  0  0  0  0  0
   -0.4062    3.5974    1.1452 C   0  0  0  0  0  0  0  0  0  0  0  0
   -0.1411    4.7118    1.9116 C   0  0  0  0  0  0  0  0  0  0  0  0
   -1.2806    5.4738    2.1905 C   0  0  0  0  0  0  0  0  0  0  0  0
   -2.4386    4.9744    1.6519 C   0  0  0  0  0  0  0  0  0  0  0  0
   -4.2030    5.6259    1.8029 Si  0  0  0  0  0  4  0  0  0  0  0  0
   -5.0061    5.6852    0.0636 C   0  0  0  0  0  0  0  0  0  0  0  0
   -5.3177    4.3174   -0.5363 C   0  0  0  0  0  0  0  0  0  0  0  0
   -4.0929    7.3833    2.5410 C   0  0  0  0  0  0  0  0  0  0  0  0
   -5.4575    8.0344    2.7287 C   0  0  0  0  0  0  0  0  0  0  0  0
   -5.2006    4.4874    2.9846 C   0  0  0  0  0  0  0  0  0  0  0  0
   -4.7774    3.0212    2.9563 C   0  0  0  0  0  0  0  0  0  0  0  0
   -2.1097    3.5173    0.7902 S   0  0  0  0  0  0  0  0  0  0  0  0
   -0.0290    1.3824    0.1369 C   0  0  0  0  0  0  0  0  0  0  0  0
    0.7420    0.2730   -0.2896 C   0  0  0  0  0  0  0  0  0  0  0  0
    2.1550    0.2855   -0.2047 C   0  0  0  0  0  0  0  0  0  0  0  0
    3.0079   -0.8159   -0.5555 C   0  0  0  0  0  0  0  0  0  0  0  0
    4.3852   -0.8510   -0.5727 C   0  0  0  0  0  0  0  0  0  0  0  0
    4.8996   -2.1061   -0.9216 C   0  0  0  0  0  0  0  0  0  0  0  0
    3.9491   -3.0589   -1.1765 C   0  0  0  0  0  0  0  0  0  0  0  0
    4.1985   -4.8709   -1.6569 Si  0  0  0  0  0  4  0  0  0  0  0  0
    2.5969   -5.8392   -1.2659 C   0  0  0  0  0  0  0  0  0  0  0  0
    1.4718   -5.6077   -2.2699 C   0  0  0  0  0  0  0  0  0  0  0  0
    4.6074   -4.9461   -3.5258 C   0  0  0  0  0  0  0  0  0  0  0  0
    5.8752   -4.1862   -3.9019 C   0  0  0  0  0  0  0  0  0  0  0  0
    5.6528   -5.5335   -0.6067 C   0  0  0  0  0  0  0  0  0  0  0  0
    5.3993   -5.4415    0.8948 C   0  0  0  0  0  0  0  0  0  0  0  0
    2.3730   -2.3799   -0.9861 S   0  0  0  0  0  0  0  0  0  0  0  0
    2.6638    1.4951    0.2726 C   0  0  0  0  0  0  0  0  0  0  0  0
    3.9769    1.7897    0.3816 O   0  0  0  0  0  0  0  0  0  0  0  0
   -0.2085   -0.6674   -0.7643 C   0  0  0  0  0  0  0  0  0  0  0  0
   -1.4476   -0.1018   -0.6051 C   0  0  0  0  0  0  0  0  0  0  0  0
   -1.3418    1.1339   -0.0499 O   0  0  0  0  0  0  0  0  0  0  0  0
   -2.7656   -0.5781   -0.9506 C   0  0  0  0  0  0  0  0  0  0  0  0
   -2.9371   -1.8039   -1.6141 C   0  0  0  0  0  0  0  0  0  0  0  0
   -4.2095   -2.1865   -1.9624 C   0  0  0  0  0  0  0  0  0  0  0  0
   -4.6533   -3.4049   -2.6953 C   0  0  0  0  0  0  0  0  0  0  0  0
   -3.9673   -4.2976   -3.1274 O   0  0  0  0  0  0  0  0  0  0  0  0
   -6.1321   -3.2550   -2.7940 C   0  0  0  0  0  0  0  0  0  0  0  0
   -6.5197   -2.0451   -2.1812 C   0  0  0  0  0  0  0  0  0  0  0  0
   -5.3310   -1.3855   -1.6627 C   0  0  0  0  0  0  0  0  0  0  0  0
   -5.1648   -0.1851   -0.9957 C   0  0  0  0  0  0  0  0  0  0  0  0
   -3.8832    0.2079   -0.6468 C   0  0  0  0  0  0  0  0  0  0  0  0
   -7.8495   -1.6616   -2.1905 C   0  0  0  0  0  0  0  0  0  0  0  0
   -8.7711   -2.4883   -2.8097 C   0  0  0  0  0  0  0  0  0  0  0  0
   -8.4018   -3.7127   -3.3842 C   0  0  0  0  0  0  0  0  0  0  0  0
   -7.0475   -4.0907   -3.3847 C   0  0  0  0  0  0  0  0  0  0  0  0
   -9.4211   -4.5019   -4.0286 C   0  0  0  0  0  0  0  0  0  0  0  0
   -9.4959   -5.8545   -4.1104 C   0  0  0  0  0  0  0  0  0  0  0  0
   -8.7234   -6.8188   -3.2765 C   0  0  0  0  0  0  0  0  0  0  0  0
   -7.8529   -6.5848   -2.4725 O   0  0  0  0  0  0  0  0  0  0  0  0
   -9.3198   -8.1431   -3.5611 C   0  0  0  0  0  0  0  0  0  0  0  0
   -8.9661   -9.3634   -3.0206 C   0  0  0  0  0  0  0  0  0  0  0  0
   -9.6651  -10.4926   -3.4284 C   0  0  0  0  0  0  0  0  0  0  0  0
   -9.2745  -12.0441   -2.8021 Cl  0  0  0  0  0  0  0  0  0  0  0  0
  -10.6989  -10.3572   -4.3608 C   0  0  0  0  0  0  0  0  0  0  0  0
  -11.3709  -11.4474   -4.7452 F   0  0  0  0  0  0  0  0  0  0  0  0
  -11.0610   -9.1358   -4.9046 C   0  0  0  0  0  0  0  0  0  0  0  0
  -10.3585   -8.0102   -4.4979 C   0  0  0  0  0  0  0  0  0  0  0  0
  -10.4836   -6.6070   -4.8740 C   0  0  0  0  0  0  0  0  0  0  0  0
  -11.3334   -6.1104   -5.8241 C   0  0  0  0  0  0  0  0  0  0  0  0
  -12.2571   -6.8968   -6.5478 C   0  0  0  0  0  0  0  0  0  0  0  0
  -13.0316   -7.4778   -7.1631 N   0  0  0  0  0  0  0  0  0  0  0  0
  -11.4067   -4.7607   -6.2336 C   0  0  0  0  0  0  0  0  0  0  0  0
  -11.5235   -3.6901   -6.6313 N   0  0  0  0  0  0  0  0  0  0  0  0
    9.2950    6.5035    1.6691 H   0  0  0  0  0  0  0  0  0  0  0  0
    2.6537    4.6021    1.3871 H   0  0  0  0  0  0  0  0  0  0  0  0
    0.8328    4.9554    2.2908 H   0  0  0  0  0  0  0  0  0  0  0  0
   -1.2581    6.3743    2.7774 H   0  0  0  0  0  0  0  0  0  0  0  0
   -4.3509    6.2276   -0.6205 H   0  0  0  0  0  0  0  0  0  0  0  0
   -5.9330    6.2581    0.1193 H   0  0  0  0  0  0  0  0  0  0  0  0
   -6.0177    3.7734    0.0928 H   0  0  0  0  0  0  0  0  0  0  0  0
   -5.7614    4.4234   -1.5249 H   0  0  0  0  0  0  0  0  0  0  0  0
   -4.4106    3.7261   -0.6341 H   0  0  0  0  0  0  0  0  0  0  0  0
   -3.4823    8.0202    1.9010 H   0  0  0  0  0  0  0  0  0  0  0  0
   -3.5905    7.3423    3.5078 H   0  0  0  0  0  0  0  0  0  0  0  0
   -6.0856    7.4284    3.3768 H   0  0  0  0  0  0  0  0  0  0  0  0
   -5.9635    8.1477    1.7737 H   0  0  0  0  0  0  0  0  0  0  0  0
   -5.3584    9.0211    3.1775 H   0  0  0  0  0  0  0  0  0  0  0  0
   -6.2609    4.5534    2.7348 H   0  0  0  0  0  0  0  0  0  0  0  0
   -5.1040    4.8549    4.0079 H   0  0  0  0  0  0  0  0  0  0  0  0
   -5.4095    2.4260    3.6130 H   0  0  0  0  0  0  0  0  0  0  0  0
   -4.8497    2.6136    1.9515 H   0  0  0  0  0  0  0  0  0  0  0  0
   -3.7480    2.9141    3.2883 H   0  0  0  0  0  0  0  0  0  0  0  0
    5.0038   -0.0045   -0.3418 H   0  0  0  0  0  0  0  0  0  0  0  0
    5.9534   -2.3146   -0.9778 H   0  0  0  0  0  0  0  0  0  0  0  0
    2.8156   -6.9071   -1.2247 H   0  0  0  0  0  0  0  0  0  0  0  0
    2.2422   -5.5588   -0.2731 H   0  0  0  0  0  0  0  0  0  0  0  0
    0.5737   -6.1469   -1.9748 H   0  0  0  0  0  0  0  0  0  0  0  0
    1.2268   -4.5504   -2.3333 H   0  0  0  0  0  0  0  0  0  0  0  0
    1.7634   -5.9499   -3.2592 H   0  0  0  0  0  0  0  0  0  0  0  0
    4.7128   -5.9866   -3.8352 H   0  0  0  0  0  0  0  0  0  0  0  0
    3.7725   -4.5363   -4.0955 H   0  0  0  0  0  0  0  0  0  0  0  0
    6.0535   -4.2400   -4.9744 H   0  0  0  0  0  0  0  0  0  0  0  0
    5.7892   -3.1387   -3.6229 H   0  0  0  0  0  0  0  0  0  0  0  0
    6.7397   -4.6053   -3.3935 H   0  0  0  0  0  0  0  0  0  0  0  0
    6.5600   -4.9777   -0.8438 H   0  0  0  0  0  0  0  0  0  0  0  0
    5.8522   -6.5726   -0.8706 H   0  0  0  0  0  0  0  0  0  0  0  0
    6.2553   -5.8122    1.4557 H   0  0  0  0  0  0  0  0  0  0  0  0
    5.2201   -4.4100    1.1889 H   0  0  0  0  0  0  0  0  0  0  0  0
    4.5292   -6.0305    1.1734 H   0  0  0  0  0  0  0  0  0  0  0  0
   -0.0080   -1.6320   -1.1782 H   0  0  0  0  0  0  0  0  0  0  0  0
   -2.0941   -2.4297   -1.8591 H   0  0  0  0  0  0  0  0  0  0  0  0
   -6.0099    0.4415   -0.7545 H   0  0  0  0  0  0  0  0  0  0  0  0
   -3.7284    1.1445   -0.1328 H   0  0  0  0  0  0  0  0  0  0  0  0
   -8.1651   -0.7332   -1.7396 H   0  0  0  0  0  0  0  0  0  0  0  0
   -9.8116   -2.1975   -2.8345 H   0  0  0  0  0  0  0  0  0  0  0  0
   -6.7192   -4.9947   -3.8703 H   0  0  0  0  0  0  0  0  0  0  0  0
  -10.2212   -3.9231   -4.4750 H   0  0  0  0  0  0  0  0  0  0  0  0
   -8.1641   -9.4328   -2.3031 H   0  0  0  0  0  0  0  0  0  0  0  0
  -11.8705   -9.1014   -5.6152 H   0  0  0  0  0  0  0  0  0  0  0  0
  1  2  2  0  0  0  0
  2  3  1  0  0  0  0
  3  4  2  0  0  0  0
  3  5  1  0  0  0  0
  5  6  2  0  0  0  0
  6  7  1  0  0  0  0
  6  8  1  0  0  0  0
  8  9  1  0  0  0  0
  8 10  2  0  0  0  0
 10 11  1  0  0  0  0
 10 12  1  0  0  0  0
 12 13  1  0  0  0  0
 12 14  2  0  0  0  0
 14 15  1  0  0  0  0
 15 16  2  0  0  0  0
 16 17  1  0  0  0  0
 17 18  3  0  0  0  0
 16 19  1  0  0  0  0
 19 20  3  0  0  0  0
  1 21  1  0  0  0  0
 21 22  2  0  0  0  0
 22 23  1  0  0  0  0
 23 24  1  0  0  0  0
 24 25  2  0  0  0  0
 25 26  2  0  0  0  0
 23 27  2  0  0  0  0
 27 28  1  0  0  0  0
 28 29  2  0  0  0  0
 29 30  1  0  0  0  0
 30 31  1  0  0  0  0
 31 32  2  0  0  0  0
 27 33  1  0  0  0  0
 33 34  2  0  0  0  0
 34 35  1  0  0  0  0
 35 36  2  0  0  0  0
 36 37  1  0  0  0  0
 37 38  2  0  0  0  0
 38 39  1  0  0  0  0
 39 40  2  0  0  0  0
 40 41  1  0  0  0  0
 41 42  1  0  0  0  0
 42 43  1  0  0  0  0
 41 44  1  0  0  0  0
 44 45  1  0  0  0  0
 41 46  1  0  0  0  0
 46 47  1  0  0  0  0
 40 48  1  0  0  0  0
 36 49  1  0  0  0  0
 49 50  2  0  0  0  0
 50 51  1  0  0  0  0
 51 52  1  0  0  0  0
 52 53  2  0  0  0  0
 53 54  1  0  0  0  0
 54 55  2  0  0  0  0
 55 56  1  0  0  0  0
 56 57  1  0  0  0  0
 57 58  1  0  0  0  0
 56 59  1  0  0  0  0
 59 60  1  0  0  0  0
 56 61  1  0  0  0  0
 61 62  1  0  0  0  0
 55 63  1  0  0  0  0
 51 64  2  0  0  0  0
 64 65  1  0  0  0  0
 50 66  1  0  0  0  0
 66 67  2  0  0  0  0
 67 68  1  0  0  0  0
 67 69  1  0  0  0  0
 69 70  2  0  0  0  0
 70 71  1  0  0  0  0
 71 72  1  0  0  0  0
 72 73  2  0  0  0  0
 72 74  1  0  0  0  0
 74 75  2  0  0  0  0
 75 76  1  0  0  0  0
 76 77  1  0  0  0  0
 77 78  2  0  0  0  0
 75 79  1  0  0  0  0
 79 80  2  0  0  0  0
 80 81  1  0  0  0  0
 81 82  2  0  0  0  0
 81 83  1  0  0  0  0
 83 84  2  0  0  0  0
 84 85  1  0  0  0  0
 85 86  2  0  0  0  0
 85 87  1  0  0  0  0
 87 88  2  0  0  0  0
 88 89  1  0  0  0  0
 89 90  1  0  0  0  0
 89 91  2  0  0  0  0
 91 92  1  0  0  0  0
 91 93  1  0  0  0  0
 93 94  2  0  0  0  0
 94 95  1  0  0  0  0
 95 96  2  0  0  0  0
 96 97  1  0  0  0  0
 97 98  3  0  0  0  0
 96 99  1  0  0  0  0
 99100  3  0  0  0  0
 15  2  1  0  0  0  0
 32 21  1  0  0  0  0
 65 33  1  0  0  0  0
 78 69  1  0  0  0  0
 95 84  1  0  0  0  0
 14  5  1  0  0  0  0
 26 22  1  0  0  0  0
 32 28  1  0  0  0  0
 64 35  1  0  0  0  0
 76 71  2  0  0  0  0
 94 87  1  0  0  0  0
 48 37  1  0  0  0  0
 68 49  1  0  0  0  0
 82 74  1  0  0  0  0
 63 52  1  0  0  0  0
  1101  1  0  0  0  0
 34102  1  0  0  0  0
 38103  1  0  0  0  0
 39104  1  0  0  0  0
 42105  1  0  0  0  0
 42106  1  0  0  0  0
 43107  1  0  0  0  0
 43108  1  0  0  0  0
 43109  1  0  0  0  0
 44110  1  0  0  0  0
 44111  1  0  0  0  0
 45112  1  0  0  0  0
 45113  1  0  0  0  0
 45114  1  0  0  0  0
 46115  1  0  0  0  0
 46116  1  0  0  0  0
 47117  1  0  0  0  0
 47118  1  0  0  0  0
 47119  1  0  0  0  0
 53120  1  0  0  0  0
 54121  1  0  0  0  0
 57122  1  0  0  0  0
 57123  1  0  0  0  0
 58124  1  0  0  0  0
 58125  1  0  0  0  0
 58126  1  0  0  0  0
 59127  1  0  0  0  0
 59128  1  0  0  0  0
 60129  1  0  0  0  0
 60130  1  0  0  0  0
 60131  1  0  0  0  0
 61132  1  0  0  0  0
 61133  1  0  0  0  0
 62134  1  0  0  0  0
 62135  1  0  0  0  0
 62136  1  0  0  0  0
 66137  1  0  0  0  0
 70138  1  0  0  0  0
 77139  1  0  0  0  0
 78140  1  0  0  0  0
 79141  1  0  0  0  0
 80142  1  0  0  0  0
 82143  1  0  0  0  0
 83144  1  0  0  0  0
 88145  1  0  0  0  0
 93146  1  0  0  0  0
M  END
