152

C          1.91690       -8.92180        0.83930
C          3.13090       -9.29290        1.36740
C          4.26380       -8.37980        1.54490
O          4.38050       -7.24030        1.13200
C          5.32570       -9.18310        2.19500
C          6.53630       -8.75780        2.70700
Cl         7.06010       -7.14250        2.52340
C          7.32460       -9.67980        3.40710
Cl         8.84290       -9.20490        4.03780
C          6.85080      -10.97100        3.62790
Cl         7.78660      -12.05430        4.56560
C          5.61540      -11.39630        3.11050
Cl         5.03290      -12.93960        3.58110
C          4.88350      -10.51470        2.32450
C          3.59420      -10.63650        1.64160
C          2.99880      -11.80030        1.22420
C          3.63730      -13.05490        1.12560
N          4.10320      -14.07790        0.89200
C          1.69870      -11.89760        0.68200
N          0.63990      -12.09380        0.28280
C          1.41250       -7.60800        0.82250
C          0.44080       -7.21770       -0.13230
C          0.00030       -5.84950       -0.28790
N         -0.90660       -5.73040       -1.25880
S         -1.17450       -7.17810       -1.90650
N         -0.14570       -8.02570       -1.01070
C          0.46250       -4.81040        0.55170
C          1.23860       -5.25050        1.64930
N          1.65080       -4.47690        2.65250
S          2.53280       -5.36490        3.66430
N          2.45290       -6.75980        2.87520
C          1.73350       -6.60240        1.76740
C          0.18120       -3.43820        0.37010
C         -0.07430       -2.73100       -0.81710
N          0.15860       -3.19080       -2.08890
C         -0.61220       -2.67880       -3.14060
C         -0.02510       -2.34710       -4.35820
C         -0.78110       -1.79930       -5.37540
C         -2.13980       -1.57310       -5.18960
S         -3.19930       -0.84400       -6.39190
C         -2.12370       -0.57290       -7.82820
C         -2.73510       -1.93110       -3.97930
C         -1.98310       -2.47970       -2.96700
C          1.16130       -4.13580       -2.33700
C          0.99150       -5.11340       -3.31890
C          1.92800       -6.11030       -3.47360
C          3.06130       -6.15600       -2.65970
S          4.14580       -7.51740       -2.88550
C          5.54680       -7.15070       -1.79600
C          3.26840       -5.14320       -1.72820
C          2.33320       -4.14150       -1.58150
C         -0.43600       -1.39550       -0.52360
S         -0.92480       -0.03940       -1.47880
C         -1.00870        0.97730       -0.04160
C         -0.70730        0.27480        1.12210
N         -0.76040        0.74600        2.41790
C         -1.70890        1.68750        2.82970
C         -2.97840        1.73350        2.25030
C         -3.84380        2.75690        2.56040
C         -3.47590        3.74410        3.47420
S         -4.62440        5.06150        3.70750
C         -3.78810        6.16940        4.87750
C         -2.25140        3.64820        4.12170
C         -1.37610        2.62990        3.79940
C          0.11640        0.16570        3.35270
C          1.45550       -0.02050        3.02180
C          2.30840       -0.68460        3.88060
C          1.83000       -1.17230        5.08870
S          2.80770       -2.09910        6.22580
C          4.28770       -2.52290        5.26340
C          0.50510       -0.93090        5.45050
C         -0.34510       -0.26850        4.59430
C         -0.37260       -1.07030        0.82200
S          0.14570       -2.40890        1.79010
C         -1.41030        2.33090       -0.23860
C         -2.22500        2.77390       -1.24500
C         -2.52250        4.15320       -1.17920
C         -3.36450        4.89860       -2.01720
C         -4.01510        4.29200       -3.22330
C         -3.02350        4.18300       -4.38340
C         -3.53100        6.22980       -1.68840
C         -2.92470        6.84100       -0.55270
C         -2.07440        6.09130        0.28260
C         -1.39700        6.69940        1.47090
C         -0.14080        7.46700        1.05420
C         -1.88180        4.77490       -0.07230
S         -0.87430        3.64120        0.79210
C         -3.28630        8.19280       -0.41740
C         -4.12550        8.64760       -1.40960
S         -4.51310        7.36840       -2.56090
C         -4.72780        9.90030       -1.64430
C         -4.58170       11.11050       -1.02180
C         -3.64120       11.50740        0.04450
O         -2.95150       10.80720        0.75280
C         -3.67940       12.99030        0.07200
C         -2.88210       13.85790        0.79820
Cl        -1.76270       13.28930        1.95280
C         -3.00690       15.23310        0.55540
Cl        -2.06660       16.34590        1.45110
C         -3.86250       15.69300       -0.44450
Cl        -3.92180       17.36650       -0.79150
C         -4.66520       14.80700       -1.18160
Cl        -5.55650       15.42480       -2.51020
C         -4.62160       13.45500       -0.86640
C         -5.33970       12.29910       -1.39350
C         -6.60320       12.30020       -1.91900
C         -7.29280       11.14770       -2.36180
N         -7.92530       10.27080       -2.74700
C         -7.48570       13.40350       -1.93450
N         -8.30680       14.20410       -1.89920
H          1.27830       -9.66500        0.38050
H          1.03330       -2.50640       -4.50150
H         -0.29530       -1.54220       -6.30240
H         -1.33160        0.12540       -7.57430
H         -1.72260       -1.52030       -8.17570
H         -2.76260       -0.14170       -8.59260
H         -3.79480       -1.77450       -3.85050
H         -2.44690       -2.77400       -2.03810
H          0.10130       -5.10470       -3.92960
H          1.78410       -6.88320       -4.21270
H          5.21080       -7.08700       -0.76400
H          6.02680       -6.22980       -2.11430
H          6.23270       -7.98430       -1.91230
H          4.14480       -5.13410       -1.10240
H          2.50800       -3.35970       -0.85730
H         -3.27110        0.97780        1.53690
H         -4.81370        2.81250        2.09050
H         -2.84290        6.50440        4.46080
H         -4.45600        7.01570        5.00410
H         -3.64600        5.66800        5.83040
H         -1.95360        4.37250        4.86210
H         -0.40910        2.58220        4.27700
H          1.82530        0.34970        2.07660
H          3.33810       -0.81810        3.59280
H          4.82820       -3.25180        5.85910
H          3.98900       -2.96380        4.31700
H          4.90580       -1.64200        5.11510
H          0.14780       -1.29310        6.40210
H         -1.37740       -0.10680        4.86610
H         -2.63680        2.10400       -1.97880
H         -4.39770        3.29980       -2.97770
H         -4.85720        4.91720       -3.52710
H         -2.65850        5.16940       -4.66020
H         -3.50700        3.73640       -5.24830
H         -2.17240        3.56660       -4.10270
H         -2.08430        7.37930        1.97690
H         -1.11950        5.90040        2.16370
H          0.55340        6.80450        0.54230
H          0.35410        7.87890        1.92990
H         -0.39890        8.28490        0.38630
H         -2.94940        8.82760        0.38010
H         -5.40050        9.89030       -2.49450
