
  xtb     02042202403D
 energy: -407.612387903193 gnorm: 0.000875057184 xtb: 6.4.1 (unknown)
232253  0     0  0            999 V2000
    0.4913   12.3947    1.4681 C   0  0  0  0  0  0  0  0  0  0  0  0
    0.6784   13.5293    0.7260 C   0  0  0  0  0  0  0  0  0  0  0  0
    1.2790   13.6067   -0.6127 C   0  0  0  0  0  0  0  0  0  0  0  0
    1.6141   12.6922   -1.3344 O   0  0  0  0  0  0  0  0  0  0  0  0
    1.4263   15.0517   -0.9031 C   0  0  0  0  0  0  0  0  0  0  0  0
    2.0336   15.6528   -1.9913 C   0  0  0  0  0  0  0  0  0  0  0  0
    2.5974   14.7364   -3.3146 Cl  0  0  0  0  0  0  0  0  0  0  0  0
    2.1856   17.0466   -1.9776 C   0  0  0  0  0  0  0  0  0  0  0  0
    2.8958   17.8402   -3.3147 Cl  0  0  0  0  0  0  0  0  0  0  0  0
    1.8010   17.7799   -0.8562 C   0  0  0  0  0  0  0  0  0  0  0  0
    2.0929   19.4648   -0.8196 Cl  0  0  0  0  0  0  0  0  0  0  0  0
    1.1937   17.1615    0.2491 C   0  0  0  0  0  0  0  0  0  0  0  0
    0.9216   18.1014    1.6575 Cl  0  0  0  0  0  0  0  0  0  0  0  0
    0.9363   15.7971    0.1887 C   0  0  0  0  0  0  0  0  0  0  0  0
    0.2992   14.8745    1.1252 C   0  0  0  0  0  0  0  0  0  0  0  0
   -0.6504   15.1951    2.0609 C   0  0  0  0  0  0  0  0  0  0  0  0
   -1.3154   16.4367    2.1653 C   0  0  0  0  0  0  0  0  0  0  0  0
   -1.9913   17.3598    2.2563 N   0  0  0  0  0  0  0  0  0  0  0  0
   -1.2392   14.2809    2.9621 C   0  0  0  0  0  0  0  0  0  0  0  0
   -1.7512   13.6178    3.7479 N   0  0  0  0  0  0  0  0  0  0  0  0
    0.7626   11.0465    1.1710 C   0  0  0  0  0  0  0  0  0  0  0  0
    0.4781   10.0365    2.0749 C   0  0  0  0  0  0  0  0  0  0  0  0
    0.7891    8.7501    1.6188 C   0  0  0  0  0  0  0  0  0  0  0  0
    0.6143    7.5176    2.2970 C   0  0  0  0  0  0  0  0  0  0  0  0
    0.0715    7.4211    3.6339 C   0  0  0  0  0  0  0  0  0  0  0  0
   -0.7749    6.4636    4.1271 C   0  0  0  0  0  0  0  0  0  0  0  0
   -1.0883    6.6423    5.4868 C   0  0  0  0  0  0  0  0  0  0  0  0
   -0.4756    7.7201    6.0510 C   0  0  0  0  0  0  0  0  0  0  0  0
   -0.6040    8.2427    7.4394 C   0  0  0  0  0  0  0  0  0  0  0  0
   -1.5006    9.4829    7.4798 C   0  0  0  0  0  0  0  0  0  0  0  0
    0.4990    8.5532    4.8890 S   0  0  0  0  0  0  0  0  0  0  0  0
    0.9957    6.3828    1.5979 C   0  0  0  0  0  0  0  0  0  0  0  0
    1.5381    6.4067    0.2849 C   0  0  0  0  0  0  0  0  0  0  0  0
    1.6961    7.6320   -0.3980 C   0  0  0  0  0  0  0  0  0  0  0  0
    2.2134    7.7188   -1.7472 C   0  0  0  0  0  0  0  0  0  0  0  0
    1.8511    8.6053   -2.7257 C   0  0  0  0  0  0  0  0  0  0  0  0
    2.5668    8.4426   -3.9254 C   0  0  0  0  0  0  0  0  0  0  0  0
    3.4891    7.4422   -3.8799 C   0  0  0  0  0  0  0  0  0  0  0  0
    4.3855    6.9666   -4.9704 C   0  0  0  0  0  0  0  0  0  0  0  0
    5.7993    6.6662   -4.4797 C   0  0  0  0  0  0  0  0  0  0  0  0
    3.4785    6.6682   -2.3319 S   0  0  0  0  0  0  0  0  0  0  0  0
    1.3105    8.7791    0.2956 C   0  0  0  0  0  0  0  0  0  0  0  0
    1.4249   10.4049   -0.3158 S   0  0  0  0  0  0  0  0  0  0  0  0
    1.8253    5.1022   -0.1774 C   0  0  0  0  0  0  0  0  0  0  0  0
    1.5427    4.1220    0.7311 C   0  0  0  0  0  0  0  0  0  0  0  0
    0.8916    4.7570    2.2222 S   0  0  0  0  0  0  0  0  0  0  0  0
    1.6400    2.7173    0.5467 C   0  0  0  0  0  0  0  0  0  0  0  0
    1.1307    1.7477    1.3885 C   0  0  0  0  0  0  0  0  0  0  0  0
    0.5618    2.0177    2.6483 N   0  0  0  0  0  0  0  0  0  0  0  0
    1.3896    1.7211    3.7474 C   0  0  0  0  0  0  0  0  0  0  0  0
    2.7156    2.1430    3.7381 C   0  0  0  0  0  0  0  0  0  0  0  0
    3.5584    1.8628    4.7968 C   0  0  0  0  0  0  0  0  0  0  0  0
    3.0870    1.1498    5.8892 C   0  0  0  0  0  0  0  0  0  0  0  0
    4.0584    0.7386    7.3064 S   0  0  0  0  0  0  0  0  0  0  0  0
    5.6609    1.5283    6.9845 C   0  0  0  0  0  0  0  0  0  0  0  0
    1.7661    0.7053    5.8932 C   0  0  0  0  0  0  0  0  0  0  0  0
    0.9293    0.9786    4.8350 C   0  0  0  0  0  0  0  0  0  0  0  0
   -0.8287    2.0727    2.7813 C   0  0  0  0  0  0  0  0  0  0  0  0
   -1.6843    1.5920    1.7905 C   0  0  0  0  0  0  0  0  0  0  0  0
   -3.0504    1.6414    1.9645 C   0  0  0  0  0  0  0  0  0  0  0  0
   -3.5993    2.1830    3.1223 C   0  0  0  0  0  0  0  0  0  0  0  0
   -5.3626    2.1300    3.2583 S   0  0  0  0  0  0  0  0  0  0  0  0
   -5.7172    3.0707    4.7704 C   0  0  0  0  0  0  0  0  0  0  0  0
   -2.7555    2.7126    4.0892 C   0  0  0  0  0  0  0  0  0  0  0  0
   -1.3872    2.6649    3.9138 C   0  0  0  0  0  0  0  0  0  0  0  0
    1.2528    0.4673    0.8203 C   0  0  0  0  0  0  0  0  0  0  0  0
    0.6421   -1.0737    1.2732 S   0  0  0  0  0  0  0  0  0  0  0  0
    1.1336   -1.7510   -0.2836 C   0  0  0  0  0  0  0  0  0  0  0  0
    1.8741   -0.8407   -1.0416 C   0  0  0  0  0  0  0  0  0  0  0  0
    2.5114   -1.0877   -2.2397 N   0  0  0  0  0  0  0  0  0  0  0  0
    2.6577   -0.0236   -3.1508 C   0  0  0  0  0  0  0  0  0  0  0  0
    1.5614    0.7636   -3.5006 C   0  0  0  0  0  0  0  0  0  0  0  0
    1.7203    1.8270   -4.3620 C   0  0  0  0  0  0  0  0  0  0  0  0
    2.9734    2.1224   -4.8945 C   0  0  0  0  0  0  0  0  0  0  0  0
    3.0668    3.5246   -5.9590 S   0  0  0  0  0  0  0  0  0  0  0  0
    4.7555    3.4546   -6.6272 C   0  0  0  0  0  0  0  0  0  0  0  0
    4.0635    1.3282   -4.5626 C   0  0  0  0  0  0  0  0  0  0  0  0
    3.9039    0.2645   -3.6978 C   0  0  0  0  0  0  0  0  0  0  0  0
    3.1635   -2.2966   -2.5070 C   0  0  0  0  0  0  0  0  0  0  0  0
    3.2523   -2.7530   -3.8245 C   0  0  0  0  0  0  0  0  0  0  0  0
    3.8225   -3.9743   -4.0989 C   0  0  0  0  0  0  0  0  0  0  0  0
    4.3183   -4.7668   -3.0678 C   0  0  0  0  0  0  0  0  0  0  0  0
    4.9624   -6.3579   -3.4914 S   0  0  0  0  0  0  0  0  0  0  0  0
    4.4950   -7.3462   -2.0374 C   0  0  0  0  0  0  0  0  0  0  0  0
    4.2944   -4.2905   -1.7652 C   0  0  0  0  0  0  0  0  0  0  0  0
    3.7227   -3.0639   -1.4867 C   0  0  0  0  0  0  0  0  0  0  0  0
    1.8698    0.4386   -0.4221 C   0  0  0  0  0  0  0  0  0  0  0  0
    2.3419    2.0376   -0.9077 S   0  0  0  0  0  0  0  0  0  0  0  0
    0.5419   -3.0079   -0.5867 C   0  0  0  0  0  0  0  0  0  0  0  0
   -0.5367   -3.4986    0.1080 C   0  0  0  0  0  0  0  0  0  0  0  0
   -1.0704   -4.6940   -0.4020 C   0  0  0  0  0  0  0  0  0  0  0  0
   -2.1978   -5.4066    0.0623 C   0  0  0  0  0  0  0  0  0  0  0  0
   -3.0976   -4.8205    1.0305 C   0  0  0  0  0  0  0  0  0  0  0  0
   -3.8047   -5.4228    2.0370 C   0  0  0  0  0  0  0  0  0  0  0  0
   -4.5806   -4.4992    2.7575 C   0  0  0  0  0  0  0  0  0  0  0  0
   -5.6028   -4.5689    4.1473 S   0  0  0  0  0  0  0  0  0  0  0  0
   -5.8834   -2.8424    4.0813 C   0  0  0  0  0  0  0  0  0  0  0  0
   -6.8756   -1.9356    5.4072 Si  0  0  0  0  0  4  0  0  0  0  0  0
   -5.6290   -1.1138    6.6138 C   0  0  0  0  0  0  0  0  0  0  0  0
   -4.3803   -0.5738    5.9255 C   0  0  0  0  0  0  0  0  0  0  0  0
   -7.9006   -0.5667    4.5451 C   0  0  0  0  0  0  0  0  0  0  0  0
   -8.6077   -1.0017    3.2646 C   0  0  0  0  0  0  0  0  0  0  0  0
   -7.9040   -3.2116    6.3892 C   0  0  0  0  0  0  0  0  0  0  0  0
   -9.0355   -3.8577    5.5978 C   0  0  0  0  0  0  0  0  0  0  0  0
   -5.2286   -2.2614    3.0328 C   0  0  0  0  0  0  0  0  0  0  0  0
   -4.4931   -3.1920    2.2852 C   0  0  0  0  0  0  0  0  0  0  0  0
   -3.4392   -3.0940    0.9264 S   0  0  0  0  0  0  0  0  0  0  0  0
   -2.4177   -6.6519   -0.5173 C   0  0  0  0  0  0  0  0  0  0  0  0
   -1.5984   -7.1735   -1.5582 C   0  0  0  0  0  0  0  0  0  0  0  0
   -0.5102   -6.4192   -2.0703 C   0  0  0  0  0  0  0  0  0  0  0  0
    0.3611   -6.9249   -3.1062 C   0  0  0  0  0  0  0  0  0  0  0  0
    0.9163   -5.8580   -4.3875 S   0  0  0  0  0  0  0  0  0  0  0  0
    1.8891   -7.1229   -5.0493 C   0  0  0  0  0  0  0  0  0  0  0  0
    2.7631   -7.2400   -6.1406 C   0  0  0  0  0  0  0  0  0  0  0  0
    3.3306   -8.4789   -6.2274 C   0  0  0  0  0  0  0  0  0  0  0  0
    4.5798   -9.0997   -7.5014 Si  0  0  0  0  0  4  0  0  0  0  0  0
    6.3070   -9.2818   -6.6875 C   0  0  0  0  0  0  0  0  0  0  0  0
    6.2658   -9.5868   -5.1929 C   0  0  0  0  0  0  0  0  0  0  0  0
    3.9634  -10.7691   -8.2109 C   0  0  0  0  0  0  0  0  0  0  0  0
    4.0804  -11.9440   -7.2443 C   0  0  0  0  0  0  0  0  0  0  0  0
    4.6521   -7.7818   -8.8825 C   0  0  0  0  0  0  0  0  0  0  0  0
    5.6221   -8.1488   -9.9984 C   0  0  0  0  0  0  0  0  0  0  0  0
    2.7795   -9.5307   -4.9459 S   0  0  0  0  0  0  0  0  0  0  0  0
    1.7756   -8.2883   -4.2959 C   0  0  0  0  0  0  0  0  0  0  0  0
    0.9035   -8.1800   -3.2022 C   0  0  0  0  0  0  0  0  0  0  0  0
   -0.3057   -5.1783   -1.4921 C   0  0  0  0  0  0  0  0  0  0  0  0
    0.9604   -4.0564   -1.9234 S   0  0  0  0  0  0  0  0  0  0  0  0
   -2.0779   -8.4056   -2.0148 C   0  0  0  0  0  0  0  0  0  0  0  0
   -3.2103   -8.8571   -1.3543 C   0  0  0  0  0  0  0  0  0  0  0  0
   -3.7226   -7.7285   -0.1156 S   0  0  0  0  0  0  0  0  0  0  0  0
   -3.8216  -10.0790   -1.6874 C   0  0  0  0  0  0  0  0  0  0  0  0
   -4.9449  -10.6797   -1.1853 C   0  0  0  0  0  0  0  0  0  0  0  0
   -5.8355  -10.1406   -0.1492 C   0  0  0  0  0  0  0  0  0  0  0  0
   -5.6618   -9.1663    0.5512 O   0  0  0  0  0  0  0  0  0  0  0  0
   -7.0224  -11.0270   -0.1417 C   0  0  0  0  0  0  0  0  0  0  0  0
   -8.2011  -10.8802    0.5679 C   0  0  0  0  0  0  0  0  0  0  0  0
   -8.3926   -9.6475    1.7314 Cl  0  0  0  0  0  0  0  0  0  0  0  0
   -9.2505  -11.7703    0.2967 C   0  0  0  0  0  0  0  0  0  0  0  0
  -10.7154  -11.6515    1.1694 Cl  0  0  0  0  0  0  0  0  0  0  0  0
   -9.1173  -12.7208   -0.7140 C   0  0  0  0  0  0  0  0  0  0  0  0
  -10.4473  -13.7256   -1.0968 Cl  0  0  0  0  0  0  0  0  0  0  0  0
   -7.9194  -12.8594   -1.4346 C   0  0  0  0  0  0  0  0  0  0  0  0
   -7.8964  -13.9252   -2.7779 Cl  0  0  0  0  0  0  0  0  0  0  0  0
   -6.8415  -12.0529   -1.0917 C   0  0  0  0  0  0  0  0  0  0  0  0
   -5.4757  -11.9660   -1.6036 C   0  0  0  0  0  0  0  0  0  0  0  0
   -4.7518  -12.9818   -2.1720 C   0  0  0  0  0  0  0  0  0  0  0  0
   -5.1370  -14.3391   -2.2280 C   0  0  0  0  0  0  0  0  0  0  0  0
   -5.3070  -15.4740   -2.2214 N   0  0  0  0  0  0  0  0  0  0  0  0
   -3.4230  -12.8580   -2.6347 C   0  0  0  0  0  0  0  0  0  0  0  0
   -2.3524  -12.8419   -3.0499 N   0  0  0  0  0  0  0  0  0  0  0  0
    0.0806   12.5285    2.4617 H   0  0  0  0  0  0  0  0  0  0  0  0
    0.0387   10.2465    3.0332 H   0  0  0  0  0  0  0  0  0  0  0  0
   -1.1971    5.6787    3.5256 H   0  0  0  0  0  0  0  0  0  0  0  0
   -1.7457    5.9888    6.0325 H   0  0  0  0  0  0  0  0  0  0  0  0
    0.3831    8.5020    7.8295 H   0  0  0  0  0  0  0  0  0  0  0  0
   -1.0287    7.4604    8.0721 H   0  0  0  0  0  0  0  0  0  0  0  0
   -1.5931    9.8469    8.4996 H   0  0  0  0  0  0  0  0  0  0  0  0
   -1.0793   10.2748    6.8650 H   0  0  0  0  0  0  0  0  0  0  0  0
   -2.4929    9.2454    7.1033 H   0  0  0  0  0  0  0  0  0  0  0  0
    1.0688    9.3322   -2.6097 H   0  0  0  0  0  0  0  0  0  0  0  0
    2.4016    9.0512   -4.7964 H   0  0  0  0  0  0  0  0  0  0  0  0
    3.9541    6.0597   -5.4070 H   0  0  0  0  0  0  0  0  0  0  0  0
    4.4135    7.7300   -5.7510 H   0  0  0  0  0  0  0  0  0  0  0  0
    6.4286    6.3485   -5.3079 H   0  0  0  0  0  0  0  0  0  0  0  0
    6.2414    7.5526   -4.0305 H   0  0  0  0  0  0  0  0  0  0  0  0
    5.7794    5.8766   -3.7314 H   0  0  0  0  0  0  0  0  0  0  0  0
    2.2042    4.8724   -1.1563 H   0  0  0  0  0  0  0  0  0  0  0  0
    3.0945    2.7026    2.8961 H   0  0  0  0  0  0  0  0  0  0  0  0
    4.5776    2.2114    4.7536 H   0  0  0  0  0  0  0  0  0  0  0  0
    5.5301    2.6006    6.8724 H   0  0  0  0  0  0  0  0  0  0  0  0
    6.2689    1.3205    7.8594 H   0  0  0  0  0  0  0  0  0  0  0  0
    6.1227    1.0914    6.1038 H   0  0  0  0  0  0  0  0  0  0  0  0
    1.4088    0.1317    6.7348 H   0  0  0  0  0  0  0  0  0  0  0  0
   -0.0848    0.6090    4.8428 H   0  0  0  0  0  0  0  0  0  0  0  0
   -1.2862    1.1665    0.8829 H   0  0  0  0  0  0  0  0  0  0  0  0
   -3.7068    1.2472    1.2037 H   0  0  0  0  0  0  0  0  0  0  0  0
   -5.3206    4.0776    4.6781 H   0  0  0  0  0  0  0  0  0  0  0  0
   -6.7998    3.1063    4.8449 H   0  0  0  0  0  0  0  0  0  0  0  0
   -5.3061    2.5589    5.6361 H   0  0  0  0  0  0  0  0  0  0  0  0
   -3.1486    3.1658    4.9850 H   0  0  0  0  0  0  0  0  0  0  0  0
   -0.7368    3.0877    4.6646 H   0  0  0  0  0  0  0  0  0  0  0  0
    0.5876    0.5340   -3.0941 H   0  0  0  0  0  0  0  0  0  0  0  0
    0.8755    2.4414   -4.6325 H   0  0  0  0  0  0  0  0  0  0  0  0
    4.8121    4.2503   -7.3638 H   0  0  0  0  0  0  0  0  0  0  0  0
    5.4796    3.6322   -5.8373 H   0  0  0  0  0  0  0  0  0  0  0  0
    4.9203    2.4956   -7.1089 H   0  0  0  0  0  0  0  0  0  0  0  0
    5.0450    1.5334   -4.9574 H   0  0  0  0  0  0  0  0  0  0  0  0
    4.7552   -0.3451   -3.4332 H   0  0  0  0  0  0  0  0  0  0  0  0
    2.8352   -2.1585   -4.6228 H   0  0  0  0  0  0  0  0  0  0  0  0
    3.8660   -4.3422   -5.1119 H   0  0  0  0  0  0  0  0  0  0  0  0
    4.5234   -8.3842   -2.3546 H   0  0  0  0  0  0  0  0  0  0  0  0
    5.2010   -7.1913   -1.2268 H   0  0  0  0  0  0  0  0  0  0  0  0
    3.4875   -7.0754   -1.7361 H   0  0  0  0  0  0  0  0  0  0  0  0
    4.7131   -4.8717   -0.9587 H   0  0  0  0  0  0  0  0  0  0  0  0
    3.6988   -2.7048   -0.4685 H   0  0  0  0  0  0  0  0  0  0  0  0
   -0.9292   -2.9979    0.9728 H   0  0  0  0  0  0  0  0  0  0  0  0
   -3.7399   -6.4688    2.2724 H   0  0  0  0  0  0  0  0  0  0  0  0
   -6.1262   -0.2973    7.1394 H   0  0  0  0  0  0  0  0  0  0  0  0
   -5.3253   -1.8306    7.3774 H   0  0  0  0  0  0  0  0  0  0  0  0
   -3.8141   -1.3836    5.4725 H   0  0  0  0  0  0  0  0  0  0  0  0
   -4.6449    0.1242    5.1366 H   0  0  0  0  0  0  0  0  0  0  0  0
   -3.7325   -0.0626    6.6365 H   0  0  0  0  0  0  0  0  0  0  0  0
   -8.6422   -0.1770    5.2445 H   0  0  0  0  0  0  0  0  0  0  0  0
   -7.2393    0.2665    4.3025 H   0  0  0  0  0  0  0  0  0  0  0  0
   -9.3297   -1.7884    3.4636 H   0  0  0  0  0  0  0  0  0  0  0  0
   -7.8898   -1.3778    2.5408 H   0  0  0  0  0  0  0  0  0  0  0  0
   -9.1343   -0.1611    2.8158 H   0  0  0  0  0  0  0  0  0  0  0  0
   -8.3208   -2.7381    7.2794 H   0  0  0  0  0  0  0  0  0  0  0  0
   -7.2346   -3.9976    6.7436 H   0  0  0  0  0  0  0  0  0  0  0  0
   -9.7798   -3.1167    5.3183 H   0  0  0  0  0  0  0  0  0  0  0  0
   -8.6536   -4.3220    4.6921 H   0  0  0  0  0  0  0  0  0  0  0  0
   -9.5301   -4.6256    6.1901 H   0  0  0  0  0  0  0  0  0  0  0  0
   -5.2669   -1.2089    2.8205 H   0  0  0  0  0  0  0  0  0  0  0  0
    2.9719   -6.4493   -6.8361 H   0  0  0  0  0  0  0  0  0  0  0  0
    6.8766   -8.3626   -6.8340 H   0  0  0  0  0  0  0  0  0  0  0  0
    6.8609  -10.0728   -7.1960 H   0  0  0  0  0  0  0  0  0  0  0  0
    7.2714   -9.7352   -4.8035 H   0  0  0  0  0  0  0  0  0  0  0  0
    5.6846  -10.4834   -4.9928 H   0  0  0  0  0  0  0  0  0  0  0  0
    5.8132   -8.7575   -4.6554 H   0  0  0  0  0  0  0  0  0  0  0  0
    2.9214  -10.6718   -8.5218 H   0  0  0  0  0  0  0  0  0  0  0  0
    4.5317  -11.0044   -9.1121 H   0  0  0  0  0  0  0  0  0  0  0  0
    5.1165  -12.1051   -6.9581 H   0  0  0  0  0  0  0  0  0  0  0  0
    3.5017  -11.7599   -6.3425 H   0  0  0  0  0  0  0  0  0  0  0  0
    3.7091  -12.8580   -7.7042 H   0  0  0  0  0  0  0  0  0  0  0  0
    4.9558   -6.8253   -8.4567 H   0  0  0  0  0  0  0  0  0  0  0  0
    3.6609   -7.6321   -9.3108 H   0  0  0  0  0  0  0  0  0  0  0  0
    5.6627   -7.3641  -10.7520 H   0  0  0  0  0  0  0  0  0  0  0  0
    6.6243   -8.2923   -9.6029 H   0  0  0  0  0  0  0  0  0  0  0  0
    5.3144   -9.0695  -10.4868 H   0  0  0  0  0  0  0  0  0  0  0  0
    0.7212   -8.9660   -2.4922 H   0  0  0  0  0  0  0  0  0  0  0  0
   -1.6333   -8.9573   -2.8238 H   0  0  0  0  0  0  0  0  0  0  0  0
   -3.3174  -10.5944   -2.4963 H   0  0  0  0  0  0  0  0  0  0  0  0
  1  2  2  0  0  0  0
  2  3  1  0  0  0  0
  3  4  2  0  0  0  0
  3  5  1  0  0  0  0
  5  6  2  0  0  0  0
  6  7  1  0  0  0  0
  6  8  1  0  0  0  0
  8  9  1  0  0  0  0
  8 10  2  0  0  0  0
 10 11  1  0  0  0  0
 10 12  1  0  0  0  0
 12 13  1  0  0  0  0
 12 14  2  0  0  0  0
 14 15  1  0  0  0  0
 15 16  2  0  0  0  0
 16 17  1  0  0  0  0
 17 18  3  0  0  0  0
 16 19  1  0  0  0  0
 19 20  3  0  0  0  0
  1 21  1  0  0  0  0
 21 22  2  0  0  0  0
 22 23  1  0  0  0  0
 23 24  2  0  0  0  0
 24 25  1  0  0  0  0
 25 26  2  0  0  0  0
 26 27  1  0  0  0  0
 27 28  2  0  0  0  0
 28 29  1  0  0  0  0
 29 30  1  0  0  0  0
 28 31  1  0  0  0  0
 24 32  1  0  0  0  0
 32 33  2  0  0  0  0
 33 34  1  0  0  0  0
 34 35  1  0  0  0  0
 35 36  2  0  0  0  0
 36 37  1  0  0  0  0
 37 38  2  0  0  0  0
 38 39  1  0  0  0  0
 39 40  1  0  0  0  0
 38 41  1  0  0  0  0
 34 42  2  0  0  0  0
 42 43  1  0  0  0  0
 33 44  1  0  0  0  0
 44 45  2  0  0  0  0
 45 46  1  0  0  0  0
 45 47  1  0  0  0  0
 47 48  2  0  0  0  0
 48 49  1  0  0  0  0
 49 50  1  0  0  0  0
 50 51  2  0  0  0  0
 51 52  1  0  0  0  0
 52 53  2  0  0  0  0
 53 54  1  0  0  0  0
 54 55  1  0  0  0  0
 53 56  1  0  0  0  0
 56 57  2  0  0  0  0
 49 58  1  0  0  0  0
 58 59  2  0  0  0  0
 59 60  1  0  0  0  0
 60 61  2  0  0  0  0
 61 62  1  0  0  0  0
 62 63  1  0  0  0  0
 61 64  1  0  0  0  0
 64 65  2  0  0  0  0
 48 66  1  0  0  0  0
 66 67  1  0  0  0  0
 67 68  1  0  0  0  0
 68 69  2  0  0  0  0
 69 70  1  0  0  0  0
 70 71  1  0  0  0  0
 71 72  2  0  0  0  0
 72 73  1  0  0  0  0
 73 74  2  0  0  0  0
 74 75  1  0  0  0  0
 75 76  1  0  0  0  0
 74 77  1  0  0  0  0
 77 78  2  0  0  0  0
 70 79  1  0  0  0  0
 79 80  2  0  0  0  0
 80 81  1  0  0  0  0
 81 82  2  0  0  0  0
 82 83  1  0  0  0  0
 83 84  1  0  0  0  0
 82 85  1  0  0  0  0
 85 86  2  0  0  0  0
 69 87  1  0  0  0  0
 87 88  1  0  0  0  0
 68 89  1  0  0  0  0
 89 90  2  0  0  0  0
 90 91  1  0  0  0  0
 91 92  2  0  0  0  0
 92 93  1  0  0  0  0
 93 94  2  0  0  0  0
 94 95  1  0  0  0  0
 95 96  1  0  0  0  0
 96 97  1  0  0  0  0
 97 98  1  0  0  0  0
 98 99  1  0  0  0  0
 99100  1  0  0  0  0
 98101  1  0  0  0  0
101102  1  0  0  0  0
 98103  1  0  0  0  0
103104  1  0  0  0  0
 97105  2  0  0  0  0
105106  1  0  0  0  0
106107  1  0  0  0  0
 92108  1  0  0  0  0
108109  2  0  0  0  0
109110  1  0  0  0  0
110111  1  0  0  0  0
111112  1  0  0  0  0
112113  1  0  0  0  0
113114  1  0  0  0  0
114115  2  0  0  0  0
115116  1  0  0  0  0
116117  1  0  0  0  0
117118  1  0  0  0  0
116119  1  0  0  0  0
119120  1  0  0  0  0
116121  1  0  0  0  0
121122  1  0  0  0  0
115123  1  0  0  0  0
123124  1  0  0  0  0
124125  1  0  0  0  0
110126  2  0  0  0  0
126127  1  0  0  0  0
109128  1  0  0  0  0
128129  2  0  0  0  0
129130  1  0  0  0  0
129131  1  0  0  0  0
131132  2  0  0  0  0
132133  1  0  0  0  0
133134  2  0  0  0  0
133135  1  0  0  0  0
135136  2  0  0  0  0
136137  1  0  0  0  0
136138  1  0  0  0  0
138139  1  0  0  0  0
138140  2  0  0  0  0
140141  1  0  0  0  0
140142  1  0  0  0  0
142143  1  0  0  0  0
142144  2  0  0  0  0
144145  1  0  0  0  0
145146  2  0  0  0  0
146147  1  0  0  0  0
147148  3  0  0  0  0
146149  1  0  0  0  0
149150  3  0  0  0  0
 15  2  1  0  0  0  0
 43 21  1  0  0  0  0
 88 47  1  0  0  0  0
127 89  1  0  0  0  0
145132  1  0  0  0  0
 14  5  1  0  0  0  0
 42 23  1  0  0  0  0
 57 50  1  0  0  0  0
 65 58  1  0  0  0  0
 87 66  2  0  0  0  0
126 91  1  0  0  0  0
144135  1  0  0  0  0
 31 25  1  0  0  0  0
 46 32  1  0  0  0  0
 78 71  1  0  0  0  0
 86 79  1  0  0  0  0
107 93  1  0  0  0  0
130108  1  0  0  0  0
 41 35  1  0  0  0  0
106 95  2  0  0  0  0
125111  2  0  0  0  0
124113  2  0  0  0  0
  1151  1  0  0  0  0
 22152  1  0  0  0  0
 26153  1  0  0  0  0
 27154  1  0  0  0  0
 29155  1  0  0  0  0
 29156  1  0  0  0  0
 30157  1  0  0  0  0
 30158  1  0  0  0  0
 30159  1  0  0  0  0
 36160  1  0  0  0  0
 37161  1  0  0  0  0
 39162  1  0  0  0  0
 39163  1  0  0  0  0
 40164  1  0  0  0  0
 40165  1  0  0  0  0
 40166  1  0  0  0  0
 44167  1  0  0  0  0
 51168  1  0  0  0  0
 52169  1  0  0  0  0
 55170  1  0  0  0  0
 55171  1  0  0  0  0
 55172  1  0  0  0  0
 56173  1  0  0  0  0
 57174  1  0  0  0  0
 59175  1  0  0  0  0
 60176  1  0  0  0  0
 63177  1  0  0  0  0
 63178  1  0  0  0  0
 63179  1  0  0  0  0
 64180  1  0  0  0  0
 65181  1  0  0  0  0
 72182  1  0  0  0  0
 73183  1  0  0  0  0
 76184  1  0  0  0  0
 76185  1  0  0  0  0
 76186  1  0  0  0  0
 77187  1  0  0  0  0
 78188  1  0  0  0  0
 80189  1  0  0  0  0
 81190  1  0  0  0  0
 84191  1  0  0  0  0
 84192  1  0  0  0  0
 84193  1  0  0  0  0
 85194  1  0  0  0  0
 86195  1  0  0  0  0
 90196  1  0  0  0  0
 94197  1  0  0  0  0
 99198  1  0  0  0  0
 99199  1  0  0  0  0
100200  1  0  0  0  0
100201  1  0  0  0  0
100202  1  0  0  0  0
101203  1  0  0  0  0
101204  1  0  0  0  0
102205  1  0  0  0  0
102206  1  0  0  0  0
102207  1  0  0  0  0
103208  1  0  0  0  0
103209  1  0  0  0  0
104210  1  0  0  0  0
104211  1  0  0  0  0
104212  1  0  0  0  0
105213  1  0  0  0  0
114214  1  0  0  0  0
117215  1  0  0  0  0
117216  1  0  0  0  0
118217  1  0  0  0  0
118218  1  0  0  0  0
118219  1  0  0  0  0
119220  1  0  0  0  0
119221  1  0  0  0  0
120222  1  0  0  0  0
120223  1  0  0  0  0
120224  1  0  0  0  0
121225  1  0  0  0  0
121226  1  0  0  0  0
122227  1  0  0  0  0
122228  1  0  0  0  0
122229  1  0  0  0  0
125230  1  0  0  0  0
128231  1  0  0  0  0
131232  1  0  0  0  0
M  END
