
  xtb     02112220173D
 energy: -437.167837258077 gnorm: 0.000672674302 xtb: 6.4.1 (unknown)
248269  0     0  0            999 V2000
    8.3980   -3.1579   -0.5503 C   0  0  0  0  0  0  0  0  0  0  0  0
    9.1577   -4.2833   -0.7900 C   0  0  0  0  0  0  0  0  0  0  0  0
    8.6743   -5.6494   -0.9561 C   0  0  0  0  0  0  0  0  0  0  0  0
    7.5263   -6.0301   -1.0838 O   0  0  0  0  0  0  0  0  0  0  0  0
    9.8797   -6.5097   -0.9228 C   0  0  0  0  0  0  0  0  0  0  0  0
    9.9494   -7.8903   -0.9523 C   0  0  0  0  0  0  0  0  0  0  0  0
    8.5629   -8.8444   -1.2386 Cl  0  0  0  0  0  0  0  0  0  0  0  0
   11.1974   -8.4918   -0.7331 C   0  0  0  0  0  0  0  0  0  0  0  0
   11.3453  -10.1939   -0.7914 Cl  0  0  0  0  0  0  0  0  0  0  0  0
   12.3045   -7.7061   -0.4209 C   0  0  0  0  0  0  0  0  0  0  0  0
   13.7911   -8.4672   -0.0492 Cl  0  0  0  0  0  0  0  0  0  0  0  0
   12.2234   -6.3033   -0.3920 C   0  0  0  0  0  0  0  0  0  0  0  0
   13.5822   -5.4239    0.1749 Cl  0  0  0  0  0  0  0  0  0  0  0  0
   11.0173   -5.7006   -0.7233 C   0  0  0  0  0  0  0  0  0  0  0  0
   10.6037   -4.3022   -0.8486 C   0  0  0  0  0  0  0  0  0  0  0  0
   11.4066   -3.2298   -1.1477 C   0  0  0  0  0  0  0  0  0  0  0  0
   10.9402   -1.9181   -1.3737 C   0  0  0  0  0  0  0  0  0  0  0  0
   10.6723   -0.8218   -1.5937 N   0  0  0  0  0  0  0  0  0  0  0  0
   12.7820   -3.2479   -1.4631 C   0  0  0  0  0  0  0  0  0  0  0  0
   13.8669   -3.1178   -1.8164 N   0  0  0  0  0  0  0  0  0  0  0  0
    7.0287   -3.0100   -0.3506 C   0  0  0  0  0  0  0  0  0  0  0  0
    6.4032   -1.7817   -0.0040 C   0  0  0  0  0  0  0  0  0  0  0  0
    7.0300   -0.6049    0.3002 N   0  0  0  0  0  0  0  0  0  0  0  0
    8.2857   -0.5506    0.9330 C   0  0  0  0  0  0  0  0  0  0  0  0
    9.2120    0.4150    0.5515 C   0  0  0  0  0  0  0  0  0  0  0  0
   10.4749    0.4316    1.1107 C   0  0  0  0  0  0  0  0  0  0  0  0
   10.8332   -0.5287    2.0469 C   0  0  0  0  0  0  0  0  0  0  0  0
   12.4525   -0.6683    2.7285 S   0  0  0  0  0  0  0  0  0  0  0  0
   13.4802    0.2426    1.5410 C   0  0  0  0  0  0  0  0  0  0  0  0
    9.8806   -1.4496    2.4858 C   0  0  0  0  0  0  0  0  0  0  0  0
    8.6161   -1.4550    1.9448 C   0  0  0  0  0  0  0  0  0  0  0  0
    6.3449    0.6064    0.0809 C   0  0  0  0  0  0  0  0  0  0  0  0
    6.3298    1.5911    1.0629 C   0  0  0  0  0  0  0  0  0  0  0  0
    5.6310    2.7660    0.8689 C   0  0  0  0  0  0  0  0  0  0  0  0
    4.9374    2.9757   -0.3166 C   0  0  0  0  0  0  0  0  0  0  0  0
    3.9799    4.4137   -0.6567 S   0  0  0  0  0  0  0  0  0  0  0  0
    4.2109    5.4630    0.8059 C   0  0  0  0  0  0  0  0  0  0  0  0
    4.9780    2.0039   -1.3165 C   0  0  0  0  0  0  0  0  0  0  0  0
    5.6743    0.8326   -1.1219 C   0  0  0  0  0  0  0  0  0  0  0  0
    5.0032   -1.9271    0.0090 C   0  0  0  0  0  0  0  0  0  0  0  0
    3.6867   -0.8639    0.3638 S   0  0  0  0  0  0  0  0  0  0  0  0
    2.5304   -2.1807    0.1377 C   0  0  0  0  0  0  0  0  0  0  0  0
    3.1465   -3.3746   -0.1628 C   0  0  0  0  0  0  0  0  0  0  0  0
    2.5291   -4.5898   -0.3976 N   0  0  0  0  0  0  0  0  0  0  0  0
    1.4491   -5.0354    0.3702 C   0  0  0  0  0  0  0  0  0  0  0  0
    1.3076   -4.6766    1.7104 C   0  0  0  0  0  0  0  0  0  0  0  0
    0.2753   -5.1908    2.4655 C   0  0  0  0  0  0  0  0  0  0  0  0
   -0.6433   -6.0718    1.9023 C   0  0  0  0  0  0  0  0  0  0  0  0
   -1.9194   -6.7093    2.9474 S   0  0  0  0  0  0  0  0  0  0  0  0
   -2.4467   -8.2204    2.0865 C   0  0  0  0  0  0  0  0  0  0  0  0
   -0.5251   -6.4118    0.5616 C   0  0  0  0  0  0  0  0  0  0  0  0
    0.5125   -5.9019   -0.1901 C   0  0  0  0  0  0  0  0  0  0  0  0
    3.1307   -5.4528   -1.3326 C   0  0  0  0  0  0  0  0  0  0  0  0
    3.2297   -6.8229   -1.0929 C   0  0  0  0  0  0  0  0  0  0  0  0
    3.8120   -7.6491   -2.0275 C   0  0  0  0  0  0  0  0  0  0  0  0
    4.3253   -7.1286   -3.2148 C   0  0  0  0  0  0  0  0  0  0  0  0
    5.0085   -8.2857   -4.3556 S   0  0  0  0  0  0  0  0  0  0  0  0
    5.3580   -7.2811   -5.8263 C   0  0  0  0  0  0  0  0  0  0  0  0
    4.2632   -5.7613   -3.4402 C   0  0  0  0  0  0  0  0  0  0  0  0
    3.6632   -4.9360   -2.5099 C   0  0  0  0  0  0  0  0  0  0  0  0
    4.5594   -3.2139   -0.2491 C   0  0  0  0  0  0  0  0  0  0  0  0
    5.8504   -4.3121   -0.5637 S   0  0  0  0  0  0  0  0  0  0  0  0
    1.1543   -1.7528    0.2702 C   0  0  0  0  0  0  0  0  0  0  0  0
    0.4855   -1.0270   -0.6926 C   0  0  0  0  0  0  0  0  0  0  0  0
    0.8735   -0.9269   -2.0231 N   0  0  0  0  0  0  0  0  0  0  0  0
    1.0854   -2.0446   -2.8281 C   0  0  0  0  0  0  0  0  0  0  0  0
    0.4801   -3.2704   -2.5644 C   0  0  0  0  0  0  0  0  0  0  0  0
    0.6573   -4.3409   -3.4203 C   0  0  0  0  0  0  0  0  0  0  0  0
    1.4600   -4.2168   -4.5439 C   0  0  0  0  0  0  0  0  0  0  0  0
    1.7675   -5.5296   -5.6866 S   0  0  0  0  0  0  0  0  0  0  0  0
    1.1472   -7.0063   -4.8351 C   0  0  0  0  0  0  0  0  0  0  0  0
    2.0754   -2.9954   -4.8088 C   0  0  0  0  0  0  0  0  0  0  0  0
    1.8923   -1.9248   -3.9636 C   0  0  0  0  0  0  0  0  0  0  0  0
    0.7635    0.3431   -2.6276 C   0  0  0  0  0  0  0  0  0  0  0  0
   -0.0004    0.5215   -3.7763 C   0  0  0  0  0  0  0  0  0  0  0  0
   -0.1031    1.7653   -4.3662 C   0  0  0  0  0  0  0  0  0  0  0  0
    0.5782    2.8465   -3.8230 C   0  0  0  0  0  0  0  0  0  0  0  0
    0.5202    4.4776   -4.4891 S   0  0  0  0  0  0  0  0  0  0  0  0
   -0.1673    4.2269   -6.1505 C   0  0  0  0  0  0  0  0  0  0  0  0
    1.3427    2.6698   -2.6704 C   0  0  0  0  0  0  0  0  0  0  0  0
    1.4254    1.4332   -2.0680 C   0  0  0  0  0  0  0  0  0  0  0  0
   -0.6383   -0.3566   -0.1498 C   0  0  0  0  0  0  0  0  0  0  0  0
   -1.7621    0.7843   -0.7879 S   0  0  0  0  0  0  0  0  0  0  0  0
   -2.5440    0.9157    0.7904 C   0  0  0  0  0  0  0  0  0  0  0  0
   -1.9031    0.1592    1.7651 C   0  0  0  0  0  0  0  0  0  0  0  0
   -2.1872    0.1749    3.1120 N   0  0  0  0  0  0  0  0  0  0  0  0
   -1.8779   -0.9719    3.8684 C   0  0  0  0  0  0  0  0  0  0  0  0
   -2.3230   -2.2249    3.4510 C   0  0  0  0  0  0  0  0  0  0  0  0
   -2.0369   -3.3434    4.1998 C   0  0  0  0  0  0  0  0  0  0  0  0
   -1.2878   -3.2379    5.3709 C   0  0  0  0  0  0  0  0  0  0  0  0
   -0.9646   -4.7446    6.2292 S   0  0  0  0  0  0  0  0  0  0  0  0
   -0.0785   -4.2168    7.7248 C   0  0  0  0  0  0  0  0  0  0  0  0
   -0.8374   -1.9912    5.7855 C   0  0  0  0  0  0  0  0  0  0  0  0
   -1.1344   -0.8683    5.0393 C   0  0  0  0  0  0  0  0  0  0  0  0
   -2.6067    1.3320    3.7794 C   0  0  0  0  0  0  0  0  0  0  0  0
   -2.2669    2.6044    3.3265 C   0  0  0  0  0  0  0  0  0  0  0  0
   -2.7016    3.7286    3.9982 C   0  0  0  0  0  0  0  0  0  0  0  0
   -3.4606    3.6038    5.1531 C   0  0  0  0  0  0  0  0  0  0  0  0
   -4.0536    4.9876    6.0751 S   0  0  0  0  0  0  0  0  0  0  0  0
   -4.0442    6.3322    4.8572 C   0  0  0  0  0  0  0  0  0  0  0  0
   -3.7602    2.3333    5.6377 C   0  0  0  0  0  0  0  0  0  0  0  0
   -3.3593    1.2121    4.9489 C   0  0  0  0  0  0  0  0  0  0  0  0
   -0.8258   -0.5748    1.2038 C   0  0  0  0  0  0  0  0  0  0  0  0
    0.3706   -1.6486    1.8443 S   0  0  0  0  0  0  0  0  0  0  0  0
   -3.7473    1.6674    0.8437 C   0  0  0  0  0  0  0  0  0  0  0  0
   -4.0718    2.6774   -0.0539 C   0  0  0  0  0  0  0  0  0  0  0  0
   -3.1216    3.2748   -0.8899 N   0  0  0  0  0  0  0  0  0  0  0  0
   -3.3772    3.3668   -2.2586 C   0  0  0  0  0  0  0  0  0  0  0  0
   -4.0712    2.3387   -2.8956 C   0  0  0  0  0  0  0  0  0  0  0  0
   -4.3325    2.4072   -4.2476 C   0  0  0  0  0  0  0  0  0  0  0  0
   -3.9182    3.4968   -5.0060 C   0  0  0  0  0  0  0  0  0  0  0  0
   -4.2198    3.5581   -6.4744 C   0  0  0  0  0  0  0  0  0  0  0  0
   -3.2295    4.5169   -4.3636 C   0  0  0  0  0  0  0  0  0  0  0  0
   -2.9557    4.4590   -3.0112 C   0  0  0  0  0  0  0  0  0  0  0  0
   -2.2245    4.1666   -0.2591 C   0  0  0  0  0  0  0  0  0  0  0  0
   -0.8896    4.1864   -0.6479 C   0  0  0  0  0  0  0  0  0  0  0  0
   -0.0064    5.0640   -0.0528 C   0  0  0  0  0  0  0  0  0  0  0  0
   -0.4316    5.9476    0.9338 C   0  0  0  0  0  0  0  0  0  0  0  0
    0.5325    6.9045    1.5672 C   0  0  0  0  0  0  0  0  0  0  0  0
   -1.7651    5.9160    1.3190 C   0  0  0  0  0  0  0  0  0  0  0  0
   -2.6563    5.0304    0.7417 C   0  0  0  0  0  0  0  0  0  0  0  0
   -5.4062    3.0815    0.0840 C   0  0  0  0  0  0  0  0  0  0  0  0
   -6.3724    4.2470   -0.7352 S   0  0  0  0  0  0  0  0  0  0  0  0
   -7.7407    3.8748    0.3203 C   0  0  0  0  0  0  0  0  0  0  0  0
   -7.4529    2.8053    1.1989 C   0  0  0  0  0  0  0  0  0  0  0  0
   -8.3385    2.2526    2.0780 N   0  0  0  0  0  0  0  0  0  0  0  0
   -9.6827    2.0558    1.7266 C   0  0  0  0  0  0  0  0  0  0  0  0
  -10.6986    2.2734    2.6534 C   0  0  0  0  0  0  0  0  0  0  0  0
  -12.0165    2.0784    2.2909 C   0  0  0  0  0  0  0  0  0  0  0  0
  -12.3573    1.6684    1.0071 C   0  0  0  0  0  0  0  0  0  0  0  0
  -13.7897    1.5071    0.6072 C   0  0  0  0  0  0  0  0  0  0  0  0
  -11.3342    1.4405    0.0930 C   0  0  0  0  0  0  0  0  0  0  0  0
  -10.0124    1.6242    0.4429 C   0  0  0  0  0  0  0  0  0  0  0  0
   -7.9267    1.9777    3.3989 C   0  0  0  0  0  0  0  0  0  0  0  0
   -8.3012    0.7888    4.0158 C   0  0  0  0  0  0  0  0  0  0  0  0
   -7.9613    0.5648    5.3344 C   0  0  0  0  0  0  0  0  0  0  0  0
   -7.2639    1.5204    6.0663 C   0  0  0  0  0  0  0  0  0  0  0  0
   -6.9231    1.2700    7.5032 C   0  0  0  0  0  0  0  0  0  0  0  0
   -6.8921    2.7009    5.4355 C   0  0  0  0  0  0  0  0  0  0  0  0
   -7.2027    2.9286    4.1094 C   0  0  0  0  0  0  0  0  0  0  0  0
   -6.1028    2.4194    1.0897 C   0  0  0  0  0  0  0  0  0  0  0  0
   -5.0894    1.2675    1.9028 S   0  0  0  0  0  0  0  0  0  0  0  0
   -8.8961    4.6545    0.2853 C   0  0  0  0  0  0  0  0  0  0  0  0
   -9.0103    5.9357   -0.2035 C   0  0  0  0  0  0  0  0  0  0  0  0
  -10.3270    6.4752   -0.5736 C   0  0  0  0  0  0  0  0  0  0  0  0
  -11.4110    5.9842   -0.3494 O   0  0  0  0  0  0  0  0  0  0  0  0
  -10.0319    7.7201   -1.3350 C   0  0  0  0  0  0  0  0  0  0  0  0
  -10.8940    8.5365   -2.0427 C   0  0  0  0  0  0  0  0  0  0  0  0
  -12.5828    8.2903   -2.0062 Cl  0  0  0  0  0  0  0  0  0  0  0  0
  -10.3469    9.5789   -2.8062 C   0  0  0  0  0  0  0  0  0  0  0  0
  -11.3795   10.6292   -3.6766 Cl  0  0  0  0  0  0  0  0  0  0  0  0
   -8.9658    9.7369   -2.8892 C   0  0  0  0  0  0  0  0  0  0  0  0
   -8.3187   10.9552   -3.9011 Cl  0  0  0  0  0  0  0  0  0  0  0  0
   -8.0945    8.9056   -2.1668 C   0  0  0  0  0  0  0  0  0  0  0  0
   -6.4049    9.0464   -2.4317 Cl  0  0  0  0  0  0  0  0  0  0  0  0
   -8.6387    7.9344   -1.3415 C   0  0  0  0  0  0  0  0  0  0  0  0
   -8.0239    6.9564   -0.4420 C   0  0  0  0  0  0  0  0  0  0  0  0
   -6.8945    7.1601    0.3160 C   0  0  0  0  0  0  0  0  0  0  0  0
   -6.4761    6.2955    1.3460 C   0  0  0  0  0  0  0  0  0  0  0  0
   -6.0823    5.6743    2.2310 N   0  0  0  0  0  0  0  0  0  0  0  0
   -6.1066    8.3282    0.3479 C   0  0  0  0  0  0  0  0  0  0  0  0
   -5.4391    9.2472    0.5181 N   0  0  0  0  0  0  0  0  0  0  0  0
    8.9592   -2.2387   -0.4546 H   0  0  0  0  0  0  0  0  0  0  0  0
    8.9515    1.1357   -0.2075 H   0  0  0  0  0  0  0  0  0  0  0  0
   11.1780    1.1789    0.7834 H   0  0  0  0  0  0  0  0  0  0  0  0
   13.3379    1.3129    1.6593 H   0  0  0  0  0  0  0  0  0  0  0  0
   13.2397   -0.0792    0.5320 H   0  0  0  0  0  0  0  0  0  0  0  0
   14.5064   -0.0192    1.7791 H   0  0  0  0  0  0  0  0  0  0  0  0
   10.1522   -2.1626    3.2487 H   0  0  0  0  0  0  0  0  0  0  0  0
    7.8858   -2.1785    2.2753 H   0  0  0  0  0  0  0  0  0  0  0  0
    6.8573    1.4269    1.9908 H   0  0  0  0  0  0  0  0  0  0  0  0
    5.6266    3.5023    1.6559 H   0  0  0  0  0  0  0  0  0  0  0  0
    3.7975    4.9742    1.6834 H   0  0  0  0  0  0  0  0  0  0  0  0
    5.2642    5.6922    0.9366 H   0  0  0  0  0  0  0  0  0  0  0  0
    3.6604    6.3755    0.5991 H   0  0  0  0  0  0  0  0  0  0  0  0
    4.4552    2.1809   -2.2438 H   0  0  0  0  0  0  0  0  0  0  0  0
    5.7072    0.0851   -1.9002 H   0  0  0  0  0  0  0  0  0  0  0  0
    2.0293   -4.0179    2.1699 H   0  0  0  0  0  0  0  0  0  0  0  0
    0.1848   -4.9306    3.5077 H   0  0  0  0  0  0  0  0  0  0  0  0
   -3.0495   -8.7696    2.8029 H   0  0  0  0  0  0  0  0  0  0  0  0
   -3.0483   -7.9738    1.2162 H   0  0  0  0  0  0  0  0  0  0  0  0
   -1.5737   -8.8035    1.8099 H   0  0  0  0  0  0  0  0  0  0  0  0
   -1.2339   -7.0749    0.0916 H   0  0  0  0  0  0  0  0  0  0  0  0
    0.6110   -6.1900   -1.2247 H   0  0  0  0  0  0  0  0  0  0  0  0
    2.8503   -7.2347   -0.1699 H   0  0  0  0  0  0  0  0  0  0  0  0
    3.8853   -8.7104   -1.8456 H   0  0  0  0  0  0  0  0  0  0  0  0
    5.6855   -7.9816   -6.5882 H   0  0  0  0  0  0  0  0  0  0  0  0
    4.4529   -6.7750   -6.1505 H   0  0  0  0  0  0  0  0  0  0  0  0
    6.1535   -6.5731   -5.6115 H   0  0  0  0  0  0  0  0  0  0  0  0
    4.6660   -5.3220   -4.3372 H   0  0  0  0  0  0  0  0  0  0  0  0
    3.6060   -3.8749   -2.7007 H   0  0  0  0  0  0  0  0  0  0  0  0
   -0.1516   -3.3820   -1.6953 H   0  0  0  0  0  0  0  0  0  0  0  0
    0.1427   -5.2646   -3.2115 H   0  0  0  0  0  0  0  0  0  0  0  0
    0.0625   -6.9804   -4.7800 H   0  0  0  0  0  0  0  0  0  0  0  0
    1.5982   -7.0739   -3.8491 H   0  0  0  0  0  0  0  0  0  0  0  0
    1.4625   -7.8499   -5.4415 H   0  0  0  0  0  0  0  0  0  0  0  0
    2.7014   -2.8999   -5.6828 H   0  0  0  0  0  0  0  0  0  0  0  0
    2.3705   -0.9801   -4.1757 H   0  0  0  0  0  0  0  0  0  0  0  0
   -0.5230   -0.3215   -4.2034 H   0  0  0  0  0  0  0  0  0  0  0  0
   -0.7250    1.8798   -5.2387 H   0  0  0  0  0  0  0  0  0  0  0  0
   -0.0871    5.1875   -6.6499 H   0  0  0  0  0  0  0  0  0  0  0  0
    0.4225    3.4844   -6.6797 H   0  0  0  0  0  0  0  0  0  0  0  0
   -1.2097    3.9313   -6.0813 H   0  0  0  0  0  0  0  0  0  0  0  0
    1.8763    3.5133   -2.2603 H   0  0  0  0  0  0  0  0  0  0  0  0
    2.0141    1.2993   -1.1718 H   0  0  0  0  0  0  0  0  0  0  0  0
   -2.9049   -2.3098    2.5454 H   0  0  0  0  0  0  0  0  0  0  0  0
   -2.3936   -4.3134    3.8921 H   0  0  0  0  0  0  0  0  0  0  0  0
    0.0928   -5.1242    8.2955 H   0  0  0  0  0  0  0  0  0  0  0  0
   -0.6946   -3.5312    8.2990 H   0  0  0  0  0  0  0  0  0  0  0  0
    0.8729   -3.7661    7.4577 H   0  0  0  0  0  0  0  0  0  0  0  0
   -0.2506   -1.8787    6.6825 H   0  0  0  0  0  0  0  0  0  0  0  0
   -0.7848    0.1007    5.3635 H   0  0  0  0  0  0  0  0  0  0  0  0
   -1.6514    2.7259    2.4473 H   0  0  0  0  0  0  0  0  0  0  0  0
   -2.4235    4.6959    3.6152 H   0  0  0  0  0  0  0  0  0  0  0  0
   -4.5435    6.0031    3.9503 H   0  0  0  0  0  0  0  0  0  0  0  0
   -3.0256    6.6544    4.6605 H   0  0  0  0  0  0  0  0  0  0  0  0
   -4.6018    7.1457    5.3114 H   0  0  0  0  0  0  0  0  0  0  0  0
   -4.3168    2.2336    6.5547 H   0  0  0  0  0  0  0  0  0  0  0  0
   -3.6288    0.2319    5.3113 H   0  0  0  0  0  0  0  0  0  0  0  0
   -4.3979    1.4839   -2.3209 H   0  0  0  0  0  0  0  0  0  0  0  0
   -4.8690    1.6003   -4.7266 H   0  0  0  0  0  0  0  0  0  0  0  0
   -3.8319    4.4735   -6.9153 H   0  0  0  0  0  0  0  0  0  0  0  0
   -3.7804    2.7066   -6.9946 H   0  0  0  0  0  0  0  0  0  0  0  0
   -5.2958    3.5256   -6.6417 H   0  0  0  0  0  0  0  0  0  0  0  0
   -2.9120    5.3861   -4.9225 H   0  0  0  0  0  0  0  0  0  0  0  0
   -2.4247    5.2695   -2.5362 H   0  0  0  0  0  0  0  0  0  0  0  0
   -0.5596    3.5142   -1.4234 H   0  0  0  0  0  0  0  0  0  0  0  0
    1.0272    5.0689   -0.3669 H   0  0  0  0  0  0  0  0  0  0  0  0
    1.1649    6.3829    2.2868 H   0  0  0  0  0  0  0  0  0  0  0  0
    0.0051    7.6987    2.0897 H   0  0  0  0  0  0  0  0  0  0  0  0
    1.1773    7.3511    0.8129 H   0  0  0  0  0  0  0  0  0  0  0  0
   -2.1231    6.6133    2.0638 H   0  0  0  0  0  0  0  0  0  0  0  0
   -3.6905    5.0271    1.0550 H   0  0  0  0  0  0  0  0  0  0  0  0
  -10.4490    2.6081    3.6491 H   0  0  0  0  0  0  0  0  0  0  0  0
  -12.7960    2.2612    3.0156 H   0  0  0  0  0  0  0  0  0  0  0  0
  -14.1565    2.4418    0.1818 H   0  0  0  0  0  0  0  0  0  0  0  0
  -13.8994    0.7297   -0.1454 H   0  0  0  0  0  0  0  0  0  0  0  0
  -14.4095    1.2615    1.4661 H   0  0  0  0  0  0  0  0  0  0  0  0
  -11.5768    1.1120   -0.9069 H   0  0  0  0  0  0  0  0  0  0  0  0
   -9.2264    1.4399   -0.2749 H   0  0  0  0  0  0  0  0  0  0  0  0
   -8.8633    0.0534    3.4591 H   0  0  0  0  0  0  0  0  0  0  0  0
   -8.2519   -0.3616    5.8084 H   0  0  0  0  0  0  0  0  0  0  0  0
   -7.7885    0.8902    8.0432 H   0  0  0  0  0  0  0  0  0  0  0  0
   -6.5810    2.1818    7.9864 H   0  0  0  0  0  0  0  0  0  0  0  0
   -6.1335    0.5214    7.5759 H   0  0  0  0  0  0  0  0  0  0  0  0
   -6.3740    3.4668    5.9917 H   0  0  0  0  0  0  0  0  0  0  0  0
   -6.9161    3.8530    3.6296 H   0  0  0  0  0  0  0  0  0  0  0  0
   -9.8220    4.2097    0.6321 H   0  0  0  0  0  0  0  0  0  0  0  0
  1  2  2  0  0  0  0
  2  3  1  0  0  0  0
  3  4  2  0  0  0  0
  3  5  1  0  0  0  0
  5  6  2  0  0  0  0
  6  7  1  0  0  0  0
  6  8  1  0  0  0  0
  8  9  1  0  0  0  0
  8 10  2  0  0  0  0
 10 11  1  0  0  0  0
 10 12  1  0  0  0  0
 12 13  1  0  0  0  0
 12 14  2  0  0  0  0
 14 15  1  0  0  0  0
 15 16  2  0  0  0  0
 16 17  1  0  0  0  0
 17 18  3  0  0  0  0
 16 19  1  0  0  0  0
 19 20  3  0  0  0  0
  1 21  1  0  0  0  0
 21 22  2  0  0  0  0
 22 23  1  0  0  0  0
 23 24  1  0  0  0  0
 24 25  2  0  0  0  0
 25 26  1  0  0  0  0
 26 27  2  0  0  0  0
 27 28  1  0  0  0  0
 28 29  1  0  0  0  0
 27 30  1  0  0  0  0
 30 31  2  0  0  0  0
 23 32  1  0  0  0  0
 32 33  2  0  0  0  0
 33 34  1  0  0  0  0
 34 35  2  0  0  0  0
 35 36  1  0  0  0  0
 36 37  1  0  0  0  0
 35 38  1  0  0  0  0
 38 39  2  0  0  0  0
 22 40  1  0  0  0  0
 40 41  1  0  0  0  0
 41 42  1  0  0  0  0
 42 43  2  0  0  0  0
 43 44  1  0  0  0  0
 44 45  1  0  0  0  0
 45 46  2  0  0  0  0
 46 47  1  0  0  0  0
 47 48  2  0  0  0  0
 48 49  1  0  0  0  0
 49 50  1  0  0  0  0
 48 51  1  0  0  0  0
 51 52  2  0  0  0  0
 44 53  1  0  0  0  0
 53 54  2  0  0  0  0
 54 55  1  0  0  0  0
 55 56  2  0  0  0  0
 56 57  1  0  0  0  0
 57 58  1  0  0  0  0
 56 59  1  0  0  0  0
 59 60  2  0  0  0  0
 43 61  1  0  0  0  0
 61 62  1  0  0  0  0
 42 63  1  0  0  0  0
 63 64  2  0  0  0  0
 64 65  1  0  0  0  0
 65 66  1  0  0  0  0
 66 67  2  0  0  0  0
 67 68  1  0  0  0  0
 68 69  2  0  0  0  0
 69 70  1  0  0  0  0
 70 71  1  0  0  0  0
 69 72  1  0  0  0  0
 72 73  2  0  0  0  0
 65 74  1  0  0  0  0
 74 75  2  0  0  0  0
 75 76  1  0  0  0  0
 76 77  2  0  0  0  0
 77 78  1  0  0  0  0
 78 79  1  0  0  0  0
 77 80  1  0  0  0  0
 80 81  2  0  0  0  0
 64 82  1  0  0  0  0
 82 83  1  0  0  0  0
 83 84  1  0  0  0  0
 84 85  2  0  0  0  0
 85 86  1  0  0  0  0
 86 87  1  0  0  0  0
 87 88  2  0  0  0  0
 88 89  1  0  0  0  0
 89 90  2  0  0  0  0
 90 91  1  0  0  0  0
 91 92  1  0  0  0  0
 90 93  1  0  0  0  0
 93 94  2  0  0  0  0
 86 95  1  0  0  0  0
 95 96  2  0  0  0  0
 96 97  1  0  0  0  0
 97 98  2  0  0  0  0
 98 99  1  0  0  0  0
 99100  1  0  0  0  0
 98101  1  0  0  0  0
101102  2  0  0  0  0
 85103  1  0  0  0  0
103104  1  0  0  0  0
 84105  1  0  0  0  0
105106  2  0  0  0  0
106107  1  0  0  0  0
107108  1  0  0  0  0
108109  2  0  0  0  0
109110  1  0  0  0  0
110111  2  0  0  0  0
111112  1  0  0  0  0
111113  1  0  0  0  0
113114  2  0  0  0  0
107115  1  0  0  0  0
115116  2  0  0  0  0
116117  1  0  0  0  0
117118  2  0  0  0  0
118119  1  0  0  0  0
118120  1  0  0  0  0
120121  2  0  0  0  0
106122  1  0  0  0  0
122123  1  0  0  0  0
123124  1  0  0  0  0
124125  2  0  0  0  0
125126  1  0  0  0  0
126127  1  0  0  0  0
127128  2  0  0  0  0
128129  1  0  0  0  0
129130  2  0  0  0  0
130131  1  0  0  0  0
130132  1  0  0  0  0
132133  2  0  0  0  0
126134  1  0  0  0  0
134135  2  0  0  0  0
135136  1  0  0  0  0
136137  2  0  0  0  0
137138  1  0  0  0  0
137139  1  0  0  0  0
139140  2  0  0  0  0
125141  1  0  0  0  0
141142  1  0  0  0  0
124143  1  0  0  0  0
143144  2  0  0  0  0
144145  1  0  0  0  0
145146  2  0  0  0  0
145147  1  0  0  0  0
147148  2  0  0  0  0
148149  1  0  0  0  0
148150  1  0  0  0  0
150151  1  0  0  0  0
150152  2  0  0  0  0
152153  1  0  0  0  0
152154  1  0  0  0  0
154155  1  0  0  0  0
154156  2  0  0  0  0
156157  1  0  0  0  0
157158  2  0  0  0  0
158159  1  0  0  0  0
159160  3  0  0  0  0
158161  1  0  0  0  0
161162  3  0  0  0  0
 15  2  1  0  0  0  0
 62 21  1  0  0  0  0
104 63  1  0  0  0  0
142105  1  0  0  0  0
157144  1  0  0  0  0
 14  5  1  0  0  0  0
 31 24  1  0  0  0  0
 39 32  1  0  0  0  0
 61 40  2  0  0  0  0
 73 66  1  0  0  0  0
 81 74  1  0  0  0  0
103 82  2  0  0  0  0
114108  1  0  0  0  0
121115  1  0  0  0  0
141122  2  0  0  0  0
156147  1  0  0  0  0
 52 45  1  0  0  0  0
 60 53  1  0  0  0  0
 94 87  1  0  0  0  0
102 95  1  0  0  0  0
133127  1  0  0  0  0
140134  1  0  0  0  0
  1163  1  0  0  0  0
 25164  1  0  0  0  0
 26165  1  0  0  0  0
 29166  1  0  0  0  0
 29167  1  0  0  0  0
 29168  1  0  0  0  0
 30169  1  0  0  0  0
 31170  1  0  0  0  0
 33171  1  0  0  0  0
 34172  1  0  0  0  0
 37173  1  0  0  0  0
 37174  1  0  0  0  0
 37175  1  0  0  0  0
 38176  1  0  0  0  0
 39177  1  0  0  0  0
 46178  1  0  0  0  0
 47179  1  0  0  0  0
 50180  1  0  0  0  0
 50181  1  0  0  0  0
 50182  1  0  0  0  0
 51183  1  0  0  0  0
 52184  1  0  0  0  0
 54185  1  0  0  0  0
 55186  1  0  0  0  0
 58187  1  0  0  0  0
 58188  1  0  0  0  0
 58189  1  0  0  0  0
 59190  1  0  0  0  0
 60191  1  0  0  0  0
 67192  1  0  0  0  0
 68193  1  0  0  0  0
 71194  1  0  0  0  0
 71195  1  0  0  0  0
 71196  1  0  0  0  0
 72197  1  0  0  0  0
 73198  1  0  0  0  0
 75199  1  0  0  0  0
 76200  1  0  0  0  0
 79201  1  0  0  0  0
 79202  1  0  0  0  0
 79203  1  0  0  0  0
 80204  1  0  0  0  0
 81205  1  0  0  0  0
 88206  1  0  0  0  0
 89207  1  0  0  0  0
 92208  1  0  0  0  0
 92209  1  0  0  0  0
 92210  1  0  0  0  0
 93211  1  0  0  0  0
 94212  1  0  0  0  0
 96213  1  0  0  0  0
 97214  1  0  0  0  0
100215  1  0  0  0  0
100216  1  0  0  0  0
100217  1  0  0  0  0
101218  1  0  0  0  0
102219  1  0  0  0  0
109220  1  0  0  0  0
110221  1  0  0  0  0
112222  1  0  0  0  0
112223  1  0  0  0  0
112224  1  0  0  0  0
113225  1  0  0  0  0
114226  1  0  0  0  0
116227  1  0  0  0  0
117228  1  0  0  0  0
119229  1  0  0  0  0
119230  1  0  0  0  0
119231  1  0  0  0  0
120232  1  0  0  0  0
121233  1  0  0  0  0
128234  1  0  0  0  0
129235  1  0  0  0  0
131236  1  0  0  0  0
131237  1  0  0  0  0
131238  1  0  0  0  0
132239  1  0  0  0  0
133240  1  0  0  0  0
135241  1  0  0  0  0
136242  1  0  0  0  0
138243  1  0  0  0  0
138244  1  0  0  0  0
138245  1  0  0  0  0
139246  1  0  0  0  0
140247  1  0  0  0  0
143248  1  0  0  0  0
M  END
