183

C          4.04790      -11.49440        1.60170
C          4.65630      -12.32200        0.71890
C          4.81350      -12.05380       -0.73440
O          4.24340      -11.22680       -1.40670
C          5.91380      -12.94020       -1.17090
C          6.53620      -12.98170       -2.40770
Cl         5.99140      -12.02380       -3.71080
C          7.64080      -13.82970       -2.56590
Cl         8.42070      -13.94040       -4.08300
C          8.13010      -14.55240       -1.47680
Cl         9.53450      -15.50710       -1.67210
C          7.50300      -14.49740       -0.22240
Cl         8.26000      -15.27620        1.10470
C          6.34760      -13.73510       -0.08720
C          5.45900      -13.49740        1.04060
C          5.20520      -14.31670        2.10710
C          5.68360      -15.63120        2.29740
N          5.93460      -16.73170        2.50320
C          4.25600      -14.00130        3.10720
N          3.50200      -13.80940        3.95060
C          3.17450      -10.38810        1.28360
C          3.30200       -9.19210        2.01090
C          2.47570       -8.13890        1.70230
C          2.48220       -6.75160        2.23900
O          3.24060       -6.27680        3.05090
C          1.37690       -6.07500        1.51430
C          0.75410       -6.98920        0.64130
C          1.46110       -8.25980        0.72880
C          1.31190       -9.44640        0.03500
C          2.17970      -10.49310        0.30590
C         -0.33160       -6.58700       -0.11310
C         -0.72440       -5.25750       -0.05780
C         -0.03870       -4.32490        0.72110
C          0.99660       -4.75680        1.56500
C         -0.30680       -2.90580        0.59540
C          0.64530       -1.91060        0.44710
N          2.01380       -2.11160        0.34940
C          2.49570       -3.26170       -0.29660
C          3.58190       -3.97000        0.20750
C          3.95470       -5.17850       -0.35110
C          3.23820       -5.70310       -1.41810
S          3.50340       -7.29420       -2.12980
C          4.83770       -8.01910       -1.14420
C          2.20340       -4.95340       -1.97760
C          1.84320       -3.74500       -1.43230
C          2.88440       -1.15720        0.88470
C          4.10580       -0.88230        0.26760
C          4.94710        0.07190        0.79180
C          4.58950        0.78230        1.93690
S          5.74980        1.98060        2.51380
C          4.92670        2.73330        3.94620
C          3.37910        0.51080        2.55670
C          2.53970       -0.45580        2.03740
C          0.02720       -0.64370        0.29660
S          0.60210        0.96660        0.06250
C         -1.04910        1.56820       -0.05810
C         -1.98350        0.56730        0.10190
N         -3.38370        0.72240        0.16590
C         -3.86620        0.93510        1.47670
C         -3.40390        2.02690        2.20910
C         -3.86150        2.25520        3.48720
C         -4.78450        1.39190        4.07340
S         -5.31570        1.80070        5.70600
C         -6.55960        0.53690        6.09310
C         -5.20880        0.27430        3.36850
C         -4.74390        0.04490        2.08750
C         -4.16300        0.15600       -0.83640
C         -3.56920       -0.39300       -1.97650
C         -4.33790       -0.88670       -3.00550
C         -5.72690       -0.86090       -2.92870
S         -6.61030       -1.53840       -4.30190
C         -8.33540       -1.07580       -3.97630
C         -6.32740       -0.31560       -1.80350
C         -5.55650        0.19950       -0.78070
C         -1.35680       -0.68680        0.29950
S         -1.94770       -2.29970        0.48470
C         -1.18660        2.97150       -0.31530
C         -2.13580        3.67310       -1.02940
N         -3.25890        3.13740       -1.69360
C         -4.52730        3.39960       -1.18010
C         -4.68120        4.08530        0.02490
C         -5.93530        4.28580        0.56720
C         -7.06470        3.82220       -0.08330
C         -6.92000        3.13760       -1.27820
C         -5.66950        2.91350       -1.81830
C         -3.02910        2.91000       -3.07040
C         -1.96960        2.09100       -3.45030
C         -1.71850        1.84940       -4.78730
C         -2.51060        2.42920       -5.76320
C         -3.53910        3.27820       -5.39070
C         -3.79300        3.52950       -4.05570
C         -1.78620        5.03940       -1.13210
S         -2.55290        6.39220       -1.86680
C         -1.19360        7.43130       -1.41540
C         -0.24140        6.75020       -0.63120
N          0.81370        7.30170        0.03900
C          1.92530        6.49160        0.36320
C          2.48050        6.56320        1.63690
C          3.57670        5.78230        1.95220
C          4.11870        4.92320        1.00990
C          3.56400        4.85310       -0.25710
C          2.47450        5.63680       -0.58770
C          0.84710        8.64850        0.42710
C          2.04070        9.36380        0.33480
C          2.07720       10.70120        0.68470
C          0.93290       11.33950        1.13120
C         -0.24750       10.62260        1.25660
C         -0.29380        9.28640        0.91160
C         -0.59030        5.38330       -0.51810
S          0.12600        4.00130        0.23920
C         -1.25010        8.75960       -1.85910
C         -0.17910        9.59260       -2.07310
C          1.19580        9.11730       -2.34830
O          1.58380        7.96730       -2.40630
C          1.93390       10.34070       -2.66790
S          3.54470       10.73390       -3.08660
C          3.09830       12.41790       -3.17750
Cl         4.26750       13.59030       -3.57780
C          1.77980       12.65550       -2.90180
C          1.11090       11.45340       -2.61020
C         -0.22070       11.02750       -2.21910
C         -1.25870       11.86760       -1.90950
C         -2.49550       11.44540       -1.38590
N         -3.50960       11.16260       -0.92720
C         -1.14730       13.26590       -2.03920
N         -1.07350       14.40710       -2.13710
H          4.26160      -11.62230        2.65660
H          4.06310       -9.08710        2.77050
H          0.54550       -9.55840       -0.71560
H          2.06440      -11.42510       -0.22400
H         -0.84810       -7.27880       -0.76020
H         -1.54730       -4.91680       -0.66970
H          1.49020       -4.06870        2.23380
H          4.11850       -3.59260        1.06490
H          4.78880       -5.71120        0.07600
H          4.88340       -9.05900       -1.45460
H          4.58960       -7.96460       -0.08870
H          5.77660       -7.51630       -1.35850
H          1.68180       -5.34340       -2.83770
H          1.03420       -3.17690       -1.86650
H          4.38350       -1.41930       -0.62670
H          5.89150        0.28620        0.31540
H          4.78330        1.99020        4.72530
H          3.98370        3.17620        3.63860
H          5.60330        3.50610        4.29800
H          3.07650        1.03360        3.44920
H          1.60950       -0.67440        2.54150
H         -2.68160        2.69680        1.77140
H         -3.51230        3.10860        4.04810
H         -6.94740        0.80010        7.07230
H         -7.35920        0.56830        5.35890
H         -6.09630       -0.44470        6.13330
H         -5.89020       -0.43690        3.80670
H         -5.05660       -0.84540        1.56260
H         -2.49570       -0.42460       -2.06980
H         -3.86590       -1.29780       -3.88460
H         -8.70590       -1.59930       -3.09960
H         -8.89320       -1.38860       -4.85340
H         -8.40950        0.00070       -3.85440
H         -7.40030       -0.26830       -1.71070
H         -6.04840        0.66120        0.06050
H         -3.81680        4.46860        0.54490
H         -6.02700        4.81510        1.50410
H         -8.04500        3.99010        0.33590
H         -7.79190        2.76290       -1.79460
H         -5.57230        2.34890       -2.73240
H         -1.34050        1.64770       -2.69380
H         -0.89890        1.20400       -5.06720
H         -2.31810        2.23350       -6.80700
H         -4.14210        3.76120       -6.14520
H         -4.57450        4.21870       -3.77310
H          2.05230        7.23180        2.36970
H          4.00870        5.84840        2.94000
H          4.97640        4.31660        1.25570
H          3.99020        4.19230       -0.99640
H          2.06280        5.62510       -1.58460
H          2.93010        8.86580       -0.02140
H          3.00360       11.24870        0.59640
H          0.96000       12.38740        1.38750
H         -1.13990       11.10670        1.62340
H         -1.21610        8.73490        1.01530
H         -2.24220        9.13380       -2.08360
H          1.33460       13.63270       -2.91640
