92

C         -0.93390        7.79180       -0.57410
C          0.22730        8.50450       -0.52140
C          1.48210        8.04320        0.11580
O          1.71880        6.96980        0.61910
C          2.35330        9.24330        0.17060
C          3.61220        9.36230        0.73270
Cl         4.45380        8.00160        1.32210
C          4.19040       10.63700        0.80810
Cl         5.76150       10.82580        1.45520
C          3.46790       11.75600        0.39610
Cl         4.14960       13.31160        0.59470
C          2.18660       11.63100       -0.16530
Cl         1.29460       13.05980       -0.48580
C          1.65950       10.35770       -0.34420
C          0.40960        9.88500       -0.93160
C         -0.33830       10.49380       -1.90310
C         -1.49790        9.91350       -2.46880
N         -2.44390        9.51510       -2.98150
C         -0.00680       11.66810       -2.61360
N          0.20780       12.55090       -3.31440
C         -1.05870        6.38460       -0.41320
C         -0.09670        5.44810       -0.84020
C         -0.26100        4.02170       -0.63400
N          0.75870        3.32840       -1.15840
S          1.78570        4.34880       -1.82720
N          1.01750        5.71770       -1.52370
C         -1.39780        3.47410       -0.02340
C         -2.38940        4.39500        0.34040
N         -3.55120        4.11470        0.94370
S         -4.35620        5.46970        1.18400
N         -3.28870        6.50220        0.57940
C         -2.23110        5.82140        0.13190
C         -1.51600        2.04650        0.21870
C         -2.64210        1.32590       -0.12260
F         -3.67240        1.92760       -0.73050
C         -2.70950       -0.06510        0.05020
F         -3.80140       -0.69260       -0.40590
C         -1.65570       -0.78950        0.57100
C         -0.49500       -0.07050        0.96980
N          0.54050       -0.71900        1.52170
C          1.62250       -0.06370        1.85030
C          2.76400       -0.88750        2.36080
C          3.69250       -1.24790        1.19730
C          1.68140        1.35350        1.69630
N          0.66050        2.00340        1.20410
C         -0.42750        1.33570        0.79660
C          2.83370        2.18870        2.16340
C          2.65560        2.55940        3.63850
C         -1.70270       -2.23890        0.67770
C         -2.80080       -2.91200        1.23110
C         -2.87670       -4.35870        1.28260
N         -4.01710       -4.77060        1.84170
S         -4.87510       -3.48980        2.27980
N         -3.88020       -2.34570        1.78550
C         -1.86910       -5.18800        0.75110
C         -0.72520       -4.50670        0.29250
N          0.41300       -5.06980       -0.11740
S          1.41840       -3.92000       -0.58990
N          0.51310       -2.64470       -0.27480
C         -0.65120       -3.05740        0.24360
C         -2.02040       -6.60380        0.74350
C         -1.52570       -7.45090       -0.20270
C         -1.10050       -7.04670       -1.56730
O         -1.09310       -5.93990       -2.05690
C         -0.81680       -8.31390       -2.27860
C         -0.38620       -8.47940       -3.57940
C         -0.20040       -9.77220       -4.05370
Cl         0.34420      -10.04910       -5.66070
C         -0.46280      -10.85460       -3.20980
F         -0.28800      -12.09690       -3.67490
C         -0.90160      -10.69600       -1.90480
C         -1.07950       -9.40440       -1.43230
C         -1.51030       -8.90060       -0.13160
C         -1.76910       -9.66420        0.97480
C         -2.09270       -9.15970        2.25330
N         -2.33590       -8.83730        3.32780
C         -1.71930      -11.07480        0.98920
N         -1.70080      -12.22000        1.06030
H         -1.87260        8.31730       -0.69990
H          2.35450       -1.80380        2.78720
H          3.31980       -0.35450        3.13150
H          3.12870       -1.76160        0.42250
H          4.13680       -0.35530        0.76290
H          4.49030       -1.89940        1.54440
H          2.84690        3.10440        1.57160
H          3.77610        1.66010        2.02320
H          3.49120        3.16930        3.97150
H          1.73800        3.12730        3.76860
H          2.60250        1.67030        4.26360
H         -2.62740       -6.99790        1.54930
H         -0.19710       -7.62390       -4.20800
H         -1.09190      -11.57380       -1.30900
