
  xtb     02112205013D
 energy: -271.141864229695 gnorm: 0.000499516159 xtb: 6.4.1 (unknown)
134147  0     0  0            999 V2000
    4.9265   -2.5584    5.2002 C   0  0  0  0  0  0  0  0  0  0  0  0
    6.1757   -2.0231    5.3048 C   0  0  0  0  0  0  0  0  0  0  0  0
    6.6971   -0.7279    4.8040 C   0  0  0  0  0  0  0  0  0  0  0  0
    6.0927    0.2873    4.5444 O   0  0  0  0  0  0  0  0  0  0  0  0
    8.1661   -0.9183    4.7046 C   0  0  0  0  0  0  0  0  0  0  0  0
    9.1030   -0.0836    4.1215 C   0  0  0  0  0  0  0  0  0  0  0  0
    8.6736    1.4492    3.5135 Cl  0  0  0  0  0  0  0  0  0  0  0  0
   10.4231   -0.5389    4.0132 C   0  0  0  0  0  0  0  0  0  0  0  0
   11.6167    0.4653    3.3139 Cl  0  0  0  0  0  0  0  0  0  0  0  0
   10.7566   -1.8268    4.4317 C   0  0  0  0  0  0  0  0  0  0  0  0
   12.3521   -2.3974    4.1961 Cl  0  0  0  0  0  0  0  0  0  0  0  0
    9.8032   -2.6681    5.0242 C   0  0  0  0  0  0  0  0  0  0  0  0
   10.2364   -4.2946    5.3589 Cl  0  0  0  0  0  0  0  0  0  0  0  0
    8.5175   -2.1811    5.2197 C   0  0  0  0  0  0  0  0  0  0  0  0
    7.3224   -2.7754    5.8051 C   0  0  0  0  0  0  0  0  0  0  0  0
    7.2635   -3.7038    6.8064 C   0  0  0  0  0  0  0  0  0  0  0  0
    8.3652   -4.1991    7.5388 C   0  0  0  0  0  0  0  0  0  0  0  0
    9.1795   -4.5882    8.2470 N   0  0  0  0  0  0  0  0  0  0  0  0
    6.0558   -4.1667    7.3803 C   0  0  0  0  0  0  0  0  0  0  0  0
    5.1254   -4.5878    7.9034 N   0  0  0  0  0  0  0  0  0  0  0  0
    3.7156   -2.0158    4.6782 C   0  0  0  0  0  0  0  0  0  0  0  0
    3.4006   -0.6677    4.5281 C   0  0  0  0  0  0  0  0  0  0  0  0
    2.2656   -0.2417    3.8543 C   0  0  0  0  0  0  0  0  0  0  0  0
    1.3347   -1.1189    3.3048 C   0  0  0  0  0  0  0  0  0  0  0  0
    1.5134   -2.4926    3.6034 C   0  0  0  0  0  0  0  0  0  0  0  0
    0.7265   -3.5070    3.2522 N   0  0  0  0  0  0  0  0  0  0  0  0
    1.4191   -4.8849    3.7190 S   0  0  0  0  0  0  0  0  0  0  0  0
    2.7604   -4.2629    4.3562 N   0  0  0  0  0  0  0  0  0  0  0  0
    2.7123   -2.9377    4.2609 C   0  0  0  0  0  0  0  0  0  0  0  0
    0.3379   -0.6787    2.3770 C   0  0  0  0  0  0  0  0  0  0  0  0
    0.5147    0.2857    1.3883 C   0  0  0  0  0  0  0  0  0  0  0  0
    1.7000    0.9214    1.0681 N   0  0  0  0  0  0  0  0  0  0  0  0
    1.5890    2.1679    0.4196 C   0  0  0  0  0  0  0  0  0  0  0  0
    0.7808    3.1608    0.9741 C   0  0  0  0  0  0  0  0  0  0  0  0
    0.5191    4.3147    0.2699 C   0  0  0  0  0  0  0  0  0  0  0  0
    1.0568    4.4951   -1.0018 C   0  0  0  0  0  0  0  0  0  0  0  0
    0.5632    5.9431   -1.8814 S   0  0  0  0  0  0  0  0  0  0  0  0
    0.8550    5.4880   -3.6164 C   0  0  0  0  0  0  0  0  0  0  0  0
    1.9342    3.5487   -1.5169 C   0  0  0  0  0  0  0  0  0  0  0  0
    2.2002    2.3931   -0.8093 C   0  0  0  0  0  0  0  0  0  0  0  0
    2.9321    0.2657    1.1565 C   0  0  0  0  0  0  0  0  0  0  0  0
    4.0837    0.9821    1.4820 C   0  0  0  0  0  0  0  0  0  0  0  0
    5.2771    0.3253    1.6894 C   0  0  0  0  0  0  0  0  0  0  0  0
    5.3421   -1.0613    1.5852 C   0  0  0  0  0  0  0  0  0  0  0  0
    6.8865   -1.8253    1.9752 S   0  0  0  0  0  0  0  0  0  0  0  0
    6.4641   -3.5806    2.1724 C   0  0  0  0  0  0  0  0  0  0  0  0
    4.2190   -1.7724    1.1816 C   0  0  0  0  0  0  0  0  0  0  0  0
    3.0301   -1.1114    0.9591 C   0  0  0  0  0  0  0  0  0  0  0  0
   -0.6744    0.4594    0.6416 C   0  0  0  0  0  0  0  0  0  0  0  0
   -1.1230    1.5254   -0.6356 S   0  0  0  0  0  0  0  0  0  0  0  0
   -2.7047    0.7775   -0.7286 C   0  0  0  0  0  0  0  0  0  0  0  0
   -2.8946   -0.2000    0.2522 C   0  0  0  0  0  0  0  0  0  0  0  0
   -4.0813   -0.8502    0.5233 N   0  0  0  0  0  0  0  0  0  0  0  0
   -5.3120   -0.1846    0.4219 C   0  0  0  0  0  0  0  0  0  0  0  0
   -5.4152    1.1811    0.6880 C   0  0  0  0  0  0  0  0  0  0  0  0
   -6.6183    1.8282    0.5315 C   0  0  0  0  0  0  0  0  0  0  0  0
   -7.7525    1.1318    0.1126 C   0  0  0  0  0  0  0  0  0  0  0  0
   -9.2255    2.0781   -0.0707 S   0  0  0  0  0  0  0  0  0  0  0  0
  -10.4037    0.9180   -0.8186 C   0  0  0  0  0  0  0  0  0  0  0  0
   -7.6611   -0.2345   -0.1207 C   0  0  0  0  0  0  0  0  0  0  0  0
   -6.4513   -0.8832    0.0308 C   0  0  0  0  0  0  0  0  0  0  0  0
   -4.0135   -2.1346    1.0844 C   0  0  0  0  0  0  0  0  0  0  0  0
   -4.8331   -2.5020    2.1512 C   0  0  0  0  0  0  0  0  0  0  0  0
   -4.6818   -3.7358    2.7430 C   0  0  0  0  0  0  0  0  0  0  0  0
   -3.7096   -4.6244    2.2880 C   0  0  0  0  0  0  0  0  0  0  0  0
   -3.5290   -6.1482    3.1572 S   0  0  0  0  0  0  0  0  0  0  0  0
   -1.8143   -6.6130    2.7727 C   0  0  0  0  0  0  0  0  0  0  0  0
   -2.9342   -4.2863    1.1869 C   0  0  0  0  0  0  0  0  0  0  0  0
   -3.0884   -3.0519    0.5905 C   0  0  0  0  0  0  0  0  0  0  0  0
   -1.7132   -0.3799    1.0157 C   0  0  0  0  0  0  0  0  0  0  0  0
   -1.2434   -1.4308    2.3139 S   0  0  0  0  0  0  0  0  0  0  0  0
   -3.5601    1.2348   -1.7755 C   0  0  0  0  0  0  0  0  0  0  0  0
   -4.5745    0.4851   -2.3686 C   0  0  0  0  0  0  0  0  0  0  0  0
   -5.3304    0.9699   -3.4251 C   0  0  0  0  0  0  0  0  0  0  0  0
   -5.1184    2.2187   -4.0101 C   0  0  0  0  0  0  0  0  0  0  0  0
   -4.1447    3.0439   -3.3874 C   0  0  0  0  0  0  0  0  0  0  0  0
   -3.8587    4.3156   -3.6550 N   0  0  0  0  0  0  0  0  0  0  0  0
   -2.6748    4.8029   -2.6869 S   0  0  0  0  0  0  0  0  0  0  0  0
   -2.4886    3.4422   -1.8532 N   0  0  0  0  0  0  0  0  0  0  0  0
   -3.3557    2.5376   -2.3046 C   0  0  0  0  0  0  0  0  0  0  0  0
   -5.8578    2.6323   -5.1559 C   0  0  0  0  0  0  0  0  0  0  0  0
   -5.3942    3.4482   -6.1478 C   0  0  0  0  0  0  0  0  0  0  0  0
   -3.9647    3.7198   -6.4146 C   0  0  0  0  0  0  0  0  0  0  0  0
   -2.9944    3.2643   -5.8531 O   0  0  0  0  0  0  0  0  0  0  0  0
   -3.9422    4.5273   -7.6583 C   0  0  0  0  0  0  0  0  0  0  0  0
   -2.8438    5.0156   -8.3421 C   0  0  0  0  0  0  0  0  0  0  0  0
   -1.2736    4.9173   -7.6835 Cl  0  0  0  0  0  0  0  0  0  0  0  0
   -3.0483    5.6037   -9.5975 C   0  0  0  0  0  0  0  0  0  0  0  0
   -1.7267    6.2635  -10.4592 Cl  0  0  0  0  0  0  0  0  0  0  0  0
   -4.3219    5.6071  -10.1637 C   0  0  0  0  0  0  0  0  0  0  0  0
   -4.5314    6.2253  -11.7449 Cl  0  0  0  0  0  0  0  0  0  0  0  0
   -5.4326    5.1016   -9.4679 C   0  0  0  0  0  0  0  0  0  0  0  0
   -6.9240    4.9748  -10.3050 Cl  0  0  0  0  0  0  0  0  0  0  0  0
   -5.2504    4.6325   -8.1722 C   0  0  0  0  0  0  0  0  0  0  0  0
   -6.1790    4.1051   -7.1749 C   0  0  0  0  0  0  0  0  0  0  0  0
   -7.5186    4.3803   -7.0719 C   0  0  0  0  0  0  0  0  0  0  0  0
   -8.3609    3.8329   -6.0788 C   0  0  0  0  0  0  0  0  0  0  0  0
   -9.1181    3.4112   -5.3256 N   0  0  0  0  0  0  0  0  0  0  0  0
   -8.2338    5.3467   -7.8112 C   0  0  0  0  0  0  0  0  0  0  0  0
   -8.8833    6.1713   -8.2756 N   0  0  0  0  0  0  0  0  0  0  0  0
    4.8311   -3.6092    5.4545 H   0  0  0  0  0  0  0  0  0  0  0  0
    4.0793    0.0743    4.9111 H   0  0  0  0  0  0  0  0  0  0  0  0
    2.1071    0.8186    3.7332 H   0  0  0  0  0  0  0  0  0  0  0  0
    0.3325    3.0012    1.9435 H   0  0  0  0  0  0  0  0  0  0  0  0
   -0.1273    5.0737    0.6811 H   0  0  0  0  0  0  0  0  0  0  0  0
    0.3411    6.2381   -4.2096 H   0  0  0  0  0  0  0  0  0  0  0  0
    1.9170    5.5103   -3.8430 H   0  0  0  0  0  0  0  0  0  0  0  0
    0.4305    4.5073   -3.8085 H   0  0  0  0  0  0  0  0  0  0  0  0
    2.3974    3.6908   -2.4799 H   0  0  0  0  0  0  0  0  0  0  0  0
    2.8567    1.6422   -1.2237 H   0  0  0  0  0  0  0  0  0  0  0  0
    4.0288    2.0536    1.5993 H   0  0  0  0  0  0  0  0  0  0  0  0
    6.1593    0.8776    1.9681 H   0  0  0  0  0  0  0  0  0  0  0  0
    7.3430   -4.0453    2.6095 H   0  0  0  0  0  0  0  0  0  0  0  0
    6.2579   -4.0295    1.2053 H   0  0  0  0  0  0  0  0  0  0  0  0
    5.6162   -3.6806    2.8448 H   0  0  0  0  0  0  0  0  0  0  0  0
    4.2598   -2.8397    1.0333 H   0  0  0  0  0  0  0  0  0  0  0  0
    2.1625   -1.6715    0.6430 H   0  0  0  0  0  0  0  0  0  0  0  0
   -4.5477    1.7318    1.0185 H   0  0  0  0  0  0  0  0  0  0  0  0
   -6.6991    2.8848    0.7346 H   0  0  0  0  0  0  0  0  0  0  0  0
  -10.6332    0.1145   -0.1247 H   0  0  0  0  0  0  0  0  0  0  0  0
  -11.2983    1.5004   -1.0150 H   0  0  0  0  0  0  0  0  0  0  0  0
  -10.0015    0.5369   -1.7523 H   0  0  0  0  0  0  0  0  0  0  0  0
   -8.5217   -0.8054   -0.4289 H   0  0  0  0  0  0  0  0  0  0  0  0
   -6.3850   -1.9439   -0.1638 H   0  0  0  0  0  0  0  0  0  0  0  0
   -5.5636   -1.8031    2.5295 H   0  0  0  0  0  0  0  0  0  0  0  0
   -5.2964   -4.0157    3.5844 H   0  0  0  0  0  0  0  0  0  0  0  0
   -1.7517   -7.0467    1.7787 H   0  0  0  0  0  0  0  0  0  0  0  0
   -1.1809   -5.7350    2.8619 H   0  0  0  0  0  0  0  0  0  0  0  0
   -1.5339   -7.3559    3.5128 H   0  0  0  0  0  0  0  0  0  0  0  0
   -2.2081   -4.9748    0.7867 H   0  0  0  0  0  0  0  0  0  0  0  0
   -2.4818   -2.7885   -0.2638 H   0  0  0  0  0  0  0  0  0  0  0  0
   -4.7473   -0.5241   -2.0326 H   0  0  0  0  0  0  0  0  0  0  0  0
   -6.0777    0.3236   -3.8623 H   0  0  0  0  0  0  0  0  0  0  0  0
   -6.8565    2.2232   -5.2430 H   0  0  0  0  0  0  0  0  0  0  0  0
  1  2  2  0  0  0  0
  2  3  1  0  0  0  0
  3  4  2  0  0  0  0
  3  5  1  0  0  0  0
  5  6  2  0  0  0  0
  6  7  1  0  0  0  0
  6  8  1  0  0  0  0
  8  9  1  0  0  0  0
  8 10  2  0  0  0  0
 10 11  1  0  0  0  0
 10 12  1  0  0  0  0
 12 13  1  0  0  0  0
 12 14  2  0  0  0  0
 14 15  1  0  0  0  0
 15 16  2  0  0  0  0
 16 17  1  0  0  0  0
 17 18  3  0  0  0  0
 16 19  1  0  0  0  0
 19 20  3  0  0  0  0
  1 21  1  0  0  0  0
 21 22  2  0  0  0  0
 22 23  1  0  0  0  0
 23 24  2  0  0  0  0
 24 25  1  0  0  0  0
 25 26  2  0  0  0  0
 26 27  1  0  0  0  0
 27 28  1  0  0  0  0
 28 29  2  0  0  0  0
 24 30  1  0  0  0  0
 30 31  2  0  0  0  0
 31 32  1  0  0  0  0
 32 33  1  0  0  0  0
 33 34  2  0  0  0  0
 34 35  1  0  0  0  0
 35 36  2  0  0  0  0
 36 37  1  0  0  0  0
 37 38  1  0  0  0  0
 36 39  1  0  0  0  0
 39 40  2  0  0  0  0
 32 41  1  0  0  0  0
 41 42  2  0  0  0  0
 42 43  1  0  0  0  0
 43 44  2  0  0  0  0
 44 45  1  0  0  0  0
 45 46  1  0  0  0  0
 44 47  1  0  0  0  0
 47 48  2  0  0  0  0
 31 49  1  0  0  0  0
 49 50  1  0  0  0  0
 50 51  1  0  0  0  0
 51 52  2  0  0  0  0
 52 53  1  0  0  0  0
 53 54  1  0  0  0  0
 54 55  2  0  0  0  0
 55 56  1  0  0  0  0
 56 57  2  0  0  0  0
 57 58  1  0  0  0  0
 58 59  1  0  0  0  0
 57 60  1  0  0  0  0
 60 61  2  0  0  0  0
 53 62  1  0  0  0  0
 62 63  2  0  0  0  0
 63 64  1  0  0  0  0
 64 65  2  0  0  0  0
 65 66  1  0  0  0  0
 66 67  1  0  0  0  0
 65 68  1  0  0  0  0
 68 69  2  0  0  0  0
 52 70  1  0  0  0  0
 70 71  1  0  0  0  0
 51 72  1  0  0  0  0
 72 73  2  0  0  0  0
 73 74  1  0  0  0  0
 74 75  2  0  0  0  0
 75 76  1  0  0  0  0
 76 77  2  0  0  0  0
 77 78  1  0  0  0  0
 78 79  1  0  0  0  0
 79 80  2  0  0  0  0
 75 81  1  0  0  0  0
 81 82  2  0  0  0  0
 82 83  1  0  0  0  0
 83 84  2  0  0  0  0
 83 85  1  0  0  0  0
 85 86  2  0  0  0  0
 86 87  1  0  0  0  0
 86 88  1  0  0  0  0
 88 89  1  0  0  0  0
 88 90  2  0  0  0  0
 90 91  1  0  0  0  0
 90 92  1  0  0  0  0
 92 93  1  0  0  0  0
 92 94  2  0  0  0  0
 94 95  1  0  0  0  0
 95 96  2  0  0  0  0
 96 97  1  0  0  0  0
 97 98  3  0  0  0  0
 96 99  1  0  0  0  0
 99100  3  0  0  0  0
 15  2  1  0  0  0  0
 29 21  1  0  0  0  0
 71 30  1  0  0  0  0
 80 72  1  0  0  0  0
 95 82  1  0  0  0  0
 14  5  1  0  0  0  0
 29 25  1  0  0  0  0
 40 33  1  0  0  0  0
 48 41  1  0  0  0  0
 70 49  2  0  0  0  0
 80 76  1  0  0  0  0
 94 85  1  0  0  0  0
 61 54  1  0  0  0  0
 69 62  1  0  0  0  0
  1101  1  0  0  0  0
 22102  1  0  0  0  0
 23103  1  0  0  0  0
 34104  1  0  0  0  0
 35105  1  0  0  0  0
 38106  1  0  0  0  0
 38107  1  0  0  0  0
 38108  1  0  0  0  0
 39109  1  0  0  0  0
 40110  1  0  0  0  0
 42111  1  0  0  0  0
 43112  1  0  0  0  0
 46113  1  0  0  0  0
 46114  1  0  0  0  0
 46115  1  0  0  0  0
 47116  1  0  0  0  0
 48117  1  0  0  0  0
 55118  1  0  0  0  0
 56119  1  0  0  0  0
 59120  1  0  0  0  0
 59121  1  0  0  0  0
 59122  1  0  0  0  0
 60123  1  0  0  0  0
 61124  1  0  0  0  0
 63125  1  0  0  0  0
 64126  1  0  0  0  0
 67127  1  0  0  0  0
 67128  1  0  0  0  0
 67129  1  0  0  0  0
 68130  1  0  0  0  0
 69131  1  0  0  0  0
 73132  1  0  0  0  0
 74133  1  0  0  0  0
 81134  1  0  0  0  0
M  END
