136

C          4.94710        2.04390       -6.68590
C          5.06610        1.15080       -7.72290
C          4.65850       -0.25670       -7.65530
O          4.35830       -0.90080       -6.66730
C          4.84780       -0.79220       -9.02400
C          4.45710       -2.01540       -9.53420
Cl         3.76870       -3.21570       -8.53320
C          4.61480       -2.24520      -10.90700
Cl         4.16410       -3.75210      -11.58040
C          5.09660       -1.22970      -11.73030
Cl         5.19240       -1.49820      -13.41800
C          5.48830        0.01400      -11.20670
Cl         5.90060        1.26170      -12.30910
C          5.42960        0.20490       -9.83180
C          5.75790        1.34940       -8.97990
C          6.65990        2.34290       -9.26330
C          6.88570        3.48570       -8.46540
N          7.11260        4.46670       -7.91290
C          7.61270        2.30280      -10.30400
N          8.49360        2.30540      -11.04000
C          4.05570        1.91170       -5.60380
C          2.82040        1.21930       -5.64570
C          1.98460        1.06220       -4.47680
N          0.86440        0.39500       -4.74770
S          0.84300        0.03450       -6.31710
N          2.25020        0.68940       -6.72390
C          2.37120        1.51540       -3.19340
C          3.50860        2.35560       -3.19140
N          3.94760        3.08020       -2.16100
S          5.22580        3.93720       -2.62900
N          5.30320        3.42460       -4.14870
C          4.30760        2.57300       -4.37620
C          1.64230        1.14770       -2.04130
C          2.09250        1.00680       -0.71630
N          3.40300        0.96150       -0.31310
C          4.40670        0.48280       -1.16060
C          4.13490       -0.52590       -2.08460
C          5.07820       -0.91200       -3.01200
C          6.33200       -0.30800       -3.01990
S          7.58180       -0.66230       -4.20000
C          6.89900       -2.03530       -5.16620
C          6.63600        0.64370       -2.04470
C          5.68980        1.03210       -1.12370
C          3.70180        1.37670        0.99160
C          4.57510        0.64700        1.79790
C          4.76510        1.01390        3.11090
C          4.08920        2.11120        3.64420
S          4.32340        2.44800        5.35620
C          2.88200        3.47740        5.76250
C          3.27550        2.88150        2.82190
C          3.08550        2.51520        1.50640
C          1.00470        0.75040        0.15040
S          0.85470        0.55190        1.86560
C         -0.85520        0.22100        1.69230
C         -1.30420        0.36780        0.37430
N         -2.62160        0.43530       -0.01600
C         -2.95740        0.03500       -1.31380
C         -3.87630        0.76120       -2.07190
C         -4.11450        0.41170       -3.38150
C         -3.44370       -0.66540       -3.96110
S         -3.75930       -0.97920       -5.66540
C         -2.39400       -2.07720       -6.14310
C         -2.58040       -1.43070       -3.18760
C         -2.34190       -1.08200       -1.87440
C         -3.59710        0.90180        0.87480
C         -3.30200        1.93300        1.76470
C         -4.17820        2.26590        2.77600
C         -5.37870        1.57620        2.91260
S         -6.49280        1.80450        4.25400
C         -5.57340        2.87040        5.39780
C         -5.73080        0.63350        1.94610
C         -4.85630        0.30410        0.93450
C         -0.21840        0.62770       -0.49460
S         -0.06920        0.79930       -2.21240
C         -1.62410       -0.11180        2.84250
C         -2.69130       -1.03180        2.81430
C         -3.56000       -1.25810        3.94990
N         -4.52580       -2.13040        3.65660
S         -4.30800       -2.67800        2.17060
N         -3.02430       -1.80300        1.77470
C         -3.39450       -0.58020        5.17390
C         -2.31550        0.32720        5.20470
N         -1.97370        1.09230        6.24340
S         -0.66400        1.94050        5.86510
N         -0.45520        1.40040        4.36440
C         -1.41090        0.51090        4.08860
C         -4.26160       -0.72880        6.29390
C         -4.88530       -1.87990        6.66360
C         -4.49430       -3.25180        6.22520
O         -3.53450       -3.57830        5.56290
C         -5.43610       -4.14590        6.91420
C         -6.24790       -3.39570        7.75610
S         -7.37720       -4.33800        8.66120
C         -6.75920       -5.77560        7.90920
C         -7.07550       -7.14260        8.00950
C         -6.28520       -7.88670        7.19010
S         -5.14190       -6.96140        6.27840
C         -5.72140       -5.51200        7.00460
C         -5.94160       -1.99770        7.65890
C         -6.58450       -1.00350        8.35470
C         -6.33290        0.37440        8.24540
N         -6.19330        1.51450        8.20980
C         -7.60410       -1.31170        9.27920
N         -8.43210       -1.55100       10.03670
H          5.57200        2.92690       -6.65970
H          3.16700       -1.00450       -2.08640
H          4.82130       -1.67050       -3.73200
H          5.97730       -1.72820       -5.65450
H          6.73760       -2.89260       -4.51930
H          7.65290       -2.27120       -5.91110
H          7.61900        1.08860       -2.03670
H          5.92150        1.79210       -0.39280
H          5.07320       -0.22280        1.39700
H          5.41760        0.43880        3.74920
H          1.98940        3.02290        5.34210
H          2.82230        3.48900        6.84620
H          3.02310        4.48950        5.39420
H          2.78690        3.76620        3.19530
H          2.45870        3.11240        0.86170
H         -4.37570        1.61300       -1.63520
H         -4.80500        0.98340       -3.98200
H         -2.55490       -3.07500       -5.74520
H         -1.45560       -1.65580       -5.79400
H         -2.40720       -2.11070       -7.22800
H         -2.08890       -2.29870       -3.59480
H         -1.68050       -1.68030       -1.26650
H         -2.36360        2.46090        1.67930
H         -3.91360        3.06000        3.45520
H         -6.14050        2.86550        6.32420
H         -4.58840        2.45050        5.57790
H         -5.51110        3.87970        5.00110
H         -6.68640        0.13850        2.02390
H         -5.11820       -0.45510        0.21260
H         -4.39650        0.16110        6.89680
H         -7.83940       -7.54540        8.64780
H         -6.30290       -8.95090        7.06090
