
  xtb     02112206273D
 energy: -308.681054089187 gnorm: 0.000514574182 xtb: 6.4.1 (unknown)
163177  0     0  0            999 V2000
    6.3218    1.7980    4.7692 C   0  0  0  0  0  0  0  0  0  0  0  0
    7.0216    1.6069    5.9461 C   0  0  0  0  0  0  0  0  0  0  0  0
    6.5761    0.8247    7.1020 C   0  0  0  0  0  0  0  0  0  0  0  0
    5.6041    0.1059    7.2116 O   0  0  0  0  0  0  0  0  0  0  0  0
    7.5547    1.1179    8.1797 C   0  0  0  0  0  0  0  0  0  0  0  0
    7.5935    0.5999    9.4601 C   0  0  0  0  0  0  0  0  0  0  0  0
    6.3438   -0.3959   10.0603 Cl  0  0  0  0  0  0  0  0  0  0  0  0
    8.6988    0.9047   10.2664 C   0  0  0  0  0  0  0  0  0  0  0  0
    8.7732    0.3227   11.8732 Cl  0  0  0  0  0  0  0  0  0  0  0  0
    9.7571    1.6409    9.7411 C   0  0  0  0  0  0  0  0  0  0  0  0
   11.1438    1.9135   10.7073 Cl  0  0  0  0  0  0  0  0  0  0  0  0
    9.7171    2.1521    8.4328 C   0  0  0  0  0  0  0  0  0  0  0  0
   11.1416    2.8847    7.8189 Cl  0  0  0  0  0  0  0  0  0  0  0  0
    8.5667    1.9599    7.6759 C   0  0  0  0  0  0  0  0  0  0  0  0
    8.1908    2.3647    6.3217 C   0  0  0  0  0  0  0  0  0  0  0  0
    8.7941    3.3439    5.5601 C   0  0  0  0  0  0  0  0  0  0  0  0
    9.5896    4.3990    6.0503 C   0  0  0  0  0  0  0  0  0  0  0  0
   10.1246    5.3691    6.3544 N   0  0  0  0  0  0  0  0  0  0  0  0
    8.6114    3.5183    4.1753 C   0  0  0  0  0  0  0  0  0  0  0  0
    8.6064    3.6992    3.0385 N   0  0  0  0  0  0  0  0  0  0  0  0
    5.2632    1.0774    4.2211 C   0  0  0  0  0  0  0  0  0  0  0  0
    4.7256   -0.1791    4.4864 C   0  0  0  0  0  0  0  0  0  0  0  0
    3.7424   -0.5759    3.5964 C   0  0  0  0  0  0  0  0  0  0  0  0
    3.0903   -1.8913    3.6705 C   0  0  0  0  0  0  0  0  0  0  0  0
    2.4189   -2.2510    4.8484 C   0  0  0  0  0  0  0  0  0  0  0  0
    2.3682   -1.3003    5.8102 O   0  0  0  0  0  0  0  0  0  0  0  0
    2.0648   -1.6892    7.1393 C   0  0  0  0  0  0  0  0  0  0  0  0
    2.3858   -0.5084    8.0413 C   0  0  0  0  0  0  0  0  0  0  0  0
    1.8407   -3.5114    4.9539 C   0  0  0  0  0  0  0  0  0  0  0  0
    1.9352   -4.3927    3.8948 C   0  0  0  0  0  0  0  0  0  0  0  0
    2.6094   -4.0598    2.7349 C   0  0  0  0  0  0  0  0  0  0  0  0
    3.1992   -2.8070    2.6144 C   0  0  0  0  0  0  0  0  0  0  0  0
    3.8804   -2.3649    1.5179 O   0  0  0  0  0  0  0  0  0  0  0  0
    4.3272   -3.3023    0.5562 C   0  0  0  0  0  0  0  0  0  0  0  0
    5.4600   -4.1789    1.0781 C   0  0  0  0  0  0  0  0  0  0  0  0
    3.4740    0.3835    2.6050 C   0  0  0  0  0  0  0  0  0  0  0  0
    4.4786    1.7760    2.8142 S   0  0  0  0  0  0  0  0  0  0  0  0
    2.4503    0.3368    1.6363 C   0  0  0  0  0  0  0  0  0  0  0  0
    2.2525    1.1417    0.5055 C   0  0  0  0  0  0  0  0  0  0  0  0
    3.1579    2.0237   -0.0385 N   0  0  0  0  0  0  0  0  0  0  0  0
    2.6670    3.1613   -0.7004 C   0  0  0  0  0  0  0  0  0  0  0  0
    3.2098    3.5672   -1.9198 C   0  0  0  0  0  0  0  0  0  0  0  0
    2.7052    4.6714   -2.5664 C   0  0  0  0  0  0  0  0  0  0  0  0
    1.6458    5.3940   -2.0169 C   0  0  0  0  0  0  0  0  0  0  0  0
    1.0802    6.7819   -2.9424 S   0  0  0  0  0  0  0  0  0  0  0  0
   -0.4446    7.2794   -2.0920 C   0  0  0  0  0  0  0  0  0  0  0  0
    1.1137    5.0014   -0.7956 C   0  0  0  0  0  0  0  0  0  0  0  0
    1.6236    3.8957   -0.1443 C   0  0  0  0  0  0  0  0  0  0  0  0
    4.5334    1.7565   -0.0531 C   0  0  0  0  0  0  0  0  0  0  0  0
    5.4514    2.8019    0.0405 C   0  0  0  0  0  0  0  0  0  0  0  0
    6.8076    2.5502    0.0779 C   0  0  0  0  0  0  0  0  0  0  0  0
    7.2726    1.2416    0.0234 C   0  0  0  0  0  0  0  0  0  0  0  0
    8.9708    0.7923    0.0976 S   0  0  0  0  0  0  0  0  0  0  0  0
    9.8378    2.3726    0.2991 C   0  0  0  0  0  0  0  0  0  0  0  0
    6.3569    0.1949   -0.0973 C   0  0  0  0  0  0  0  0  0  0  0  0
    5.0058    0.4464   -0.1396 C   0  0  0  0  0  0  0  0  0  0  0  0
    0.9811    0.8937   -0.0691 C   0  0  0  0  0  0  0  0  0  0  0  0
    0.1368    1.4982   -1.4533 S   0  0  0  0  0  0  0  0  0  0  0  0
   -1.2164    0.4195   -1.1364 C   0  0  0  0  0  0  0  0  0  0  0  0
   -0.9836   -0.4064   -0.0478 C   0  0  0  0  0  0  0  0  0  0  0  0
   -1.7840   -1.4482    0.3931 N   0  0  0  0  0  0  0  0  0  0  0  0
   -2.4947   -2.2572   -0.4988 C   0  0  0  0  0  0  0  0  0  0  0  0
   -3.7128   -2.8124   -0.1140 C   0  0  0  0  0  0  0  0  0  0  0  0
   -4.4657   -3.5548   -1.0025 C   0  0  0  0  0  0  0  0  0  0  0  0
   -4.0162   -3.7503   -2.3009 C   0  0  0  0  0  0  0  0  0  0  0  0
   -4.9098   -4.6266   -3.5443 S   0  0  0  0  0  0  0  0  0  0  0  0
   -6.4189   -5.1755   -2.6966 C   0  0  0  0  0  0  0  0  0  0  0  0
   -2.7816   -3.2259   -2.6805 C   0  0  0  0  0  0  0  0  0  0  0  0
   -2.0269   -2.4963   -1.7919 C   0  0  0  0  0  0  0  0  0  0  0  0
   -1.7683   -1.7399    1.7679 C   0  0  0  0  0  0  0  0  0  0  0  0
   -1.6338   -3.0498    2.2266 C   0  0  0  0  0  0  0  0  0  0  0  0
   -1.5734   -3.3052    3.5776 C   0  0  0  0  0  0  0  0  0  0  0  0
   -1.6457   -2.2627    4.5005 C   0  0  0  0  0  0  0  0  0  0  0  0
   -1.5448   -2.7074    6.2038 S   0  0  0  0  0  0  0  0  0  0  0  0
   -1.7759   -1.1347    7.0835 C   0  0  0  0  0  0  0  0  0  0  0  0
   -1.7919   -0.9592    4.0493 C   0  0  0  0  0  0  0  0  0  0  0  0
   -1.8563   -0.7042    2.6938 C   0  0  0  0  0  0  0  0  0  0  0  0
    0.2570   -0.1010    0.5645 C   0  0  0  0  0  0  0  0  0  0  0  0
    1.1073   -0.7733    1.9075 S   0  0  0  0  0  0  0  0  0  0  0  0
   -2.3734    0.4757   -1.9986 C   0  0  0  0  0  0  0  0  0  0  0  0
   -2.2232    0.8216   -3.3507 C   0  0  0  0  0  0  0  0  0  0  0  0
   -3.3304    0.8224   -4.1627 C   0  0  0  0  0  0  0  0  0  0  0  0
   -3.4315    1.1506   -5.6105 C   0  0  0  0  0  0  0  0  0  0  0  0
   -2.5402    1.4460   -6.3681 O   0  0  0  0  0  0  0  0  0  0  0  0
   -4.8832    1.0177   -5.9141 C   0  0  0  0  0  0  0  0  0  0  0  0
   -5.5657    0.5882   -4.7565 C   0  0  0  0  0  0  0  0  0  0  0  0
   -4.6070    0.4877   -3.6671 C   0  0  0  0  0  0  0  0  0  0  0  0
   -4.7662    0.1876   -2.3272 C   0  0  0  0  0  0  0  0  0  0  0  0
   -3.6528    0.1965   -1.5035 C   0  0  0  0  0  0  0  0  0  0  0  0
   -6.9251    0.3394   -4.8113 C   0  0  0  0  0  0  0  0  0  0  0  0
   -7.5914    0.5555   -6.0073 C   0  0  0  0  0  0  0  0  0  0  0  0
   -6.9339    1.0588   -7.1350 C   0  0  0  0  0  0  0  0  0  0  0  0
   -5.5455    1.2635   -7.0904 C   0  0  0  0  0  0  0  0  0  0  0  0
   -7.7082    1.3183   -8.3291 C   0  0  0  0  0  0  0  0  0  0  0  0
   -7.5475    2.3650   -9.1694 C   0  0  0  0  0  0  0  0  0  0  0  0
   -6.6573    3.5394   -8.9465 C   0  0  0  0  0  0  0  0  0  0  0  0
   -6.1301    3.8798   -7.9168 O   0  0  0  0  0  0  0  0  0  0  0  0
   -6.6217    4.2471  -10.2482 C   0  0  0  0  0  0  0  0  0  0  0  0
   -5.8102    5.3021  -10.6305 C   0  0  0  0  0  0  0  0  0  0  0  0
   -4.7545    6.0572   -9.5242 Cl  0  0  0  0  0  0  0  0  0  0  0  0
   -5.8637    5.7264  -11.9663 C   0  0  0  0  0  0  0  0  0  0  0  0
   -4.8999    7.0395  -12.4811 Cl  0  0  0  0  0  0  0  0  0  0  0  0
   -6.6702    5.0528  -12.8845 C   0  0  0  0  0  0  0  0  0  0  0  0
   -6.6466    5.5310  -14.5257 Cl  0  0  0  0  0  0  0  0  0  0  0  0
   -7.4889    3.9827  -12.4906 C   0  0  0  0  0  0  0  0  0  0  0  0
   -8.3211    3.0993  -13.7017 Cl  0  0  0  0  0  0  0  0  0  0  0  0
   -7.5113    3.6236  -11.1476 C   0  0  0  0  0  0  0  0  0  0  0  0
   -8.2638    2.6067  -10.4213 C   0  0  0  0  0  0  0  0  0  0  0  0
   -9.5038    2.1261  -10.7345 C   0  0  0  0  0  0  0  0  0  0  0  0
  -10.2027    1.1628   -9.9714 C   0  0  0  0  0  0  0  0  0  0  0  0
  -10.8302    0.3804   -9.4137 N   0  0  0  0  0  0  0  0  0  0  0  0
  -10.3495    2.6295  -11.7495 C   0  0  0  0  0  0  0  0  0  0  0  0
  -11.1464    3.0337  -12.4686 N   0  0  0  0  0  0  0  0  0  0  0  0
    6.6288    2.6426    4.1637 H   0  0  0  0  0  0  0  0  0  0  0  0
    5.0681   -0.7929    5.2974 H   0  0  0  0  0  0  0  0  0  0  0  0
    1.0068   -1.9704    7.2234 H   0  0  0  0  0  0  0  0  0  0  0  0
    2.6770   -2.5558    7.4201 H   0  0  0  0  0  0  0  0  0  0  0  0
    2.1961   -0.7721    9.0779 H   0  0  0  0  0  0  0  0  0  0  0  0
    1.7734    0.3482    7.7717 H   0  0  0  0  0  0  0  0  0  0  0  0
    3.4309   -0.2364    7.9226 H   0  0  0  0  0  0  0  0  0  0  0  0
    1.3094   -3.8025    5.8446 H   0  0  0  0  0  0  0  0  0  0  0  0
    1.4787   -5.3676    3.9765 H   0  0  0  0  0  0  0  0  0  0  0  0
    2.6666   -4.7810    1.9362 H   0  0  0  0  0  0  0  0  0  0  0  0
    4.6881   -2.6878   -0.2731 H   0  0  0  0  0  0  0  0  0  0  0  0
    3.4932   -3.9134    0.1897 H   0  0  0  0  0  0  0  0  0  0  0  0
    5.8179   -4.8279    0.2837 H   0  0  0  0  0  0  0  0  0  0  0  0
    6.2801   -3.5528    1.4213 H   0  0  0  0  0  0  0  0  0  0  0  0
    5.1230   -4.7911    1.9113 H   0  0  0  0  0  0  0  0  0  0  0  0
    4.0187    3.0028   -2.3583 H   0  0  0  0  0  0  0  0  0  0  0  0
    3.1155    4.9838   -3.5141 H   0  0  0  0  0  0  0  0  0  0  0  0
   -0.2147    7.6808   -1.1092 H   0  0  0  0  0  0  0  0  0  0  0  0
   -0.8838    8.0556   -2.7108 H   0  0  0  0  0  0  0  0  0  0  0  0
   -1.1205    6.4318   -2.0275 H   0  0  0  0  0  0  0  0  0  0  0  0
    0.3090    5.5513   -0.3355 H   0  0  0  0  0  0  0  0  0  0  0  0
    1.2153    3.6002    0.8112 H   0  0  0  0  0  0  0  0  0  0  0  0
    5.0947    3.8183    0.1104 H   0  0  0  0  0  0  0  0  0  0  0  0
    7.4876    3.3791    0.1768 H   0  0  0  0  0  0  0  0  0  0  0  0
    9.4888    2.8717    1.1989 H   0  0  0  0  0  0  0  0  0  0  0  0
    9.6921    2.9874   -0.5845 H   0  0  0  0  0  0  0  0  0  0  0  0
   10.8881    2.1166    0.3995 H   0  0  0  0  0  0  0  0  0  0  0  0
    6.7252   -0.8179   -0.1542 H   0  0  0  0  0  0  0  0  0  0  0  0
    4.3048   -0.3693   -0.2211 H   0  0  0  0  0  0  0  0  0  0  0  0
   -4.0794   -2.6494    0.8890 H   0  0  0  0  0  0  0  0  0  0  0  0
   -5.4070   -3.9615   -0.6701 H   0  0  0  0  0  0  0  0  0  0  0  0
   -6.9855   -5.7275   -3.4401 H   0  0  0  0  0  0  0  0  0  0  0  0
   -6.9917   -4.3158   -2.3615 H   0  0  0  0  0  0  0  0  0  0  0  0
   -6.1640   -5.8298   -1.8680 H   0  0  0  0  0  0  0  0  0  0  0  0
   -2.4240   -3.3999   -3.6835 H   0  0  0  0  0  0  0  0  0  0  0  0
   -1.0694   -2.1047   -2.0987 H   0  0  0  0  0  0  0  0  0  0  0  0
   -1.5660   -3.8591    1.5154 H   0  0  0  0  0  0  0  0  0  0  0  0
   -1.4581   -4.3159    3.9367 H   0  0  0  0  0  0  0  0  0  0  0  0
   -1.7283   -1.3805    8.1401 H   0  0  0  0  0  0  0  0  0  0  0  0
   -0.9775   -0.4435    6.8293 H   0  0  0  0  0  0  0  0  0  0  0  0
   -2.7511   -0.7192    6.8466 H   0  0  0  0  0  0  0  0  0  0  0  0
   -1.8567   -0.1316    4.7365 H   0  0  0  0  0  0  0  0  0  0  0  0
   -1.9699    0.3125    2.3462 H   0  0  0  0  0  0  0  0  0  0  0  0
   -1.2501    1.0703   -3.7480 H   0  0  0  0  0  0  0  0  0  0  0  0
   -5.7393   -0.0374   -1.9178 H   0  0  0  0  0  0  0  0  0  0  0  0
   -3.7789    0.0084   -0.4490 H   0  0  0  0  0  0  0  0  0  0  0  0
   -7.4622   -0.0160   -3.9452 H   0  0  0  0  0  0  0  0  0  0  0  0
   -8.6549    0.3734   -6.0659 H   0  0  0  0  0  0  0  0  0  0  0  0
   -5.0009    1.5825   -7.9648 H   0  0  0  0  0  0  0  0  0  0  0  0
   -8.4803    0.5905   -8.5454 H   0  0  0  0  0  0  0  0  0  0  0  0
  1  2  2  0  0  0  0
  2  3  1  0  0  0  0
  3  4  2  0  0  0  0
  3  5  1  0  0  0  0
  5  6  2  0  0  0  0
  6  7  1  0  0  0  0
  6  8  1  0  0  0  0
  8  9  1  0  0  0  0
  8 10  2  0  0  0  0
 10 11  1  0  0  0  0
 10 12  1  0  0  0  0
 12 13  1  0  0  0  0
 12 14  2  0  0  0  0
 14 15  1  0  0  0  0
 15 16  2  0  0  0  0
 16 17  1  0  0  0  0
 17 18  3  0  0  0  0
 16 19  1  0  0  0  0
 19 20  3  0  0  0  0
  1 21  1  0  0  0  0
 21 22  2  0  0  0  0
 22 23  1  0  0  0  0
 23 24  1  0  0  0  0
 24 25  2  0  0  0  0
 25 26  1  0  0  0  0
 26 27  1  0  0  0  0
 27 28  1  0  0  0  0
 25 29  1  0  0  0  0
 29 30  2  0  0  0  0
 30 31  1  0  0  0  0
 31 32  2  0  0  0  0
 32 33  1  0  0  0  0
 33 34  1  0  0  0  0
 34 35  1  0  0  0  0
 23 36  2  0  0  0  0
 36 37  1  0  0  0  0
 36 38  1  0  0  0  0
 38 39  2  0  0  0  0
 39 40  1  0  0  0  0
 40 41  1  0  0  0  0
 41 42  2  0  0  0  0
 42 43  1  0  0  0  0
 43 44  2  0  0  0  0
 44 45  1  0  0  0  0
 45 46  1  0  0  0  0
 44 47  1  0  0  0  0
 47 48  2  0  0  0  0
 40 49  1  0  0  0  0
 49 50  2  0  0  0  0
 50 51  1  0  0  0  0
 51 52  2  0  0  0  0
 52 53  1  0  0  0  0
 53 54  1  0  0  0  0
 52 55  1  0  0  0  0
 55 56  2  0  0  0  0
 39 57  1  0  0  0  0
 57 58  1  0  0  0  0
 58 59  1  0  0  0  0
 59 60  2  0  0  0  0
 60 61  1  0  0  0  0
 61 62  1  0  0  0  0
 62 63  2  0  0  0  0
 63 64  1  0  0  0  0
 64 65  2  0  0  0  0
 65 66  1  0  0  0  0
 66 67  1  0  0  0  0
 65 68  1  0  0  0  0
 68 69  2  0  0  0  0
 61 70  1  0  0  0  0
 70 71  2  0  0  0  0
 71 72  1  0  0  0  0
 72 73  2  0  0  0  0
 73 74  1  0  0  0  0
 74 75  1  0  0  0  0
 73 76  1  0  0  0  0
 76 77  2  0  0  0  0
 60 78  1  0  0  0  0
 78 79  1  0  0  0  0
 59 80  1  0  0  0  0
 80 81  2  0  0  0  0
 81 82  1  0  0  0  0
 82 83  1  0  0  0  0
 83 84  2  0  0  0  0
 83 85  1  0  0  0  0
 85 86  2  0  0  0  0
 86 87  1  0  0  0  0
 87 88  1  0  0  0  0
 88 89  2  0  0  0  0
 86 90  1  0  0  0  0
 90 91  2  0  0  0  0
 91 92  1  0  0  0  0
 92 93  2  0  0  0  0
 92 94  1  0  0  0  0
 94 95  2  0  0  0  0
 95 96  1  0  0  0  0
 96 97  2  0  0  0  0
 96 98  1  0  0  0  0
 98 99  2  0  0  0  0
 99100  1  0  0  0  0
 99101  1  0  0  0  0
101102  1  0  0  0  0
101103  2  0  0  0  0
103104  1  0  0  0  0
103105  1  0  0  0  0
105106  1  0  0  0  0
105107  2  0  0  0  0
107108  1  0  0  0  0
108109  2  0  0  0  0
109110  1  0  0  0  0
110111  3  0  0  0  0
109112  1  0  0  0  0
112113  3  0  0  0  0
 15  2  1  0  0  0  0
 37 21  1  0  0  0  0
 79 38  1  0  0  0  0
 89 80  1  0  0  0  0
108 95  1  0  0  0  0
 14  5  1  0  0  0  0
 32 24  1  0  0  0  0
 48 41  1  0  0  0  0
 56 49  1  0  0  0  0
 78 57  2  0  0  0  0
 87 82  2  0  0  0  0
107 98  1  0  0  0  0
 69 62  1  0  0  0  0
 77 70  1  0  0  0  0
 93 85  1  0  0  0  0
  1114  1  0  0  0  0
 22115  1  0  0  0  0
 27116  1  0  0  0  0
 27117  1  0  0  0  0
 28118  1  0  0  0  0
 28119  1  0  0  0  0
 28120  1  0  0  0  0
 29121  1  0  0  0  0
 30122  1  0  0  0  0
 31123  1  0  0  0  0
 34124  1  0  0  0  0
 34125  1  0  0  0  0
 35126  1  0  0  0  0
 35127  1  0  0  0  0
 35128  1  0  0  0  0
 42129  1  0  0  0  0
 43130  1  0  0  0  0
 46131  1  0  0  0  0
 46132  1  0  0  0  0
 46133  1  0  0  0  0
 47134  1  0  0  0  0
 48135  1  0  0  0  0
 50136  1  0  0  0  0
 51137  1  0  0  0  0
 54138  1  0  0  0  0
 54139  1  0  0  0  0
 54140  1  0  0  0  0
 55141  1  0  0  0  0
 56142  1  0  0  0  0
 63143  1  0  0  0  0
 64144  1  0  0  0  0
 67145  1  0  0  0  0
 67146  1  0  0  0  0
 67147  1  0  0  0  0
 68148  1  0  0  0  0
 69149  1  0  0  0  0
 71150  1  0  0  0  0
 72151  1  0  0  0  0
 75152  1  0  0  0  0
 75153  1  0  0  0  0
 75154  1  0  0  0  0
 76155  1  0  0  0  0
 77156  1  0  0  0  0
 81157  1  0  0  0  0
 88158  1  0  0  0  0
 89159  1  0  0  0  0
 90160  1  0  0  0  0
 91161  1  0  0  0  0
 93162  1  0  0  0  0
 94163  1  0  0  0  0
M  END
