166

C          2.03950       -4.79290       -8.18150
C          1.07690       -5.51830       -8.83370
C         -0.14490       -6.04360       -8.19420
O         -0.53890       -5.86780       -7.06290
C         -0.72250       -6.99520       -9.17720
C         -1.83640       -7.80240       -9.03580
Cl        -2.86970       -7.66370       -7.68480
C         -2.10450       -8.74720      -10.03650
Cl        -3.49380       -9.73770       -9.92530
C         -1.21700       -8.90870      -11.09810
Cl        -1.50690      -10.13860      -12.25160
C         -0.08250       -8.09120      -11.23180
Cl         1.04870       -8.46400      -12.46620
C          0.12330       -7.08130      -10.30130
C          1.15170       -6.05100      -10.17540
C          1.88920       -5.48310      -11.18270
C          2.80400       -4.42860      -10.96870
N          3.55300       -3.56180      -10.89220
C          1.73230       -5.69450      -12.56830
N          1.62530       -5.70710      -13.71130
C          1.84510       -4.07830       -6.97560
C          2.87800       -3.96630       -6.01730
C          2.68890       -3.30740       -4.74490
N          3.78780       -3.36020       -3.98980
S          4.92670       -4.17060       -4.78270
N          4.10050       -4.48580       -6.12330
C          1.49530       -2.63350       -4.40610
C          0.47010       -2.72730       -5.36980
N         -0.76380       -2.23060       -5.24600
S         -1.59200       -2.55730       -6.57970
N         -0.44030       -3.31920       -7.39510
C          0.64580       -3.41850       -6.62880
C          1.36980       -1.93600       -3.17550
C          0.68430       -0.74610       -2.89330
N          0.21600        0.13990       -3.83260
C         -0.82840        1.01470       -3.51630
C         -1.89620        0.59000       -2.72380
C         -2.89910        1.47020       -2.38580
C         -2.86790        2.78700       -2.84190
S         -4.18180        3.83980       -2.32140
C         -4.15650        5.18570       -3.54370
C         -1.81970        3.20560       -3.65330
C         -0.80970        2.32620       -3.98610
C          0.79280        0.16400       -5.11200
C         -0.00480        0.27250       -6.24740
C          0.53620        0.08340       -7.50430
C          1.88950       -0.20180       -7.64720
S          2.65240       -0.60830       -9.17770
C          1.25560       -1.15270      -10.19760
C          2.71180       -0.17370       -6.51880
C          2.17210        0.00930       -5.26800
C          0.72210       -0.47710       -1.50370
S          0.05590        0.74680       -0.48400
C          0.81680        0.03050        0.94170
C          1.55670       -1.10350        0.62020
N          2.38010       -1.84600        1.44710
C          1.97250       -2.35710        2.68280
C          0.66000       -2.77540        2.90160
C          0.29860       -3.29970        4.12450
C          1.23660       -3.41670        5.14640
S          0.69160       -4.13410        6.66240
C          1.97490       -3.64690        7.84990
C          2.54660       -3.00780        4.92780
C          2.90940       -2.48430        3.70590
C          3.57350       -2.32080        0.87020
C          3.96100       -3.65360        1.00140
C          5.06780       -4.11870        0.32760
C          5.80910       -3.26840       -0.49060
S          7.15350       -3.98480       -1.37870
C          7.51840       -2.73940       -2.64950
C          5.46530       -1.92570       -0.56990
C          4.35800       -1.45860        0.10840
C          1.48190       -1.37440       -0.77150
S          2.18370       -2.59790       -1.77120
C          0.56510        0.73630        2.15330
C          0.20030        2.05940        2.18730
C         -0.09990        2.54900        3.47250
C         -0.49680        3.85130        3.84780
C         -0.77960        4.89160        2.88310
C         -0.62300        6.24240        3.03130
C         -1.09880        6.97180        1.92240
Cl        -1.01780        8.68970        1.84970
C         -1.63530        6.20400        0.92910
C         -2.16500        6.63280       -0.39370
C         -1.07070        6.54900       -1.46170
S         -1.53840        4.53280        1.35390
C         -0.67510        4.06660        5.21020
C         -0.57300        3.04210        6.18720
C         -0.22600        1.73080        5.79850
C         -0.26810        0.63560        6.75070
S         -1.29110       -0.73740        6.42920
C         -0.97240       -1.41940        7.98390
C         -1.70010       -2.62730        8.45950
C         -3.01230       -2.22820        9.13970
C         -0.09380       -0.63100        8.67070
C          0.30200        0.53900        7.98580
Cl         0.47850       -1.01440       10.25170
C          0.03900        1.53590        4.45350
S          0.57280        0.03200        3.75540
C         -0.93070        3.49590        7.47360
C         -1.30970        4.81320        7.51360
S         -1.17300        5.56650        5.93260
C         -1.68500        5.55050        8.66450
C         -2.28490        6.76810        8.69910
C         -2.22680        7.62140        9.91310
O         -1.94580        7.27440       11.03310
C         -2.50550        8.99380        9.41800
C         -2.39880       10.20060       10.08860
Cl        -2.04070       10.26130       11.75530
C         -2.58430       11.38440        9.35870
Cl        -2.48510       12.89540       10.15210
C         -2.81230       11.33680        7.98330
Cl        -2.94540       12.79570        7.10280
C         -2.92300       10.11130        7.30750
Cl        -3.05200       10.10520        5.59750
C         -2.82540        8.94060        8.04460
C         -2.94830        7.53770        7.66070
C         -3.81830        7.00740        6.74930
C         -4.04420        5.61390        6.65160
N         -4.28720        4.49550        6.57500
C         -4.71710        7.73110        5.93750
N         -5.52160        8.22580        5.28670
H          3.05750       -4.81040       -8.55120
H         -1.94150       -0.43840       -2.40040
H         -3.72480        1.14720       -1.77160
H         -5.07130        5.74670       -3.38020
H         -3.29890        5.83150       -3.38350
H         -4.15230        4.76580       -4.54470
H         -1.77220        4.21870       -4.01880
H          0.01130        2.65910       -4.60390
H         -1.06340        0.45390       -6.13630
H         -0.10950        0.13480       -8.36610
H          0.66210       -0.30170      -10.51900
H          1.70490       -1.63670      -11.05910
H          0.65860       -1.86800       -9.63820
H          3.77310       -0.32340       -6.64290
H          2.81120       -0.00130       -4.39750
H         -0.06800       -2.68960        2.10890
H         -0.71420       -3.62710        4.29890
H          1.58090       -3.89720        8.82970
H          2.88930       -4.20540        7.67210
H          2.14310       -2.57640        7.78190
H          3.29250       -3.09670        5.70070
H          3.92750       -2.16870        3.53380
H          3.37060       -4.32520        1.60590
H          5.35550       -5.15580        0.40370
H          8.18190       -3.22500       -3.35820
H          8.02060       -1.88360       -2.20740
H          6.59440       -2.44860       -3.14040
H          6.04720       -1.23490       -1.15780
H          4.08290       -0.41630        0.03330
H          0.17390        2.66160        1.29810
H         -0.14660        6.71070        3.87220
H         -3.00390        5.99300       -0.67390
H         -2.51950        7.66210       -0.31180
H         -0.20580        7.13500       -1.15970
H         -1.43330        6.94310       -2.40830
H         -0.75890        5.51580       -1.60300
H         -1.07180       -3.16790        9.16940
H         -1.91070       -3.28400        7.61530
H         -2.81640       -1.59300       10.00020
H         -3.54140       -3.11570        9.47590
H         -3.64830       -1.68440        8.44510
H          0.99290        1.25740        8.38830
H         -0.95370        2.86030        8.34010
H         -1.38120        5.13690        9.61990
