152

C         10.07580       -5.13040        0.37650
C          9.89570       -6.26790        1.08610
C          8.70200       -6.61660        1.90160
O          7.80980       -5.88290        2.25460
C          8.87590       -8.04270        2.25620
C          7.97270       -8.89170        2.87320
Cl         6.47880       -8.32000        3.46570
C          8.30960      -10.24780        2.98570
Cl         7.23950      -11.33050        3.76150
C          9.49780      -10.72260        2.42790
Cl         9.83990      -12.39620        2.49320
C         10.40980       -9.85690        1.80410
Cl        11.76210      -10.53540        0.99750
C         10.12470       -8.49590        1.78180
C         10.86420       -7.34980        1.26640
C         12.22240       -7.22920        1.17140
C         13.16690       -8.14730        1.68450
N         14.00460       -8.77340        2.15520
C         12.89340       -6.07860        0.69780
N         13.51220       -5.18970        0.31800
C          9.09200       -4.10400        0.11180
C          7.75080       -4.40770       -0.17160
C          6.88600       -3.37470       -0.43820
C          5.43160       -3.42610       -0.75340
O          4.73060       -4.40360       -0.87210
C          5.02940       -1.99970       -0.86080
C          6.15730       -1.17710       -0.66750
C          7.30900       -2.02890       -0.41060
C          8.63280       -1.72760       -0.14970
C          9.51510       -2.76980        0.08430
C          6.02240        0.19740       -0.70420
C          4.75330        0.73740       -0.84540
C          3.62240       -0.07400       -0.96230
C          3.77480       -1.46580       -1.02880
C          2.28770        0.49110       -0.91600
C          1.79800        1.41030       -0.00520
N          2.52450        1.95310        1.04680
C          2.30010        3.27400        1.43840
C          1.93340        4.23740        0.50170
C          1.69000        5.54210        0.88560
C          1.82520        5.91130        2.21590
S          1.54820        7.54360        2.83010
C          1.17800        8.51610        1.34240
C          2.20350        4.95290        3.15560
C          2.43300        3.65080        2.77630
C          3.47060        1.14530        1.69670
C          4.72290        1.64460        2.05460
C          5.69550        0.79410        2.53200
C          5.44620       -0.57110        2.66080
S          6.80680       -1.59520        3.12130
C          6.12540       -3.27210        3.06380
C          4.17070       -1.05340        2.39700
C          3.19510       -0.20010        1.92580
C          0.40900        1.62480       -0.20340
S         -0.77920        2.61760        0.56230
C         -2.04070        1.91520       -0.43850
C         -1.54770        1.01090       -1.36580
N         -2.27100        0.37070       -2.35810
C         -1.86570       -0.91290       -2.75970
C         -1.87580       -1.26730       -4.10870
C         -1.41640       -2.50340       -4.50150
C         -0.93090       -3.41260       -3.56150
S         -0.32350       -4.94650       -4.18430
C          0.54410       -5.67810       -2.76690
C         -0.95740       -3.07910       -2.21450
C         -1.42680       -1.84130       -1.81960
C         -3.40500        0.96000       -2.93250
C         -3.45840        2.33210       -3.16470
C         -4.62880        2.93230       -3.58400
C         -5.76560        2.16410       -3.79770
S         -7.34570        2.82630       -4.22260
C         -7.11470        4.62100       -4.07500
C         -5.68800        0.77890       -3.66400
C         -4.52460        0.18250       -3.23560
C         -0.14470        0.85030       -1.20830
S          1.04180       -0.15150       -1.96660
C         -3.41200        2.34830       -0.28270
C         -4.45740        1.41690       -0.41020
C         -5.74720        1.88150       -0.46600
C         -7.00160        1.12340       -0.71430
O         -7.13470       -0.07020       -0.83470
C         -8.05380        2.17290       -0.78580
C         -7.47130        3.43660       -0.55000
C         -6.04090        3.25560       -0.35440
C         -5.02280        4.15920       -0.11320
C         -3.71640        3.69500       -0.08000
C         -8.25630        4.57480       -0.58550
C         -9.61520        4.44430       -0.82280
C        -10.20530        3.19320       -1.03420
C         -9.39360        2.04290       -1.04860
C        -11.61450        3.03050       -1.28300
C        -12.64390        3.72320       -0.73080
C        -12.56350        4.60610        0.46650
O        -11.58030        5.03320        1.02650
C        -13.96530        4.80780        0.89240
C        -14.43020        5.50350        1.99040
C        -15.80150        5.56100        2.20220
Cl       -16.42080        6.41970        3.55340
C        -16.67930        4.92100        1.31800
Cl       -18.37150        4.99320        1.59680
C        -16.20680        4.22240        0.21310
C        -14.83860        4.16650       -0.00260
C        -14.05270        3.52950       -1.05240
C        -14.55390        2.93220       -2.17570
C        -13.77580        2.41330       -3.23470
N        -13.21640        1.99300       -4.14440
C        -15.93250        2.78980       -2.44620
N        -17.03680        2.63930       -2.71840
H         11.04970       -4.94620       -0.05990
H          7.40590       -5.42890       -0.20960
H          8.97760       -0.70570       -0.12830
H         10.55340       -2.55220        0.28860
H          6.87860        0.84450       -0.59430
H          4.62910        1.81000       -0.85400
H          2.91300       -2.10500       -1.15220
H          1.84540        3.96570       -0.54010
H          1.40390        6.25880        0.13290
H          1.04830        9.53690        1.68750
H          0.25930        8.16300        0.88360
H          2.01240        8.46480        0.64930
H          2.30470        5.24470        4.18950
H          2.71230        2.91260        3.51250
H          4.93730        2.69490        1.92510
H          6.67500        1.17190        2.78130
H          6.96540       -3.94530        3.19970
H          5.40560       -3.40780        3.86590
H          5.67690       -3.45810        2.09260
H          3.92590       -2.09260        2.54310
H          2.21130       -0.58740        1.70540
H         -2.23180       -0.55960       -4.84220
H         -1.40920       -2.77610       -5.54540
H          1.28030       -4.97840       -2.38280
H         -0.16650       -5.97030       -1.99910
H          1.04430       -6.55990       -3.15530
H         -0.61960       -3.77300       -1.46200
H         -1.45200       -1.59100       -0.76870
H         -2.58220        2.93900       -2.99070
H         -4.64060        3.99970       -3.73360
H         -6.74140        4.86150       -3.08400
H         -6.44380        4.97840       -4.85070
H         -8.10060        5.05300       -4.21450
H         -6.56290        0.18060       -3.86410
H         -4.48930       -0.88680       -3.09470
H         -4.25410        0.35940       -0.46820
H         -5.22870        5.21110        0.01700
H         -2.90390        4.39280        0.06520
H         -7.82610        5.55320       -0.43210
H        -10.22560        5.33060       -0.88020
H         -9.82110        1.06960       -1.23760
H        -11.85910        2.21210       -1.95060
H        -13.74240        5.98970        2.66430
H        -16.91120        3.73770       -0.44280
