178

C          9.57760        2.52620        5.38790
C          9.58020        3.33810        6.50440
C          8.41210        3.88300        7.18360
O          7.24380        3.79050        6.85440
C          8.92770        4.57070        8.39160
C          8.21690        5.17170        9.41370
Cl         6.52140        5.35120        9.33560
C          8.92600        5.62900       10.53370
Cl         8.09690        6.41590       11.80580
C         10.29650        5.40120       10.63150
Cl        11.12350        5.87330       12.05360
C         11.01040        4.77880        9.59360
Cl        12.65210        4.36750        9.87350
C         10.33000        4.43470        8.43300
C         10.76600        3.82450        7.17650
C         12.02900        3.89560        6.63910
C         12.42860        3.28150        5.43370
N         12.84260        2.79800        4.47640
C         13.07250        4.72780        7.09680
N         13.94160        5.44690        7.30980
C          8.53650        2.04500        4.60130
C          8.74370        1.21330        3.46790
C         10.09400        0.71570        3.05590
C         10.54760       -0.45580        3.93200
C          7.55660        0.91580        2.83040
C          6.44240        1.49310        3.46960
S          6.83000        2.41850        4.84730
C          5.28320        1.15040        2.75070
C          5.62570        0.36890        1.64720
C          7.11690        0.13100        1.60540
C          7.46930       -1.35860        1.80400
C          6.89520       -2.30160        0.75480
C          7.70910        0.69080        0.29920
C          7.64060        2.21070        0.22630
C          4.52930        0.03700        0.86110
C          3.34370        0.54510        1.36950
S          3.59650        1.45980        2.84360
C          2.01910        0.39910        0.87840
C          1.56110        0.09770       -0.39980
N          2.32650       -0.11620       -1.53440
C          1.79320       -1.00790       -2.48620
C          1.27690       -2.23050       -2.06290
C          0.63500       -3.06990       -2.95100
C          0.50720       -2.70070       -4.28360
S         -0.36030       -3.66920       -5.47590
C         -1.53490       -4.60490       -4.45220
C          1.08380       -1.51090       -4.72360
C          1.71610       -0.66910       -3.83660
C          3.41070        0.69770       -1.87510
C          3.50370        2.01450       -1.43520
C          4.56980        2.81080       -1.80760
C          5.56370        2.30500       -2.63350
S          6.95010        3.23190       -3.21160
C          6.67140        4.89980       -2.55350
C          5.48690        0.97910       -3.05830
C          4.42920        0.18420       -2.68250
C          0.14460        0.03860       -0.41960
S         -1.01370       -0.27490       -1.65980
C         -2.33420       -0.05270       -0.51580
C         -1.88520        0.19810        0.76950
N         -2.67560        0.27060        1.90540
C         -2.19510        1.03690        2.98220
C         -2.18550        0.52810        4.28100
C         -1.63830        1.26300        5.30760
C         -1.08010        2.51630        5.06290
S         -0.35470        3.35530        6.43550
C          0.82010        4.49050        5.64090
C         -1.12410        3.04420        3.78010
C         -1.67960        2.30940        2.75060
C         -3.77210       -0.58150        2.08220
C         -4.82560       -0.19160        2.90630
C         -5.92820       -1.00530        3.08460
C         -6.00420       -2.22820        2.43210
S         -7.37220       -3.33800        2.54540
C         -8.49760       -2.52710        3.71570
C         -4.94160       -2.63430        1.62680
C         -3.83700       -1.82990        1.46150
C         -0.46790        0.28780        0.79630
S          0.69910        0.63210        2.02300
C         -3.65830       -0.24010       -1.04000
C         -4.76110        0.60010       -0.99070
C         -4.65850        1.95780       -0.35760
C         -5.69630        2.25830        0.72210
C         -5.83000        0.07280       -1.73650
C         -5.50480       -1.13170       -2.36150
S         -3.91490       -1.66370       -2.02470
C         -6.55380       -1.55870       -3.19900
C         -7.58900       -0.61340       -3.10930
C         -7.24010        0.47900       -2.12540
C         -8.23610        0.40760       -0.94910
C         -8.12270       -0.88320       -0.14930
C         -7.29620        1.86550       -2.78760
C         -6.36330        1.98530       -3.98690
C         -8.64580       -0.92580       -3.92540
C         -8.43420       -2.10460       -4.66700
S         -6.86900       -2.82640       -4.29720
C         -9.37980       -2.57940       -5.57460
C         -9.35480       -3.67350       -6.41290
C         -8.24870       -4.62050       -6.53840
O         -7.20050       -4.62750       -5.91840
C         -8.65610       -5.58510       -7.58330
C         -9.94010       -5.24790       -8.04950
C        -10.53870       -6.01160       -9.03780
C         -9.84580       -7.10040       -9.54830
C         -8.58070       -7.42700       -9.08670
Br        -7.68830       -8.92120       -9.82370
C         -7.95850       -6.66960       -8.08780
Cl        -6.39520       -7.06830       -7.51570
C        -10.40210       -4.05950       -7.32930
C        -11.62000       -3.45380       -7.51810
C        -12.59340       -3.89690       -8.43710
N        -13.43060       -4.19950       -9.16240
C        -12.08880       -2.31300       -6.83500
N        -12.54840       -1.39020       -6.32700
H         10.55320        2.19010        5.06700
H         10.04790        0.38800        2.01780
H         10.83350        1.51680        3.11560
H          9.84160       -1.28050        3.86480
H         10.62050       -0.15640        4.97440
H         11.52400       -0.80360        3.60540
H          7.10850       -1.66320        2.78990
H          8.55630       -1.44910        1.80380
H          7.20070       -2.01060       -0.24650
H          5.81020       -2.32110        0.80100
H          7.25840       -3.31010        0.94000
H          8.74810        0.37100        0.20590
H          7.15130        0.27440       -0.54120
H          8.03550        2.54680       -0.72860
H          6.60960        2.54760        0.31630
H          8.22580        2.66750        1.02080
H          4.56670       -0.56050       -0.02920
H          1.36350       -2.51230       -1.02310
H          0.23440       -4.00530       -2.59470
H         -2.28320       -4.99030       -5.13750
H         -1.99910       -3.93370       -3.73570
H         -1.03440       -5.43090       -3.95520
H          1.00020       -1.24150       -5.76490
H          2.12520        0.27010       -4.17740
H          2.72580        2.42910       -0.81190
H          4.60280        3.82910       -1.45530
H          7.49450        5.50080       -2.92730
H          5.73010        5.29200       -2.92710
H          6.69270        4.88220       -1.46760
H          6.26830        0.58480       -3.68960
H          4.37690       -0.84110       -3.01760
H         -2.58560       -0.45630        4.47190
H         -1.61210        0.86440        6.30990
H          0.29700        5.33720        5.20560
H          1.47880        4.83520        6.43170
H          1.39060        3.94890        4.89230
H         -0.72780        4.02460        3.57010
H         -1.70480        2.72250        1.75220
H         -4.77590        0.75660        3.42090
H         -6.72280       -0.66560        3.72890
H         -9.34540       -3.19770        3.81580
H         -8.00920       -2.40510        4.67800
H         -8.82900       -1.57290        3.31640
H         -4.99110       -3.59590        1.13960
H         -3.01030       -2.18020        0.86330
H         -3.66140        2.04560        0.07510
H         -4.73570        2.70970       -1.14890
H         -6.63840        2.57630        0.28590
H         -5.33860        3.06210        1.36170
H         -5.87400        1.38050        1.33680
H         -9.24350        0.49340       -1.36190
H         -8.07710        1.25560       -0.28470
H         -8.27560       -1.75280       -0.78390
H         -8.87610       -0.89980        0.63440
H         -7.14140       -0.96590        0.31200
H         -8.32370        2.05010       -3.10750
H         -7.03650        2.62360       -2.04760
H         -6.62560        1.25910       -4.75260
H         -6.43690        2.98020       -4.41920
H         -5.33020        1.81270       -3.69310
H         -9.55060       -0.35320       -4.02930
H        -10.26980       -1.96330       -5.61830
H        -11.51980       -5.78350       -9.41870
H        -10.29500       -7.70720      -10.31930
