
  xtb     02032223403D
 energy: -189.895672559451 gnorm: 0.000231655765 xtb: 6.4.1 (unknown)
 77 88  0     0  0            999 V2000
    6.3007    0.2653    1.6843 C   0  0  0  0  0  0  0  0  0  0  0  0
    7.5351    0.1638    1.1138 C   0  0  0  0  0  0  0  0  0  0  0  0
    7.9311   -0.8482    0.1090 C   0  0  0  0  0  0  0  0  0  0  0  0
    7.2410   -1.6891   -0.4171 O   0  0  0  0  0  0  0  0  0  0  0  0
    9.4089   -0.7381    0.0126 C   0  0  0  0  0  0  0  0  0  0  0  0
   10.2784   -1.5073   -0.7406 C   0  0  0  0  0  0  0  0  0  0  0  0
    9.7039   -2.6521   -1.8667 Cl  0  0  0  0  0  0  0  0  0  0  0  0
   11.6570   -1.3239   -0.5597 C   0  0  0  0  0  0  0  0  0  0  0  0
   12.7677   -2.2207   -1.4997 Cl  0  0  0  0  0  0  0  0  0  0  0  0
   12.1227   -0.4428    0.4149 C   0  0  0  0  0  0  0  0  0  0  0  0
   13.8054   -0.3109    0.6898 Cl  0  0  0  0  0  0  0  0  0  0  0  0
   11.2359    0.3281    1.1840 C   0  0  0  0  0  0  0  0  0  0  0  0
   11.8724    1.2582    2.4763 Cl  0  0  0  0  0  0  0  0  0  0  0  0
    9.8741    0.2287    0.9281 C   0  0  0  0  0  0  0  0  0  0  0  0
    8.7167    0.9136    1.4948 C   0  0  0  0  0  0  0  0  0  0  0  0
    8.6706    2.1671    2.0443 C   0  0  0  0  0  0  0  0  0  0  0  0
    9.7236    3.1054    2.1066 C   0  0  0  0  0  0  0  0  0  0  0  0
   10.4734    3.9739    2.1250 N   0  0  0  0  0  0  0  0  0  0  0  0
    7.4702    2.7789    2.4753 C   0  0  0  0  0  0  0  0  0  0  0  0
    6.5439    3.3498    2.8399 N   0  0  0  0  0  0  0  0  0  0  0  0
    5.0755   -0.2202    1.1550 C   0  0  0  0  0  0  0  0  0  0  0  0
    4.0151   -0.5631    2.0205 C   0  0  0  0  0  0  0  0  0  0  0  0
    2.7042   -0.9538    1.5451 C   0  0  0  0  0  0  0  0  0  0  0  0
    1.8773   -1.2203    2.5643 N   0  0  0  0  0  0  0  0  0  0  0  0
    2.6590   -1.0165    3.9438 S   0  0  0  0  0  4  0  0  0  0  0  0
    4.0823   -0.5788    3.3534 N   0  0  0  0  0  0  0  0  0  0  0  0
    2.3733   -0.9587    0.1763 C   0  0  0  0  0  0  0  0  0  0  0  0
    3.4381   -0.6606   -0.6901 C   0  0  0  0  0  0  0  0  0  0  0  0
    3.3849   -0.6678   -2.0277 N   0  0  0  0  0  0  0  0  0  0  0  0
    4.7866   -0.1830   -2.6072 S   0  0  0  0  0  0  0  0  0  0  0  0
    5.5600    0.0572   -1.2280 N   0  0  0  0  0  0  0  0  0  0  0  0
    4.7571   -0.2782   -0.2163 C   0  0  0  0  0  0  0  0  0  0  0  0
    1.0050   -1.1287   -0.2631 C   0  0  0  0  0  0  0  0  0  0  0  0
    0.1285   -1.9972    0.3682 C   0  0  0  0  0  0  0  0  0  0  0  0
   -1.2307   -2.0479    0.0647 C   0  0  0  0  0  0  0  0  0  0  0  0
   -1.8150   -1.2019   -0.8643 C   0  0  0  0  0  0  0  0  0  0  0  0
   -0.9405   -0.3629   -1.5993 C   0  0  0  0  0  0  0  0  0  0  0  0
   -1.2581    0.4463   -2.6075 N   0  0  0  0  0  0  0  0  0  0  0  0
    0.0611    1.2213   -3.0844 S   0  0  0  0  0  0  0  0  0  0  0  0
    1.1062    0.5670   -2.0581 N   0  0  0  0  0  0  0  0  0  0  0  0
    0.4676   -0.3213   -1.2994 C   0  0  0  0  0  0  0  0  0  0  0  0
   -3.2516   -1.1050   -1.0070 C   0  0  0  0  0  0  0  0  0  0  0  0
   -3.8982    0.1342   -1.1634 C   0  0  0  0  0  0  0  0  0  0  0  0
   -5.3424    0.2647   -1.1670 C   0  0  0  0  0  0  0  0  0  0  0  0
   -5.7225    1.5315   -1.3504 N   0  0  0  0  0  0  0  0  0  0  0  0
   -4.4201    2.4561   -1.4234 S   0  0  0  0  0  4  0  0  0  0  0  0
   -3.3049    1.3298   -1.2663 N   0  0  0  0  0  0  0  0  0  0  0  0
   -6.2021   -0.8374   -1.0001 C   0  0  0  0  0  0  0  0  0  0  0  0
   -5.5551   -2.0872   -0.9524 C   0  0  0  0  0  0  0  0  0  0  0  0
   -6.1575   -3.2747   -0.8523 N   0  0  0  0  0  0  0  0  0  0  0  0
   -5.0422   -4.4195   -0.7514 S   0  0  0  0  0  0  0  0  0  0  0  0
   -3.7386   -3.4960   -0.8030 N   0  0  0  0  0  0  0  0  0  0  0  0
   -4.1103   -2.2141   -0.9163 C   0  0  0  0  0  0  0  0  0  0  0  0
   -7.6185   -0.7228   -0.8947 C   0  0  0  0  0  0  0  0  0  0  0  0
   -8.2609    0.2979   -0.2588 C   0  0  0  0  0  0  0  0  0  0  0  0
   -7.6254    1.1913    0.7444 C   0  0  0  0  0  0  0  0  0  0  0  0
   -6.4879    1.1680    1.1590 O   0  0  0  0  0  0  0  0  0  0  0  0
   -8.7214    2.0386    1.2634 C   0  0  0  0  0  0  0  0  0  0  0  0
   -8.6437    3.0421    2.2078 C   0  0  0  0  0  0  0  0  0  0  0  0
   -9.8118    3.7055    2.5629 C   0  0  0  0  0  0  0  0  0  0  0  0
   -9.7844    4.9736    3.7235 Cl  0  0  0  0  0  0  0  0  0  0  0  0
  -11.0186    3.3311    1.9661 C   0  0  0  0  0  0  0  0  0  0  0  0
  -12.1407    3.9694    2.3173 F   0  0  0  0  0  0  0  0  0  0  0  0
  -11.1048    2.3194    1.0226 C   0  0  0  0  0  0  0  0  0  0  0  0
   -9.9360    1.6642    0.6645 C   0  0  0  0  0  0  0  0  0  0  0  0
   -9.6825    0.5858   -0.2871 C   0  0  0  0  0  0  0  0  0  0  0  0
  -10.6136    0.0137   -1.1118 C   0  0  0  0  0  0  0  0  0  0  0  0
  -11.9835    0.3538   -1.1108 C   0  0  0  0  0  0  0  0  0  0  0  0
  -13.1070    0.5838   -1.1506 N   0  0  0  0  0  0  0  0  0  0  0  0
  -10.3384   -0.9728   -2.0835 C   0  0  0  0  0  0  0  0  0  0  0  0
  -10.1977   -1.7606   -2.9063 N   0  0  0  0  0  0  0  0  0  0  0  0
    6.2112    0.7311    2.6585 H   0  0  0  0  0  0  0  0  0  0  0  0
    0.5110   -2.6429    1.1424 H   0  0  0  0  0  0  0  0  0  0  0  0
   -1.8628   -2.7262    0.6155 H   0  0  0  0  0  0  0  0  0  0  0  0
   -8.1850   -1.5418   -1.3191 H   0  0  0  0  0  0  0  0  0  0  0  0
   -7.6975    3.3042    2.6536 H   0  0  0  0  0  0  0  0  0  0  0  0
  -12.0688    2.0768    0.6063 H   0  0  0  0  0  0  0  0  0  0  0  0
  1  2  2  0  0  0  0
  2  3  1  0  0  0  0
  3  4  2  0  0  0  0
  3  5  1  0  0  0  0
  5  6  2  0  0  0  0
  6  7  1  0  0  0  0
  6  8  1  0  0  0  0
  8  9  1  0  0  0  0
  8 10  2  0  0  0  0
 10 11  1  0  0  0  0
 10 12  1  0  0  0  0
 12 13  1  0  0  0  0
 12 14  2  0  0  0  0
 14 15  1  0  0  0  0
 15 16  2  0  0  0  0
 16 17  1  0  0  0  0
 17 18  3  0  0  0  0
 16 19  1  0  0  0  0
 19 20  3  0  0  0  0
  1 21  1  0  0  0  0
 21 22  2  0  0  0  0
 22 23  1  0  0  0  0
 23 24  1  0  0  0  0
 24 25  2  0  0  0  0
 25 26  2  0  0  0  0
 23 27  2  0  0  0  0
 27 28  1  0  0  0  0
 28 29  2  0  0  0  0
 29 30  1  0  0  0  0
 30 31  1  0  0  0  0
 31 32  2  0  0  0  0
 27 33  1  0  0  0  0
 33 34  2  0  0  0  0
 34 35  1  0  0  0  0
 35 36  2  0  0  0  0
 36 37  1  0  0  0  0
 37 38  2  0  0  0  0
 38 39  1  0  0  0  0
 39 40  1  0  0  0  0
 40 41  2  0  0  0  0
 36 42  1  0  0  0  0
 42 43  2  0  0  0  0
 43 44  1  0  0  0  0
 44 45  1  0  0  0  0
 45 46  2  0  0  0  0
 46 47  2  0  0  0  0
 44 48  2  0  0  0  0
 48 49  1  0  0  0  0
 49 50  2  0  0  0  0
 50 51  1  0  0  0  0
 51 52  1  0  0  0  0
 52 53  2  0  0  0  0
 48 54  1  0  0  0  0
 54 55  2  0  0  0  0
 55 56  1  0  0  0  0
 56 57  2  0  0  0  0
 56 58  1  0  0  0  0
 58 59  2  0  0  0  0
 59 60  1  0  0  0  0
 60 61  1  0  0  0  0
 60 62  2  0  0  0  0
 62 63  1  0  0  0  0
 62 64  1  0  0  0  0
 64 65  2  0  0  0  0
 65 66  1  0  0  0  0
 66 67  2  0  0  0  0
 67 68  1  0  0  0  0
 68 69  3  0  0  0  0
 67 70  1  0  0  0  0
 70 71  3  0  0  0  0
 15  2  1  0  0  0  0
 32 21  1  0  0  0  0
 41 33  1  0  0  0  0
 53 42  1  0  0  0  0
 66 55  1  0  0  0  0
 14  5  1  0  0  0  0
 26 22  1  0  0  0  0
 32 28  1  0  0  0  0
 41 37  1  0  0  0  0
 47 43  1  0  0  0  0
 53 49  1  0  0  0  0
 65 58  1  0  0  0  0
  1 72  1  0  0  0  0
 34 73  1  0  0  0  0
 35 74  1  0  0  0  0
 54 75  1  0  0  0  0
 59 76  1  0  0  0  0
 64 77  1  0  0  0  0
M  END
