
  xtb     02042200433D
 energy: -337.772431831014 gnorm: 0.000449747923 xtb: 6.4.1 (unknown)
177195  0     0  0            999 V2000
   -4.6373   -8.7594   -1.2691 C   0  0  0  0  0  0  0  0  0  0  0  0
   -5.7389   -9.3313   -0.6727 C   0  0  0  0  0  0  0  0  0  0  0  0
   -6.3017   -8.9002    0.6118 C   0  0  0  0  0  0  0  0  0  0  0  0
   -5.8823   -8.0519    1.3728 O   0  0  0  0  0  0  0  0  0  0  0  0
   -7.4286   -9.8299    0.8776 C   0  0  0  0  0  0  0  0  0  0  0  0
   -8.3632   -9.7728    1.8928 C   0  0  0  0  0  0  0  0  0  0  0  0
   -8.2694   -8.5947    3.1246 Cl  0  0  0  0  0  0  0  0  0  0  0  0
   -9.4175  -10.6960    1.8804 C   0  0  0  0  0  0  0  0  0  0  0  0
  -10.5821  -10.6841    3.1336 Cl  0  0  0  0  0  0  0  0  0  0  0  0
   -9.5395  -11.5936    0.8231 C   0  0  0  0  0  0  0  0  0  0  0  0
  -10.8829  -12.6540    0.7802 Cl  0  0  0  0  0  0  0  0  0  0  0  0
   -8.5948  -11.6353   -0.2160 C   0  0  0  0  0  0  0  0  0  0  0  0
   -8.9267  -12.6482   -1.5602 Cl  0  0  0  0  0  0  0  0  0  0  0  0
   -7.4900  -10.7947   -0.1481 C   0  0  0  0  0  0  0  0  0  0  0  0
   -6.3514  -10.5843   -1.0437 C   0  0  0  0  0  0  0  0  0  0  0  0
   -5.8889  -11.4459   -2.0124 C   0  0  0  0  0  0  0  0  0  0  0  0
   -4.9402  -11.1141   -3.0009 C   0  0  0  0  0  0  0  0  0  0  0  0
   -4.2340  -10.9356   -3.8909 N   0  0  0  0  0  0  0  0  0  0  0  0
   -6.1729  -12.8247   -2.0943 C   0  0  0  0  0  0  0  0  0  0  0  0
   -6.2281  -13.9694   -2.1700 N   0  0  0  0  0  0  0  0  0  0  0  0
   -4.1779   -7.4462   -1.0793 C   0  0  0  0  0  0  0  0  0  0  0  0
   -2.8103   -7.1326   -1.2960 C   0  0  0  0  0  0  0  0  0  0  0  0
   -2.2591   -5.8057   -1.1374 C   0  0  0  0  0  0  0  0  0  0  0  0
   -0.9317   -5.8035   -1.2464 N   0  0  0  0  0  0  0  0  0  0  0  0
   -0.4245   -7.3024   -1.5434 S   0  0  0  0  0  4  0  0  0  0  0  0
   -1.8627   -8.0303   -1.5525 N   0  0  0  0  0  0  0  0  0  0  0  0
   -3.0744   -4.6880   -0.8342 C   0  0  0  0  0  0  0  0  0  0  0  0
   -4.4241   -5.0189   -0.5576 C   0  0  0  0  0  0  0  0  0  0  0  0
   -5.3466   -4.1279   -0.1931 N   0  0  0  0  0  0  0  0  0  0  0  0
   -6.7687   -4.8679   -0.0580 S   0  0  0  0  0  0  0  0  0  0  0  0
   -6.2904   -6.3406   -0.4739 N   0  0  0  0  0  0  0  0  0  0  0  0
   -4.9765   -6.3414   -0.6963 C   0  0  0  0  0  0  0  0  0  0  0  0
   -2.6489   -3.3533   -0.7057 C   0  0  0  0  0  0  0  0  0  0  0  0
   -1.4898   -2.6895   -1.1698 C   0  0  0  0  0  0  0  0  0  0  0  0
   -0.7228   -3.0858   -2.2281 N   0  0  0  0  0  0  0  0  0  0  0  0
   -1.2443   -3.9402   -3.2078 C   0  0  0  0  0  0  0  0  0  0  0  0
   -0.4482   -4.9365   -3.7695 C   0  0  0  0  0  0  0  0  0  0  0  0
   -1.0163   -5.9298   -4.5427 C   0  0  0  0  0  0  0  0  0  0  0  0
   -2.3870   -5.9314   -4.7816 C   0  0  0  0  0  0  0  0  0  0  0  0
   -3.2355   -7.2534   -5.5706 S   0  0  0  0  0  0  0  0  0  0  0  0
   -2.1905   -8.6876   -5.1847 C   0  0  0  0  0  0  0  0  0  0  0  0
   -3.1504   -4.8399   -4.3617 C   0  0  0  0  0  0  0  0  0  0  0  0
   -2.5857   -3.8542   -3.5886 C   0  0  0  0  0  0  0  0  0  0  0  0
    0.5870   -2.5929   -2.3511 C   0  0  0  0  0  0  0  0  0  0  0  0
    1.4522   -2.6066   -1.2572 C   0  0  0  0  0  0  0  0  0  0  0  0
    2.6987   -2.0316   -1.3580 C   0  0  0  0  0  0  0  0  0  0  0  0
    3.1053   -1.4316   -2.5495 C   0  0  0  0  0  0  0  0  0  0  0  0
    4.6792   -0.6437   -2.5449 S   0  0  0  0  0  0  0  0  0  0  0  0
    4.6689    0.3361   -4.0714 C   0  0  0  0  0  0  0  0  0  0  0  0
    2.2691   -1.4794   -3.6597 C   0  0  0  0  0  0  0  0  0  0  0  0
    1.0196   -2.0571   -3.5598 C   0  0  0  0  0  0  0  0  0  0  0  0
   -1.3296   -1.4606   -0.4871 C   0  0  0  0  0  0  0  0  0  0  0  0
   -0.1193   -0.2220   -0.4609 S   0  0  0  0  0  0  0  0  0  0  0  0
   -1.0209    0.6806    0.7500 C   0  0  0  0  0  0  0  0  0  0  0  0
   -2.2472    0.0944    1.0361 C   0  0  0  0  0  0  0  0  0  0  0  0
   -3.2478    0.6001    1.8503 N   0  0  0  0  0  0  0  0  0  0  0  0
   -4.1559   -0.3523    2.3670 C   0  0  0  0  0  0  0  0  0  0  0  0
   -3.6723   -1.4213    3.1165 C   0  0  0  0  0  0  0  0  0  0  0  0
   -4.4919   -2.4898    3.4250 C   0  0  0  0  0  0  0  0  0  0  0  0
   -5.8053   -2.5039    2.9732 C   0  0  0  0  0  0  0  0  0  0  0  0
   -6.8515   -3.9223    3.1068 S   0  0  0  0  0  0  0  0  0  0  0  0
   -5.6527   -5.2830    3.2073 C   0  0  0  0  0  0  0  0  0  0  0  0
   -6.3258   -1.3748    2.3438 C   0  0  0  0  0  0  0  0  0  0  0  0
   -5.5122   -0.3038    2.0470 C   0  0  0  0  0  0  0  0  0  0  0  0
   -3.5373    1.9656    1.9279 C   0  0  0  0  0  0  0  0  0  0  0  0
   -4.1664    2.4667    3.0694 C   0  0  0  0  0  0  0  0  0  0  0  0
   -4.3932    3.8175    3.2021 C   0  0  0  0  0  0  0  0  0  0  0  0
   -3.9942    4.7052    2.2041 C   0  0  0  0  0  0  0  0  0  0  0  0
   -4.2826    6.4196    2.5092 S   0  0  0  0  0  0  0  0  0  0  0  0
   -3.4791    7.2527    1.1111 C   0  0  0  0  0  0  0  0  0  0  0  0
   -3.4082    4.2075    1.0489 C   0  0  0  0  0  0  0  0  0  0  0  0
   -3.1899    2.8512    0.9118 C   0  0  0  0  0  0  0  0  0  0  0  0
   -2.3880   -1.1349    0.3484 C   0  0  0  0  0  0  0  0  0  0  0  0
   -3.6517   -2.3146    0.2920 S   0  0  0  0  0  0  0  0  0  0  0  0
   -0.3957    1.8490    1.3190 C   0  0  0  0  0  0  0  0  0  0  0  0
    0.5417    2.5655    0.5628 C   0  0  0  0  0  0  0  0  0  0  0  0
    1.1635    3.6506    1.1233 C   0  0  0  0  0  0  0  0  0  0  0  0
    2.1913    4.5576    0.5016 C   0  0  0  0  0  0  0  0  0  0  0  0
    3.3913    3.8532   -0.0831 C   0  0  0  0  0  0  0  0  0  0  0  0
    4.2650    2.9883    0.5310 C   0  0  0  0  0  0  0  0  0  0  0  0
    5.3262    2.4655   -0.1957 C   0  0  0  0  0  0  0  0  0  0  0  0
    5.5159    2.8160   -1.5296 C   0  0  0  0  0  0  0  0  0  0  0  0
    6.5215    2.3579   -2.3294 O   0  0  0  0  0  0  0  0  0  0  0  0
    7.5358    1.5320   -1.7891 C   0  0  0  0  0  0  0  0  0  0  0  0
    8.5446    2.3075   -0.9494 C   0  0  0  0  0  0  0  0  0  0  0  0
    4.6178    3.6844   -2.1567 C   0  0  0  0  0  0  0  0  0  0  0  0
    3.5607    4.1968   -1.4329 C   0  0  0  0  0  0  0  0  0  0  0  0
    2.4864    5.1023   -1.8141 C   0  0  0  0  0  0  0  0  0  0  0  0
    2.2050    5.7083   -3.0283 C   0  0  0  0  0  0  0  0  0  0  0  0
    1.0887    6.5360   -3.1169 C   0  0  0  0  0  0  0  0  0  0  0  0
    0.6964    7.2154   -4.2288 O   0  0  0  0  0  0  0  0  0  0  0  0
    1.3956    7.0482   -5.4454 C   0  0  0  0  0  0  0  0  0  0  0  0
    1.0373    5.7454   -6.1552 C   0  0  0  0  0  0  0  0  0  0  0  0
    0.2767    6.7365   -1.9945 C   0  0  0  0  0  0  0  0  0  0  0  0
    0.5625    6.1318   -0.7848 C   0  0  0  0  0  0  0  0  0  0  0  0
    1.6693    5.3142   -0.6989 C   0  0  0  0  0  0  0  0  0  0  0  0
    2.5242    5.4759    1.6512 C   0  0  0  0  0  0  0  0  0  0  0  0
    1.7175    5.1824    2.7660 C   0  0  0  0  0  0  0  0  0  0  0  0
    0.8784    4.0518    2.4413 C   0  0  0  0  0  0  0  0  0  0  0  0
   -0.0446    3.3416    3.1975 C   0  0  0  0  0  0  0  0  0  0  0  0
   -0.6674    2.2467    2.6362 C   0  0  0  0  0  0  0  0  0  0  0  0
    1.8301    5.9445    3.9241 C   0  0  0  0  0  0  0  0  0  0  0  0
    2.7672    6.9531    3.9618 C   0  0  0  0  0  0  0  0  0  0  0  0
    3.6272    7.2033    2.8762 C   0  0  0  0  0  0  0  0  0  0  0  0
    3.4667    6.4702    1.6893 C   0  0  0  0  0  0  0  0  0  0  0  0
    4.6173    8.2309    3.0228 C   0  0  0  0  0  0  0  0  0  0  0  0
    5.8588    8.2943    2.4698 C   0  0  0  0  0  0  0  0  0  0  0  0
    6.6014    7.1874    1.8174 C   0  0  0  0  0  0  0  0  0  0  0  0
    6.1910    6.1179    1.4342 O   0  0  0  0  0  0  0  0  0  0  0  0
    8.0205    7.6245    1.8198 C   0  0  0  0  0  0  0  0  0  0  0  0
    9.1362    6.9027    1.4329 C   0  0  0  0  0  0  0  0  0  0  0  0
    8.9929    5.3649    0.7130 Cl  0  0  0  0  0  0  0  0  0  0  0  0
   10.4012    7.4660    1.6503 C   0  0  0  0  0  0  0  0  0  0  0  0
   11.8053    6.6242    1.1582 Cl  0  0  0  0  0  0  0  0  0  0  0  0
   10.5169    8.6916    2.3050 C   0  0  0  0  0  0  0  0  0  0  0  0
   12.0728    9.3113    2.6510 Cl  0  0  0  0  0  0  0  0  0  0  0  0
    9.3817    9.4189    2.6978 C   0  0  0  0  0  0  0  0  0  0  0  0
    9.6038   10.8324    3.6429 Cl  0  0  0  0  0  0  0  0  0  0  0  0
    8.1260    8.9095    2.3890 C   0  0  0  0  0  0  0  0  0  0  0  0
    6.7777    9.4168    2.6129 C   0  0  0  0  0  0  0  0  0  0  0  0
    6.3832   10.7234    2.7008 C   0  0  0  0  0  0  0  0  0  0  0  0
    5.0331   11.1205    2.8464 C   0  0  0  0  0  0  0  0  0  0  0  0
    3.9645   11.5216    2.9642 N   0  0  0  0  0  0  0  0  0  0  0  0
    7.1937   11.8607    2.4912 C   0  0  0  0  0  0  0  0  0  0  0  0
    7.7373   12.8410    2.2466 N   0  0  0  0  0  0  0  0  0  0  0  0
   -4.0304   -9.3600   -1.9343 H   0  0  0  0  0  0  0  0  0  0  0  0
    0.6059   -4.9674   -3.5383 H   0  0  0  0  0  0  0  0  0  0  0  0
   -0.3929   -6.7198   -4.9304 H   0  0  0  0  0  0  0  0  0  0  0  0
   -1.3558   -8.7482   -5.8769 H   0  0  0  0  0  0  0  0  0  0  0  0
   -1.8507   -8.6139   -4.1562 H   0  0  0  0  0  0  0  0  0  0  0  0
   -2.8321   -9.5574   -5.2903 H   0  0  0  0  0  0  0  0  0  0  0  0
   -4.1967   -4.8005   -4.6221 H   0  0  0  0  0  0  0  0  0  0  0  0
   -3.1921   -3.0315   -3.2406 H   0  0  0  0  0  0  0  0  0  0  0  0
    1.1326   -3.0676   -0.3352 H   0  0  0  0  0  0  0  0  0  0  0  0
    3.3684   -2.0244   -0.5123 H   0  0  0  0  0  0  0  0  0  0  0  0
    5.5280    0.9958   -4.0006 H   0  0  0  0  0  0  0  0  0  0  0  0
    4.7651   -0.3120   -4.9378 H   0  0  0  0  0  0  0  0  0  0  0  0
    3.7580    0.9258   -4.1115 H   0  0  0  0  0  0  0  0  0  0  0  0
    2.5748   -1.0593   -4.6039 H   0  0  0  0  0  0  0  0  0  0  0  0
    0.3617   -2.0749   -4.4163 H   0  0  0  0  0  0  0  0  0  0  0  0
   -2.6331   -1.4351    3.4123 H   0  0  0  0  0  0  0  0  0  0  0  0
   -4.0902   -3.3178    3.9867 H   0  0  0  0  0  0  0  0  0  0  0  0
   -4.8236   -5.0742    2.5377 H   0  0  0  0  0  0  0  0  0  0  0  0
   -6.1646   -6.1835    2.8799 H   0  0  0  0  0  0  0  0  0  0  0  0
   -5.3071   -5.4070    4.2296 H   0  0  0  0  0  0  0  0  0  0  0  0
   -7.3622   -1.3718    2.0447 H   0  0  0  0  0  0  0  0  0  0  0  0
   -5.9032    0.5491    1.5127 H   0  0  0  0  0  0  0  0  0  0  0  0
   -4.4633    1.7875    3.8548 H   0  0  0  0  0  0  0  0  0  0  0  0
   -4.8691    4.2055    4.0894 H   0  0  0  0  0  0  0  0  0  0  0  0
   -3.9939    7.0141    0.1850 H   0  0  0  0  0  0  0  0  0  0  0  0
   -3.5652    8.3153    1.3157 H   0  0  0  0  0  0  0  0  0  0  0  0
   -2.4317    6.9692    1.0657 H   0  0  0  0  0  0  0  0  0  0  0  0
   -3.1169    4.8605    0.2423 H   0  0  0  0  0  0  0  0  0  0  0  0
   -2.7459    2.4820    0.0002 H   0  0  0  0  0  0  0  0  0  0  0  0
    0.7664    2.2621   -0.4497 H   0  0  0  0  0  0  0  0  0  0  0  0
    4.1369    2.7163    1.5682 H   0  0  0  0  0  0  0  0  0  0  0  0
    5.9989    1.7825    0.2966 H   0  0  0  0  0  0  0  0  0  0  0  0
    8.0342    1.1087   -2.6665 H   0  0  0  0  0  0  0  0  0  0  0  0
    7.0937    0.7073   -1.2173 H   0  0  0  0  0  0  0  0  0  0  0  0
    9.3248    1.6361   -0.6017 H   0  0  0  0  0  0  0  0  0  0  0  0
    8.9968    3.0943   -1.5484 H   0  0  0  0  0  0  0  0  0  0  0  0
    8.0622    2.7655   -0.0899 H   0  0  0  0  0  0  0  0  0  0  0  0
    4.7787    3.9393   -3.1927 H   0  0  0  0  0  0  0  0  0  0  0  0
    2.8550    5.5339   -3.8707 H   0  0  0  0  0  0  0  0  0  0  0  0
    2.4780    7.1221   -5.2841 H   0  0  0  0  0  0  0  0  0  0  0  0
    1.0819    7.8994   -6.0562 H   0  0  0  0  0  0  0  0  0  0  0  0
    1.3130    4.8841   -5.5515 H   0  0  0  0  0  0  0  0  0  0  0  0
    1.5577    5.6921   -7.1076 H   0  0  0  0  0  0  0  0  0  0  0  0
   -0.0341    5.7084   -6.3356 H   0  0  0  0  0  0  0  0  0  0  0  0
   -0.5770    7.3866   -2.1033 H   0  0  0  0  0  0  0  0  0  0  0  0
   -0.0684    6.2990    0.0763 H   0  0  0  0  0  0  0  0  0  0  0  0
   -0.2630    3.6279    4.2150 H   0  0  0  0  0  0  0  0  0  0  0  0
   -1.3492    1.6642    3.2343 H   0  0  0  0  0  0  0  0  0  0  0  0
    1.1966    5.7496    4.7761 H   0  0  0  0  0  0  0  0  0  0  0  0
    2.8761    7.5481    4.8571 H   0  0  0  0  0  0  0  0  0  0  0  0
    4.0551    6.6977    0.8166 H   0  0  0  0  0  0  0  0  0  0  0  0
    4.3518    9.0172    3.7211 H   0  0  0  0  0  0  0  0  0  0  0  0
  1  2  2  0  0  0  0
  2  3  1  0  0  0  0
  3  4  2  0  0  0  0
  3  5  1  0  0  0  0
  5  6  2  0  0  0  0
  6  7  1  0  0  0  0
  6  8  1  0  0  0  0
  8  9  1  0  0  0  0
  8 10  2  0  0  0  0
 10 11  1  0  0  0  0
 10 12  1  0  0  0  0
 12 13  1  0  0  0  0
 12 14  2  0  0  0  0
 14 15  1  0  0  0  0
 15 16  2  0  0  0  0
 16 17  1  0  0  0  0
 17 18  3  0  0  0  0
 16 19  1  0  0  0  0
 19 20  3  0  0  0  0
  1 21  1  0  0  0  0
 21 22  2  0  0  0  0
 22 23  1  0  0  0  0
 23 24  1  0  0  0  0
 24 25  2  0  0  0  0
 25 26  2  0  0  0  0
 23 27  2  0  0  0  0
 27 28  1  0  0  0  0
 28 29  2  0  0  0  0
 29 30  1  0  0  0  0
 30 31  1  0  0  0  0
 31 32  2  0  0  0  0
 27 33  1  0  0  0  0
 33 34  2  0  0  0  0
 34 35  1  0  0  0  0
 35 36  1  0  0  0  0
 36 37  2  0  0  0  0
 37 38  1  0  0  0  0
 38 39  2  0  0  0  0
 39 40  1  0  0  0  0
 40 41  1  0  0  0  0
 39 42  1  0  0  0  0
 42 43  2  0  0  0  0
 35 44  1  0  0  0  0
 44 45  2  0  0  0  0
 45 46  1  0  0  0  0
 46 47  2  0  0  0  0
 47 48  1  0  0  0  0
 48 49  1  0  0  0  0
 47 50  1  0  0  0  0
 50 51  2  0  0  0  0
 34 52  1  0  0  0  0
 52 53  1  0  0  0  0
 53 54  1  0  0  0  0
 54 55  2  0  0  0  0
 55 56  1  0  0  0  0
 56 57  1  0  0  0  0
 57 58  2  0  0  0  0
 58 59  1  0  0  0  0
 59 60  2  0  0  0  0
 60 61  1  0  0  0  0
 61 62  1  0  0  0  0
 60 63  1  0  0  0  0
 63 64  2  0  0  0  0
 56 65  1  0  0  0  0
 65 66  2  0  0  0  0
 66 67  1  0  0  0  0
 67 68  2  0  0  0  0
 68 69  1  0  0  0  0
 69 70  1  0  0  0  0
 68 71  1  0  0  0  0
 71 72  2  0  0  0  0
 55 73  1  0  0  0  0
 73 74  1  0  0  0  0
 54 75  1  0  0  0  0
 75 76  2  0  0  0  0
 76 77  1  0  0  0  0
 77 78  1  0  0  0  0
 78 79  1  0  0  0  0
 79 80  2  0  0  0  0
 80 81  1  0  0  0  0
 81 82  2  0  0  0  0
 82 83  1  0  0  0  0
 83 84  1  0  0  0  0
 84 85  1  0  0  0  0
 82 86  1  0  0  0  0
 86 87  2  0  0  0  0
 87 88  1  0  0  0  0
 88 89  2  0  0  0  0
 89 90  1  0  0  0  0
 90 91  1  0  0  0  0
 91 92  1  0  0  0  0
 92 93  1  0  0  0  0
 90 94  2  0  0  0  0
 94 95  1  0  0  0  0
 95 96  2  0  0  0  0
 78 97  1  0  0  0  0
 97 98  2  0  0  0  0
 98 99  1  0  0  0  0
 99100  1  0  0  0  0
100101  2  0  0  0  0
 98102  1  0  0  0  0
102103  2  0  0  0  0
103104  1  0  0  0  0
104105  2  0  0  0  0
104106  1  0  0  0  0
106107  2  0  0  0  0
107108  1  0  0  0  0
108109  2  0  0  0  0
108110  1  0  0  0  0
110111  2  0  0  0  0
111112  1  0  0  0  0
111113  1  0  0  0  0
113114  1  0  0  0  0
113115  2  0  0  0  0
115116  1  0  0  0  0
115117  1  0  0  0  0
117118  1  0  0  0  0
117119  2  0  0  0  0
119120  1  0  0  0  0
120121  2  0  0  0  0
121122  1  0  0  0  0
122123  3  0  0  0  0
121124  1  0  0  0  0
124125  3  0  0  0  0
 15  2  1  0  0  0  0
 32 21  1  0  0  0  0
 74 33  1  0  0  0  0
101 75  1  0  0  0  0
120107  1  0  0  0  0
 14  5  1  0  0  0  0
 26 22  1  0  0  0  0
 32 28  1  0  0  0  0
 43 36  1  0  0  0  0
 51 44  1  0  0  0  0
 73 52  2  0  0  0  0
 99 77  2  0  0  0  0
119110  1  0  0  0  0
 64 57  1  0  0  0  0
 72 65  1  0  0  0  0
 96 78  1  0  0  0  0
105 97  1  0  0  0  0
 87 79  1  0  0  0  0
 96 88  1  0  0  0  0
  1126  1  0  0  0  0
 37127  1  0  0  0  0
 38128  1  0  0  0  0
 41129  1  0  0  0  0
 41130  1  0  0  0  0
 41131  1  0  0  0  0
 42132  1  0  0  0  0
 43133  1  0  0  0  0
 45134  1  0  0  0  0
 46135  1  0  0  0  0
 49136  1  0  0  0  0
 49137  1  0  0  0  0
 49138  1  0  0  0  0
 50139  1  0  0  0  0
 51140  1  0  0  0  0
 58141  1  0  0  0  0
 59142  1  0  0  0  0
 62143  1  0  0  0  0
 62144  1  0  0  0  0
 62145  1  0  0  0  0
 63146  1  0  0  0  0
 64147  1  0  0  0  0
 66148  1  0  0  0  0
 67149  1  0  0  0  0
 70150  1  0  0  0  0
 70151  1  0  0  0  0
 70152  1  0  0  0  0
 71153  1  0  0  0  0
 72154  1  0  0  0  0
 76155  1  0  0  0  0
 80156  1  0  0  0  0
 81157  1  0  0  0  0
 84158  1  0  0  0  0
 84159  1  0  0  0  0
 85160  1  0  0  0  0
 85161  1  0  0  0  0
 85162  1  0  0  0  0
 86163  1  0  0  0  0
 89164  1  0  0  0  0
 92165  1  0  0  0  0
 92166  1  0  0  0  0
 93167  1  0  0  0  0
 93168  1  0  0  0  0
 93169  1  0  0  0  0
 94170  1  0  0  0  0
 95171  1  0  0  0  0
100172  1  0  0  0  0
101173  1  0  0  0  0
102174  1  0  0  0  0
103175  1  0  0  0  0
105176  1  0  0  0  0
106177  1  0  0  0  0
M  END
