
  xtb     02122200053D
 energy: -451.973327243512 gnorm: 0.001238016324 xtb: 6.4.1 (unknown)
265289  0     0  0            999 V2000
   -8.2659    4.5894   -4.4883 C   0  0  0  0  0  0  0  0  0  0  0  0
   -9.1532    3.9751   -5.3407 C   0  0  0  0  0  0  0  0  0  0  0  0
  -10.5056    4.5381   -5.4836 C   0  0  0  0  0  0  0  0  0  0  0  0
  -10.9127    5.5940   -5.0581 O   0  0  0  0  0  0  0  0  0  0  0  0
  -11.2773    3.4922   -6.2021 C   0  0  0  0  0  0  0  0  0  0  0  0
  -12.6387    3.4543   -6.4387 C   0  0  0  0  0  0  0  0  0  0  0  0
  -13.6622    4.7265   -5.9504 Cl  0  0  0  0  0  0  0  0  0  0  0  0
  -13.1708    2.3275   -7.0810 C   0  0  0  0  0  0  0  0  0  0  0  0
  -14.8491    2.2292   -7.3868 Cl  0  0  0  0  0  0  0  0  0  0  0  0
  -12.3303    1.2820   -7.4487 C   0  0  0  0  0  0  0  0  0  0  0  0
  -13.0031   -0.0986   -8.2150 Cl  0  0  0  0  0  0  0  0  0  0  0  0
  -10.9508    1.3208   -7.1929 C   0  0  0  0  0  0  0  0  0  0  0  0
  -10.0299   -0.0747   -7.5801 Cl  0  0  0  0  0  0  0  0  0  0  0  0
  -10.4120    2.4449   -6.5815 C   0  0  0  0  0  0  0  0  0  0  0  0
   -9.0506    2.8041   -6.1722 C   0  0  0  0  0  0  0  0  0  0  0  0
   -7.8497    2.3640   -6.6809 C   0  0  0  0  0  0  0  0  0  0  0  0
   -7.5743    1.3575   -7.6262 C   0  0  0  0  0  0  0  0  0  0  0  0
   -7.1744    0.5963   -8.3883 N   0  0  0  0  0  0  0  0  0  0  0  0
   -6.6403    3.0356   -6.4055 C   0  0  0  0  0  0  0  0  0  0  0  0
   -5.6218    3.5459   -6.2544 N   0  0  0  0  0  0  0  0  0  0  0  0
   -7.1545    4.0817   -3.8082 C   0  0  0  0  0  0  0  0  0  0  0  0
   -6.7376    2.7699   -3.5057 C   0  0  0  0  0  0  0  0  0  0  0  0
   -7.4069    1.5940   -3.7487 N   0  0  0  0  0  0  0  0  0  0  0  0
   -8.7940    1.4416   -3.7146 C   0  0  0  0  0  0  0  0  0  0  0  0
   -9.3699    0.3318   -4.3364 C   0  0  0  0  0  0  0  0  0  0  0  0
  -10.7369    0.1503   -4.3432 C   0  0  0  0  0  0  0  0  0  0  0  0
  -11.5680    1.0914   -3.7471 C   0  0  0  0  0  0  0  0  0  0  0  0
  -13.3244    1.0307   -3.7870 S   0  0  0  0  0  0  0  0  0  0  0  0
  -13.6982   -0.5897   -4.5139 C   0  0  0  0  0  0  0  0  0  0  0  0
  -10.9966    2.1750   -3.0808 C   0  0  0  0  0  0  0  0  0  0  0  0
   -9.6311    2.3423   -3.0506 C   0  0  0  0  0  0  0  0  0  0  0  0
   -6.6107    0.4141   -3.7525 C   0  0  0  0  0  0  0  0  0  0  0  0
   -5.6011    0.2528   -4.6988 C   0  0  0  0  0  0  0  0  0  0  0  0
   -4.7613   -0.8376   -4.6317 C   0  0  0  0  0  0  0  0  0  0  0  0
   -4.9119   -1.7769   -3.6150 C   0  0  0  0  0  0  0  0  0  0  0  0
   -3.7362   -3.0871   -3.5498 S   0  0  0  0  0  0  0  0  0  0  0  0
   -3.8212   -3.6285   -1.8198 C   0  0  0  0  0  0  0  0  0  0  0  0
   -5.9557   -1.6488   -2.7070 C   0  0  0  0  0  0  0  0  0  0  0  0
   -6.8004   -0.5590   -2.7775 C   0  0  0  0  0  0  0  0  0  0  0  0
   -5.4886    2.7946   -2.8467 C   0  0  0  0  0  0  0  0  0  0  0  0
   -4.4364    1.5701   -2.2305 S   0  0  0  0  0  0  0  0  0  0  0  0
   -3.2572    2.7771   -1.7377 C   0  0  0  0  0  0  0  0  0  0  0  0
   -3.6599    4.0684   -2.0559 C   0  0  0  0  0  0  0  0  0  0  0  0
   -2.9239    5.2391   -1.9263 N   0  0  0  0  0  0  0  0  0  0  0  0
   -1.6418    5.3700   -2.4556 C   0  0  0  0  0  0  0  0  0  0  0  0
   -1.0656    4.3795   -3.2508 C   0  0  0  0  0  0  0  0  0  0  0  0
    0.1952    4.5534   -3.7836 C   0  0  0  0  0  0  0  0  0  0  0  0
    0.8977    5.7259   -3.5540 C   0  0  0  0  0  0  0  0  0  0  0  0
    2.5183    5.9100   -4.2636 S   0  0  0  0  0  0  0  0  0  0  0  0
    2.3322    7.5139   -5.1030 C   0  0  0  0  0  0  0  0  0  0  0  0
    0.3380    6.7144   -2.7574 C   0  0  0  0  0  0  0  0  0  0  0  0
   -0.9112    6.5349   -2.2064 C   0  0  0  0  0  0  0  0  0  0  0  0
   -3.6839    6.3929   -1.6165 C   0  0  0  0  0  0  0  0  0  0  0  0
   -4.4310    6.4172   -0.4451 C   0  0  0  0  0  0  0  0  0  0  0  0
   -5.2116    7.5128   -0.1273 C   0  0  0  0  0  0  0  0  0  0  0  0
   -5.2542    8.6051   -0.9826 C   0  0  0  0  0  0  0  0  0  0  0  0
   -6.2026   10.0610   -0.6893 S   0  0  0  0  0  0  0  0  0  0  0  0
   -7.1202    9.6908    0.8327 C   0  0  0  0  0  0  0  0  0  0  0  0
   -4.5070    8.5819   -2.1605 C   0  0  0  0  0  0  0  0  0  0  0  0
   -3.7350    7.4884   -2.4787 C   0  0  0  0  0  0  0  0  0  0  0  0
   -4.9529    4.0576   -2.6385 C   0  0  0  0  0  0  0  0  0  0  0  0
   -6.0202    5.2909   -3.1895 S   0  0  0  0  0  0  0  0  0  0  0  0
   -2.0894    2.2487   -1.1094 C   0  0  0  0  0  0  0  0  0  0  0  0
   -1.2242    2.7785   -0.1726 C   0  0  0  0  0  0  0  0  0  0  0  0
   -1.3080    4.0590    0.4185 N   0  0  0  0  0  0  0  0  0  0  0  0
   -0.2002    4.9041    0.3212 C   0  0  0  0  0  0  0  0  0  0  0  0
    0.9398    4.5514   -0.4022 C   0  0  0  0  0  0  0  0  0  0  0  0
    2.0352    5.3887   -0.4484 C   0  0  0  0  0  0  0  0  0  0  0  0
    2.0025    6.6159    0.1919 C   0  0  0  0  0  0  0  0  0  0  0  0
    3.4441    7.6654    0.2522 S   0  0  0  0  0  0  0  0  0  0  0  0
    3.7836    7.9405   -1.5107 C   0  0  0  0  0  0  0  0  0  0  0  0
    0.8469    7.0122    0.8517 C   0  0  0  0  0  0  0  0  0  0  0  0
   -0.2435    6.1724    0.9075 C   0  0  0  0  0  0  0  0  0  0  0  0
   -2.0949    4.0572    1.5993 C   0  0  0  0  0  0  0  0  0  0  0  0
   -3.4267    3.6490    1.5436 C   0  0  0  0  0  0  0  0  0  0  0  0
   -4.2034    3.6371    2.6826 C   0  0  0  0  0  0  0  0  0  0  0  0
   -3.6681    4.0201    3.9095 C   0  0  0  0  0  0  0  0  0  0  0  0
   -4.7658    3.9955    5.2927 S   0  0  0  0  0  0  0  0  0  0  0  0
   -3.7012    4.4157    6.7006 C   0  0  0  0  0  0  0  0  0  0  0  0
   -2.3303    4.3828    3.9787 C   0  0  0  0  0  0  0  0  0  0  0  0
   -1.5530    4.3882    2.8374 C   0  0  0  0  0  0  0  0  0  0  0  0
   -0.2644    1.8255    0.2323 C   0  0  0  0  0  0  0  0  0  0  0  0
    1.0362    1.8715    1.3699 S   0  0  0  0  0  0  0  0  0  0  0  0
    1.4838    0.2296    0.9436 C   0  0  0  0  0  0  0  0  0  0  0  0
    0.5917   -0.3412    0.0391 C   0  0  0  0  0  0  0  0  0  0  0  0
    0.6202   -1.6838   -0.3296 N   0  0  0  0  0  0  0  0  0  0  0  0
    0.4607   -2.0389   -1.6692 C   0  0  0  0  0  0  0  0  0  0  0  0
    0.8703   -1.1735   -2.6840 C   0  0  0  0  0  0  0  0  0  0  0  0
    0.6634   -1.5044   -4.0040 C   0  0  0  0  0  0  0  0  0  0  0  0
    0.0607   -2.7133   -4.3432 C   0  0  0  0  0  0  0  0  0  0  0  0
   -0.1426   -3.0472   -6.0685 S   0  0  0  0  0  0  0  0  0  0  0  0
   -1.2655   -4.4703   -6.1136 C   0  0  0  0  0  0  0  0  0  0  0  0
   -0.3205   -3.5920   -3.3392 C   0  0  0  0  0  0  0  0  0  0  0  0
   -0.1306   -3.2512   -2.0150 C   0  0  0  0  0  0  0  0  0  0  0  0
    0.8156   -2.6409    0.6755 C   0  0  0  0  0  0  0  0  0  0  0  0
    1.6538   -3.7380    0.4772 C   0  0  0  0  0  0  0  0  0  0  0  0
    1.9120   -4.6170    1.5098 C   0  0  0  0  0  0  0  0  0  0  0  0
    1.3289   -4.4231    2.7552 C   0  0  0  0  0  0  0  0  0  0  0  0
    1.6494   -5.4809    4.1420 S   0  0  0  0  0  0  0  0  0  0  0  0
    3.4374   -5.7767    3.9879 C   0  0  0  0  0  0  0  0  0  0  0  0
    0.4429   -3.3659    2.9394 C   0  0  0  0  0  0  0  0  0  0  0  0
    0.1965   -2.4786    1.9144 C   0  0  0  0  0  0  0  0  0  0  0  0
   -0.3836    0.5865   -0.3771 C   0  0  0  0  0  0  0  0  0  0  0  0
   -1.7103    0.5642   -1.4806 S   0  0  0  0  0  0  0  0  0  0  0  0
    2.6949   -0.4215    1.3325 C   0  0  0  0  0  0  0  0  0  0  0  0
    3.3608   -0.5727    2.5401 C   0  0  0  0  0  0  0  0  0  0  0  0
    3.0254    0.0283    3.7382 N   0  0  0  0  0  0  0  0  0  0  0  0
    3.3111   -0.6825    4.9224 C   0  0  0  0  0  0  0  0  0  0  0  0
    4.0877   -0.1172    5.9277 C   0  0  0  0  0  0  0  0  0  0  0  0
    4.4576   -0.8697    7.0241 C   0  0  0  0  0  0  0  0  0  0  0  0
    4.0540   -2.1940    7.1302 C   0  0  0  0  0  0  0  0  0  0  0  0
    4.5621   -3.2355    8.4621 S   0  0  0  0  0  0  0  0  0  0  0  0
    6.2064   -2.5613    8.8501 C   0  0  0  0  0  0  0  0  0  0  0  0
    3.2163   -2.7388    6.1640 C   0  0  0  0  0  0  0  0  0  0  0  0
    2.8528   -1.9897    5.0668 C   0  0  0  0  0  0  0  0  0  0  0  0
    2.7380    1.3958    3.8232 C   0  0  0  0  0  0  0  0  0  0  0  0
    1.7938    1.8333    4.7529 C   0  0  0  0  0  0  0  0  0  0  0  0
    1.4974    3.1723    4.8585 C   0  0  0  0  0  0  0  0  0  0  0  0
    2.1447    4.1051    4.0501 C   0  0  0  0  0  0  0  0  0  0  0  0
    1.6840    5.8016    4.2475 S   0  0  0  0  0  0  0  0  0  0  0  0
    3.1873    6.6904    3.7622 C   0  0  0  0  0  0  0  0  0  0  0  0
    3.0930    3.6786    3.1318 C   0  0  0  0  0  0  0  0  0  0  0  0
    3.3888    2.3322    3.0218 C   0  0  0  0  0  0  0  0  0  0  0  0
    4.4255   -1.5068    2.4183 C   0  0  0  0  0  0  0  0  0  0  0  0
    5.4597   -2.2831    3.5630 S   0  0  0  0  0  0  0  0  0  0  0  0
    6.1868   -3.2540    2.2753 C   0  0  0  0  0  0  0  0  0  0  0  0
    5.5717   -3.0130    1.0232 C   0  0  0  0  0  0  0  0  0  0  0  0
    5.7847   -3.7139   -0.1349 N   0  0  0  0  0  0  0  0  0  0  0  0
    5.4050   -3.1239   -1.3585 C   0  0  0  0  0  0  0  0  0  0  0  0
    4.5868   -3.8145   -2.2474 C   0  0  0  0  0  0  0  0  0  0  0  0
    4.1782   -3.2265   -3.4279 C   0  0  0  0  0  0  0  0  0  0  0  0
    4.5990   -1.9402   -3.7445 C   0  0  0  0  0  0  0  0  0  0  0  0
    4.1296   -1.0886   -5.2111 S   0  0  0  0  0  0  0  0  0  0  0  0
    3.5247   -2.4058   -6.3029 C   0  0  0  0  0  0  0  0  0  0  0  0
    5.4362   -1.2551   -2.8648 C   0  0  0  0  0  0  0  0  0  0  0  0
    5.8358   -1.8378   -1.6833 C   0  0  0  0  0  0  0  0  0  0  0  0
    6.1873   -5.0623   -0.1533 C   0  0  0  0  0  0  0  0  0  0  0  0
    7.0817   -5.5054   -1.1217 C   0  0  0  0  0  0  0  0  0  0  0  0
    7.5471   -6.8063   -1.1009 C   0  0  0  0  0  0  0  0  0  0  0  0
    7.1362   -7.6773   -0.1009 C   0  0  0  0  0  0  0  0  0  0  0  0
    7.7628   -9.3150    0.0855 S   0  0  0  0  0  0  0  0  0  0  0  0
    9.3525   -9.2455   -0.7867 C   0  0  0  0  0  0  0  0  0  0  0  0
    6.1803   -7.2572    0.8240 C   0  0  0  0  0  0  0  0  0  0  0  0
    5.7009   -5.9687    0.7901 C   0  0  0  0  0  0  0  0  0  0  0  0
    4.6029   -2.0009    1.1345 C   0  0  0  0  0  0  0  0  0  0  0  0
    3.4957   -1.2880    0.0193 S   0  0  0  0  0  0  0  0  0  0  0  0
    7.2388   -4.1517    2.4689 C   0  0  0  0  0  0  0  0  0  0  0  0
    7.7113   -4.7258    3.6254 C   0  0  0  0  0  0  0  0  0  0  0  0
    7.2031   -4.4986    4.9809 C   0  0  0  0  0  0  0  0  0  0  0  0
    6.4883   -3.5881    5.3683 O   0  0  0  0  0  0  0  0  0  0  0  0
    7.7559   -5.5790    5.8143 C   0  0  0  0  0  0  0  0  0  0  0  0
    7.4787   -5.8305    7.1551 C   0  0  0  0  0  0  0  0  0  0  0  0
    8.1501   -6.9144    7.6686 C   0  0  0  0  0  0  0  0  0  0  0  0
    9.0335   -7.6888    6.9056 C   0  0  0  0  0  0  0  0  0  0  0  0
    9.3107   -7.4533    5.5788 C   0  0  0  0  0  0  0  0  0  0  0  0
    8.6333   -6.3600    5.0347 C   0  0  0  0  0  0  0  0  0  0  0  0
    8.6559   -5.8173    3.6768 C   0  0  0  0  0  0  0  0  0  0  0  0
    9.4301   -6.2900    2.6452 C   0  0  0  0  0  0  0  0  0  0  0  0
    9.5395   -5.7092    1.3681 C   0  0  0  0  0  0  0  0  0  0  0  0
    9.7206   -5.3048    0.3064 N   0  0  0  0  0  0  0  0  0  0  0  0
   10.2596   -7.4269    2.7135 C   0  0  0  0  0  0  0  0  0  0  0  0
   10.9433   -8.3491    2.6659 N   0  0  0  0  0  0  0  0  0  0  0  0
    9.3315   -8.6221    8.0523 C   0  0  0  0  0  0  0  0  0  0  0  0
    8.6492  -10.0126    8.0420 C   0  0  0  0  0  0  0  0  0  0  0  0
    7.3741   -9.8586    7.2505 C   0  0  0  0  0  0  0  0  0  0  0  0
    6.5363   -9.1256    7.9715 C   0  0  0  0  0  0  0  0  0  0  0  0
    7.2295   -8.7710    9.2637 C   0  0  0  0  0  0  0  0  0  0  0  0
    8.0806  -10.0341    9.4698 C   0  0  0  0  0  0  0  0  0  0  0  0
    8.3455   -7.7596    8.9019 C   0  0  0  0  0  0  0  0  0  0  0  0
   -8.5143    5.6212   -4.2559 H   0  0  0  0  0  0  0  0  0  0  0  0
   -8.7363   -0.3899   -4.8299 H   0  0  0  0  0  0  0  0  0  0  0  0
  -11.1425   -0.7185   -4.8342 H   0  0  0  0  0  0  0  0  0  0  0  0
  -14.7803   -0.6718   -4.4936 H   0  0  0  0  0  0  0  0  0  0  0  0
  -13.3469   -0.6348   -5.5396 H   0  0  0  0  0  0  0  0  0  0  0  0
  -13.2564   -1.3745   -3.9075 H   0  0  0  0  0  0  0  0  0  0  0  0
  -11.6392    2.8850   -2.5841 H   0  0  0  0  0  0  0  0  0  0  0  0
   -9.2101    3.1654   -2.4957 H   0  0  0  0  0  0  0  0  0  0  0  0
   -5.4532    0.9987   -5.4636 H   0  0  0  0  0  0  0  0  0  0  0  0
   -3.9665   -0.9572   -5.3508 H   0  0  0  0  0  0  0  0  0  0  0  0
   -2.9588   -4.2689   -1.6672 H   0  0  0  0  0  0  0  0  0  0  0  0
   -3.7555   -2.7586   -1.1735 H   0  0  0  0  0  0  0  0  0  0  0  0
   -4.7322   -4.1917   -1.6398 H   0  0  0  0  0  0  0  0  0  0  0  0
   -6.1114   -2.3818   -1.9321 H   0  0  0  0  0  0  0  0  0  0  0  0
   -7.5989   -0.4455   -2.0589 H   0  0  0  0  0  0  0  0  0  0  0  0
   -1.6108    3.4801   -3.4878 H   0  0  0  0  0  0  0  0  0  0  0  0
    0.6339    3.7830   -4.3991 H   0  0  0  0  0  0  0  0  0  0  0  0
    1.4354    7.4898   -5.7135 H   0  0  0  0  0  0  0  0  0  0  0  0
    2.2824    8.3200   -4.3783 H   0  0  0  0  0  0  0  0  0  0  0  0
    3.2097    7.6340   -5.7293 H   0  0  0  0  0  0  0  0  0  0  0  0
    0.8768    7.6269   -2.5566 H   0  0  0  0  0  0  0  0  0  0  0  0
   -1.3256    7.3037   -1.5735 H   0  0  0  0  0  0  0  0  0  0  0  0
   -4.3953    5.5747    0.2287 H   0  0  0  0  0  0  0  0  0  0  0  0
   -5.7745    7.4986    0.7917 H   0  0  0  0  0  0  0  0  0  0  0  0
   -7.7529   10.5553    1.0081 H   0  0  0  0  0  0  0  0  0  0  0  0
   -7.7347    8.8073    0.6879 H   0  0  0  0  0  0  0  0  0  0  0  0
   -6.4322    9.5641    1.6636 H   0  0  0  0  0  0  0  0  0  0  0  0
   -4.5536    9.4298   -2.8262 H   0  0  0  0  0  0  0  0  0  0  0  0
   -3.1759    7.4696   -3.4019 H   0  0  0  0  0  0  0  0  0  0  0  0
    0.9851    3.6196   -0.9417 H   0  0  0  0  0  0  0  0  0  0  0  0
    2.9183    5.0729   -0.9838 H   0  0  0  0  0  0  0  0  0  0  0  0
    3.6831    7.0098   -2.0588 H   0  0  0  0  0  0  0  0  0  0  0  0
    4.8026    8.3081   -1.5760 H   0  0  0  0  0  0  0  0  0  0  0  0
    3.0966    8.6920   -1.8903 H   0  0  0  0  0  0  0  0  0  0  0  0
    0.8118    7.9801    1.3278 H   0  0  0  0  0  0  0  0  0  0  0  0
   -1.1411    6.4974    1.4110 H   0  0  0  0  0  0  0  0  0  0  0  0
   -3.8531    3.3250    0.6071 H   0  0  0  0  0  0  0  0  0  0  0  0
   -5.2371    3.3300    2.6322 H   0  0  0  0  0  0  0  0  0  0  0  0
   -4.3449    4.3789    7.5741 H   0  0  0  0  0  0  0  0  0  0  0  0
   -2.9076    3.6805    6.7953 H   0  0  0  0  0  0  0  0  0  0  0  0
   -3.3001    5.4177    6.5799 H   0  0  0  0  0  0  0  0  0  0  0  0
   -1.8684    4.6581    4.9125 H   0  0  0  0  0  0  0  0  0  0  0  0
   -0.5098    4.6503    2.9186 H   0  0  0  0  0  0  0  0  0  0  0  0
    1.3581   -0.2441   -2.4322 H   0  0  0  0  0  0  0  0  0  0  0  0
    0.9727   -0.8292   -4.7868 H   0  0  0  0  0  0  0  0  0  0  0  0
   -2.1504   -4.2508   -5.5239 H   0  0  0  0  0  0  0  0  0  0  0  0
   -0.7583   -5.3619   -5.7560 H   0  0  0  0  0  0  0  0  0  0  0  0
   -1.5338   -4.5955   -7.1580 H   0  0  0  0  0  0  0  0  0  0  0  0
   -0.7785   -4.5389   -3.5759 H   0  0  0  0  0  0  0  0  0  0  0  0
   -0.4444   -3.9305   -1.2356 H   0  0  0  0  0  0  0  0  0  0  0  0
    2.1196   -3.8825   -0.4865 H   0  0  0  0  0  0  0  0  0  0  0  0
    2.5723   -5.4535    1.3401 H   0  0  0  0  0  0  0  0  0  0  0  0
    3.9408   -4.8349    3.7890 H   0  0  0  0  0  0  0  0  0  0  0  0
    3.7610   -6.1667    4.9480 H   0  0  0  0  0  0  0  0  0  0  0  0
    3.6364   -6.5114    3.2128 H   0  0  0  0  0  0  0  0  0  0  0  0
   -0.0439   -3.2454    3.8954 H   0  0  0  0  0  0  0  0  0  0  0  0
   -0.4706   -1.6438    2.0717 H   0  0  0  0  0  0  0  0  0  0  0  0
    4.4231    0.9054    5.8344 H   0  0  0  0  0  0  0  0  0  0  0  0
    5.0774   -0.4188    7.7826 H   0  0  0  0  0  0  0  0  0  0  0  0
    6.7477   -2.4231    7.9187 H   0  0  0  0  0  0  0  0  0  0  0  0
    6.1186   -1.6287    9.4000 H   0  0  0  0  0  0  0  0  0  0  0  0
    6.7014   -3.3012    9.4719 H   0  0  0  0  0  0  0  0  0  0  0  0
    2.8709   -3.7550    6.2709 H   0  0  0  0  0  0  0  0  0  0  0  0
    2.2315   -2.4145    4.2936 H   0  0  0  0  0  0  0  0  0  0  0  0
    1.3003    1.1099    5.3845 H   0  0  0  0  0  0  0  0  0  0  0  0
    0.7621    3.5154    5.5698 H   0  0  0  0  0  0  0  0  0  0  0  0
    3.2955    6.7005    2.6821 H   0  0  0  0  0  0  0  0  0  0  0  0
    3.0617    7.7065    4.1225 H   0  0  0  0  0  0  0  0  0  0  0  0
    4.0444    6.2272    4.2411 H   0  0  0  0  0  0  0  0  0  0  0  0
    3.5980    4.3856    2.4931 H   0  0  0  0  0  0  0  0  0  0  0  0
    4.1297    2.0017    2.3086 H   0  0  0  0  0  0  0  0  0  0  0  0
    4.2597   -4.8147   -2.0017 H   0  0  0  0  0  0  0  0  0  0  0  0
    3.5197   -3.7704   -4.0858 H   0  0  0  0  0  0  0  0  0  0  0  0
    4.2583   -3.2049   -6.3456 H   0  0  0  0  0  0  0  0  0  0  0  0
    2.5576   -2.7667   -5.9667 H   0  0  0  0  0  0  0  0  0  0  0  0
    3.4178   -1.9476   -7.2811 H   0  0  0  0  0  0  0  0  0  0  0  0
    5.7690   -0.2623   -3.1246 H   0  0  0  0  0  0  0  0  0  0  0  0
    6.4900   -1.3087   -1.0065 H   0  0  0  0  0  0  0  0  0  0  0  0
    7.4361   -4.8193   -1.8752 H   0  0  0  0  0  0  0  0  0  0  0  0
    8.2543   -7.1191   -1.8509 H   0  0  0  0  0  0  0  0  0  0  0  0
    9.9037  -10.1227   -0.4630 H   0  0  0  0  0  0  0  0  0  0  0  0
    9.8842   -8.3456   -0.4929 H   0  0  0  0  0  0  0  0  0  0  0  0
    9.1973   -9.2817   -1.8612 H   0  0  0  0  0  0  0  0  0  0  0  0
    5.8320   -7.9539    1.5716 H   0  0  0  0  0  0  0  0  0  0  0  0
    4.9780   -5.6366    1.5186 H   0  0  0  0  0  0  0  0  0  0  0  0
    7.7003   -4.4930    1.5515 H   0  0  0  0  0  0  0  0  0  0  0  0
    6.7808   -5.2173    7.7031 H   0  0  0  0  0  0  0  0  0  0  0  0
    9.9873   -8.0631    5.0033 H   0  0  0  0  0  0  0  0  0  0  0  0
   10.3707   -8.6718    8.3710 H   0  0  0  0  0  0  0  0  0  0  0  0
    9.2999  -10.8321    7.7490 H   0  0  0  0  0  0  0  0  0  0  0  0
    7.2390  -10.2377    6.2544 H   0  0  0  0  0  0  0  0  0  0  0  0
    5.5600   -8.7693    7.6996 H   0  0  0  0  0  0  0  0  0  0  0  0
    6.5867   -8.4599   10.0829 H   0  0  0  0  0  0  0  0  0  0  0  0
    7.4788  -10.9193    9.6701 H   0  0  0  0  0  0  0  0  0  0  0  0
    8.8411   -9.9240   10.2416 H   0  0  0  0  0  0  0  0  0  0  0  0
    8.7406   -7.2471    9.7770 H   0  0  0  0  0  0  0  0  0  0  0  0
  1  2  2  0  0  0  0
  2  3  1  0  0  0  0
  3  4  2  0  0  0  0
  3  5  1  0  0  0  0
  5  6  2  0  0  0  0
  6  7  1  0  0  0  0
  6  8  1  0  0  0  0
  8  9  1  0  0  0  0
  8 10  2  0  0  0  0
 10 11  1  0  0  0  0
 10 12  1  0  0  0  0
 12 13  1  0  0  0  0
 12 14  2  0  0  0  0
 14 15  1  0  0  0  0
 15 16  2  0  0  0  0
 16 17  1  0  0  0  0
 17 18  3  0  0  0  0
 16 19  1  0  0  0  0
 19 20  3  0  0  0  0
  1 21  1  0  0  0  0
 21 22  2  0  0  0  0
 22 23  1  0  0  0  0
 23 24  1  0  0  0  0
 24 25  2  0  0  0  0
 25 26  1  0  0  0  0
 26 27  2  0  0  0  0
 27 28  1  0  0  0  0
 28 29  1  0  0  0  0
 27 30  1  0  0  0  0
 30 31  2  0  0  0  0
 23 32  1  0  0  0  0
 32 33  2  0  0  0  0
 33 34  1  0  0  0  0
 34 35  2  0  0  0  0
 35 36  1  0  0  0  0
 36 37  1  0  0  0  0
 35 38  1  0  0  0  0
 38 39  2  0  0  0  0
 22 40  1  0  0  0  0
 40 41  1  0  0  0  0
 41 42  1  0  0  0  0
 42 43  2  0  0  0  0
 43 44  1  0  0  0  0
 44 45  1  0  0  0  0
 45 46  2  0  0  0  0
 46 47  1  0  0  0  0
 47 48  2  0  0  0  0
 48 49  1  0  0  0  0
 49 50  1  0  0  0  0
 48 51  1  0  0  0  0
 51 52  2  0  0  0  0
 44 53  1  0  0  0  0
 53 54  2  0  0  0  0
 54 55  1  0  0  0  0
 55 56  2  0  0  0  0
 56 57  1  0  0  0  0
 57 58  1  0  0  0  0
 56 59  1  0  0  0  0
 59 60  2  0  0  0  0
 43 61  1  0  0  0  0
 61 62  1  0  0  0  0
 42 63  1  0  0  0  0
 63 64  2  0  0  0  0
 64 65  1  0  0  0  0
 65 66  1  0  0  0  0
 66 67  2  0  0  0  0
 67 68  1  0  0  0  0
 68 69  2  0  0  0  0
 69 70  1  0  0  0  0
 70 71  1  0  0  0  0
 69 72  1  0  0  0  0
 72 73  2  0  0  0  0
 65 74  1  0  0  0  0
 74 75  2  0  0  0  0
 75 76  1  0  0  0  0
 76 77  2  0  0  0  0
 77 78  1  0  0  0  0
 78 79  1  0  0  0  0
 77 80  1  0  0  0  0
 80 81  2  0  0  0  0
 64 82  1  0  0  0  0
 82 83  1  0  0  0  0
 83 84  1  0  0  0  0
 84 85  2  0  0  0  0
 85 86  1  0  0  0  0
 86 87  1  0  0  0  0
 87 88  2  0  0  0  0
 88 89  1  0  0  0  0
 89 90  2  0  0  0  0
 90 91  1  0  0  0  0
 91 92  1  0  0  0  0
 90 93  1  0  0  0  0
 93 94  2  0  0  0  0
 86 95  1  0  0  0  0
 95 96  2  0  0  0  0
 96 97  1  0  0  0  0
 97 98  2  0  0  0  0
 98 99  1  0  0  0  0
 99100  1  0  0  0  0
 98101  1  0  0  0  0
101102  2  0  0  0  0
 85103  1  0  0  0  0
103104  1  0  0  0  0
 84105  1  0  0  0  0
105106  2  0  0  0  0
106107  1  0  0  0  0
107108  1  0  0  0  0
108109  2  0  0  0  0
109110  1  0  0  0  0
110111  2  0  0  0  0
111112  1  0  0  0  0
112113  1  0  0  0  0
111114  1  0  0  0  0
114115  2  0  0  0  0
107116  1  0  0  0  0
116117  2  0  0  0  0
117118  1  0  0  0  0
118119  2  0  0  0  0
119120  1  0  0  0  0
120121  1  0  0  0  0
119122  1  0  0  0  0
122123  2  0  0  0  0
106124  1  0  0  0  0
124125  1  0  0  0  0
125126  1  0  0  0  0
126127  2  0  0  0  0
127128  1  0  0  0  0
128129  1  0  0  0  0
129130  2  0  0  0  0
130131  1  0  0  0  0
131132  2  0  0  0  0
132133  1  0  0  0  0
133134  1  0  0  0  0
132135  1  0  0  0  0
135136  2  0  0  0  0
128137  1  0  0  0  0
137138  2  0  0  0  0
138139  1  0  0  0  0
139140  2  0  0  0  0
140141  1  0  0  0  0
141142  1  0  0  0  0
140143  1  0  0  0  0
143144  2  0  0  0  0
127145  1  0  0  0  0
145146  1  0  0  0  0
126147  1  0  0  0  0
147148  2  0  0  0  0
148149  1  0  0  0  0
149150  2  0  0  0  0
149151  1  0  0  0  0
151152  2  0  0  0  0
152153  1  0  0  0  0
153154  2  0  0  0  0
154155  1  0  0  0  0
155156  2  0  0  0  0
156157  1  0  0  0  0
157158  2  0  0  0  0
158159  1  0  0  0  0
159160  3  0  0  0  0
158161  1  0  0  0  0
161162  3  0  0  0  0
154163  1  0  0  0  0
163164  1  0  0  0  0
164165  1  0  0  0  0
165166  2  0  0  0  0
166167  1  0  0  0  0
167168  1  0  0  0  0
167169  1  0  0  0  0
 15  2  1  0  0  0  0
 62 21  1  0  0  0  0
104 63  1  0  0  0  0
146105  1  0  0  0  0
157148  1  0  0  0  0
169163  1  0  0  0  0
 14  5  1  0  0  0  0
 31 24  1  0  0  0  0
 39 32  1  0  0  0  0
 61 40  2  0  0  0  0
 73 66  1  0  0  0  0
 81 74  1  0  0  0  0
103 82  2  0  0  0  0
115108  1  0  0  0  0
123116  1  0  0  0  0
145124  2  0  0  0  0
156151  1  0  0  0  0
168164  1  0  0  0  0
 52 45  1  0  0  0  0
 60 53  1  0  0  0  0
 94 87  1  0  0  0  0
102 95  1  0  0  0  0
136129  1  0  0  0  0
144137  1  0  0  0  0
169153  1  0  0  0  0
  1170  1  0  0  0  0
 25171  1  0  0  0  0
 26172  1  0  0  0  0
 29173  1  0  0  0  0
 29174  1  0  0  0  0
 29175  1  0  0  0  0
 30176  1  0  0  0  0
 31177  1  0  0  0  0
 33178  1  0  0  0  0
 34179  1  0  0  0  0
 37180  1  0  0  0  0
 37181  1  0  0  0  0
 37182  1  0  0  0  0
 38183  1  0  0  0  0
 39184  1  0  0  0  0
 46185  1  0  0  0  0
 47186  1  0  0  0  0
 50187  1  0  0  0  0
 50188  1  0  0  0  0
 50189  1  0  0  0  0
 51190  1  0  0  0  0
 52191  1  0  0  0  0
 54192  1  0  0  0  0
 55193  1  0  0  0  0
 58194  1  0  0  0  0
 58195  1  0  0  0  0
 58196  1  0  0  0  0
 59197  1  0  0  0  0
 60198  1  0  0  0  0
 67199  1  0  0  0  0
 68200  1  0  0  0  0
 71201  1  0  0  0  0
 71202  1  0  0  0  0
 71203  1  0  0  0  0
 72204  1  0  0  0  0
 73205  1  0  0  0  0
 75206  1  0  0  0  0
 76207  1  0  0  0  0
 79208  1  0  0  0  0
 79209  1  0  0  0  0
 79210  1  0  0  0  0
 80211  1  0  0  0  0
 81212  1  0  0  0  0
 88213  1  0  0  0  0
 89214  1  0  0  0  0
 92215  1  0  0  0  0
 92216  1  0  0  0  0
 92217  1  0  0  0  0
 93218  1  0  0  0  0
 94219  1  0  0  0  0
 96220  1  0  0  0  0
 97221  1  0  0  0  0
100222  1  0  0  0  0
100223  1  0  0  0  0
100224  1  0  0  0  0
101225  1  0  0  0  0
102226  1  0  0  0  0
109227  1  0  0  0  0
110228  1  0  0  0  0
113229  1  0  0  0  0
113230  1  0  0  0  0
113231  1  0  0  0  0
114232  1  0  0  0  0
115233  1  0  0  0  0
117234  1  0  0  0  0
118235  1  0  0  0  0
121236  1  0  0  0  0
121237  1  0  0  0  0
121238  1  0  0  0  0
122239  1  0  0  0  0
123240  1  0  0  0  0
130241  1  0  0  0  0
131242  1  0  0  0  0
134243  1  0  0  0  0
134244  1  0  0  0  0
134245  1  0  0  0  0
135246  1  0  0  0  0
136247  1  0  0  0  0
138248  1  0  0  0  0
139249  1  0  0  0  0
142250  1  0  0  0  0
142251  1  0  0  0  0
142252  1  0  0  0  0
143253  1  0  0  0  0
144254  1  0  0  0  0
147255  1  0  0  0  0
152256  1  0  0  0  0
155257  1  0  0  0  0
163258  1  0  0  0  0
164259  1  0  0  0  0
165260  1  0  0  0  0
166261  1  0  0  0  0
167262  1  0  0  0  0
168263  1  0  0  0  0
168264  1  0  0  0  0
169265  1  0  0  0  0
M  END
