174

C         -2.22480        3.86650        6.42570
C         -2.50930        2.96810        7.43420
C         -2.99050        1.60880        7.22640
O         -3.25690        1.06560        6.16930
C         -3.16850        1.02740        8.57550
C         -3.63580       -0.22560        8.92270
Cl        -3.95020       -1.41540        7.73940
C         -3.84640       -0.50230       10.28040
Cl        -4.38400       -2.05250       10.76330
C         -3.66010        0.49850       11.23080
Cl        -4.02570        0.17270       12.87030
C         -3.18870        1.77190       10.86950
Cl        -3.15400        2.99420       12.07170
C         -2.86680        2.00910        9.54020
C         -2.30810        3.17160        8.84980
C         -1.52030        4.14600        9.41580
C         -0.94280        4.10070       10.70140
N         -0.31860        4.11040       11.66540
C         -0.98450        5.24850        8.71900
N         -0.50640        6.17550        8.23590
C         -2.07710        3.64310        5.05820
C         -1.56020        4.61130        4.18790
C         -1.18880        4.12750        2.95060
C         -0.56770        4.96550        1.91060
C         -1.34340        5.95030        1.28560
O         -2.63800        6.00380        1.67590
C         -3.51870        6.90270        1.02510
C         -4.91080        6.66020        1.58560
C         -0.76390        6.77160        0.32410
C          0.56580        6.59540       -0.00460
C          1.34000        5.61950        0.59480
C          0.77920        4.79860        1.56580
O          1.43580        3.81410        2.24490
C          2.72970        3.42530        1.82620
C          2.70720        2.59180        0.54750
C         -1.42140        2.74750        2.83240
S         -2.22050        2.11290        4.23130
C         -1.05870        1.93290        1.73430
C         -0.81640        0.55500        1.67150
N         -0.76860       -0.35250        2.71120
C         -1.13340       -1.68330        2.42840
C         -0.35110       -2.74100        2.88140
C         -0.69670       -4.04600        2.59180
C         -1.83360       -4.31410        1.83970
S         -2.35500       -5.93820        1.39140
C         -1.38570       -7.01600        2.48740
C         -2.62110       -3.25710        1.38670
C         -2.27920       -1.95640        1.68100
C         -0.33820       -0.02900        4.00040
C          0.59520        0.98160        4.22530
C          0.90470        1.38470        5.50990
C          0.30620        0.76160        6.59630
S          0.50900        1.26490        8.27650
C          1.48920        2.78760        8.16500
C         -0.54860       -0.31780        6.37820
C         -0.87600       -0.70310        5.10080
C         -0.53550        0.15890        0.33910
S         -0.11470       -1.34950       -0.39930
C          0.08270       -0.55640       -1.96070
C         -0.09220        0.82490       -1.87850
N          0.20860        1.74020       -2.86570
C          1.27070        1.50580       -3.75310
C          2.43100        0.85870       -3.32640
C          3.40730        0.51630       -4.23360
C          3.25690        0.82010       -5.58620
S          4.54390        0.28760       -6.66560
C          3.80040        0.35940       -8.32000
C          2.13880        1.53140       -6.00230
C          1.15630        1.87100       -5.09320
C         -0.45020        2.97720       -2.87890
C          0.26050        4.14990       -3.11690
C         -0.37660        5.37410       -3.10660
C         -1.73930        5.44500       -2.85210
S         -2.65440        6.95280       -2.79250
C         -1.47530        8.20730       -3.36830
C         -2.45710        4.27360       -2.62300
C         -1.82330        3.05160       -2.64180
C         -0.50190        1.19830       -0.57580
S         -0.86430        2.71370        0.16340
C          0.36830       -1.37330       -3.08110
C          0.95090       -2.62720       -3.05210
C          1.14290       -3.20470       -4.30450
C          1.85900       -4.47280       -4.46280
C          1.39730       -5.59470       -3.75070
O          0.29910       -5.37910       -2.99070
C         -0.31350       -6.44350       -2.28660
C          0.38500       -6.73970       -0.96370
C          2.04300       -6.81840       -3.90730
C          3.13220       -6.91220       -4.75030
C          3.61570       -5.81090       -5.43320
C          2.98540       -4.57920       -5.29370
O          3.36300       -3.43380       -5.91940
C          4.52450       -3.41110       -6.72730
C          5.80480       -3.31100       -5.90670
C          0.66390       -2.39440       -5.34400
S         -0.02470       -0.92300       -4.70420
C          0.75270       -2.49500       -6.73600
C          1.02870       -3.58520       -7.52600
C          1.72530       -3.38800       -8.80860
O          1.95040       -2.33750       -9.37440
C          2.18890       -4.74120       -9.20630
C          2.99010       -5.10470      -10.26870
C          3.33210       -6.44570      -10.40850
Cl         4.33550       -6.96190      -11.70990
C          2.85980       -7.37630       -9.48230
F          3.20900       -8.66320       -9.61560
C          2.04550       -7.02080       -8.41710
C          1.71010       -5.68550       -8.28030
C          0.89240       -4.99440       -7.28650
C         -0.00450       -5.58330       -6.42970
C         -0.94500       -4.83860       -5.69050
N         -1.75860       -4.26720       -5.11760
C         -0.14180       -6.97180       -6.25540
N         -0.28570       -8.09410       -6.05780
H         -2.01290        4.88670        6.72190
H         -1.40300        5.62980        4.49640
H         -3.50820        6.72430       -0.05800
H         -3.20730        7.93870        1.21670
H         -5.62040        7.33400        1.11450
H         -4.91500        6.82800        2.65920
H         -5.21210        5.63390        1.39560
H         -1.34090        7.54050       -0.16150
H          1.01990        7.23650       -0.74580
H          2.37240        5.51930        0.30300
H          3.11590        2.82570        2.65590
H          3.37990        4.30000        1.70930
H          2.13650        1.67940        0.70660
H          2.24430        3.14800       -0.26500
H          3.72230        2.32700        0.26410
H          0.53800       -2.53670        3.45940
H         -0.06470       -4.84320        2.94840
H         -0.33810       -7.00780        2.20070
H         -1.51600       -6.69980        3.51780
H         -1.79430       -8.01280        2.35300
H         -3.50640       -3.47210        0.80890
H         -2.90100       -1.14130        1.34250
H          1.04670        1.49550        3.39120
H          1.59980        2.19760        5.64440
H          1.55360        3.16970        9.17980
H          0.98390        3.50900        7.52810
H          2.48530        2.56350        7.79490
H         -0.98370       -0.82170        7.22720
H         -1.58970       -1.49680        4.94780
H          2.55210        0.60690       -2.28340
H          4.29580       -0.00160       -3.90730
H          2.92030       -0.27620       -8.36470
H          4.55940       -0.02580       -8.99440
H          3.56780        1.38550       -8.58790
H          2.01050        1.80530       -7.03680
H          0.27230        2.39370       -5.42570
H          1.32320        4.10010       -3.30400
H          0.20420        6.26310       -3.28920
H         -1.10660        7.93930       -4.35390
H         -0.66170        8.31340       -2.65660
H         -2.03830        9.13390       -3.42450
H         -3.51870        4.33400       -2.43910
H         -2.38730        2.14510       -2.48350
H          1.27630       -3.08510       -2.13520
H         -0.37490       -7.33930       -2.91450
H         -1.32840       -6.08560       -2.09370
H          0.39010       -5.84300       -0.34830
H         -0.15340       -7.52620       -0.44310
H          1.41300       -7.05710       -1.12380
H          1.69900       -7.69870       -3.39120
H          3.62240       -7.86560       -4.87490
H          4.47770       -5.92570       -6.06920
H          4.40780       -2.51180       -7.33700
H          4.54820       -4.27910       -7.39810
H          6.66270       -3.27970       -6.57180
H          5.90480       -4.16110       -5.23600
H          5.78560       -2.39950       -5.31540
H          0.69950       -1.55100       -7.27110
H          3.34320       -4.36740      -10.97180
H          1.71400       -7.78010       -7.72750
