213

C          3.46600       12.08430       -4.43160
C          2.84990       13.14350       -5.03920
C          1.40210       13.38840       -5.11170
O          0.50210       12.63010       -4.82530
C          1.25860       14.78390       -5.58790
C          0.10380       15.53820       -5.69920
Cl        -1.43510       14.85630       -5.41960
C          0.23130       16.89350       -6.03710
Cl        -1.16570       17.86080       -6.21750
C          1.49570       17.46270       -6.18130
Cl         1.62670       19.13910       -6.49350
C          2.66330       16.69150       -6.05920
Cl         4.17680       17.49770       -6.07260
C          2.53690       15.32700       -5.83090
C          3.52200       14.25770       -5.68720
C          4.77080       14.21150       -6.24880
C          5.67000       13.13170       -6.10140
N          6.46200       12.30390       -6.02250
C          5.29160       15.12610       -7.19030
N          5.76290       15.74550       -8.03330
C          2.92040       10.95730       -3.78860
C          3.72130       10.03200       -3.13810
C          3.01480        8.97410       -2.55520
C          3.52980        7.85880       -1.84190
C          4.90460        7.81390       -1.41830
C          5.70520        8.85450       -1.01610
C          6.98460        8.46220       -0.60220
C          7.18000        7.10920       -0.68370
S          8.64140        6.28480       -0.21960
C          8.15110        4.52540       -0.29160
C          8.23390        3.96240       -1.69730
S          5.76980        6.30210       -1.29110
C          2.62010        6.84450       -1.57120
C          1.23570        6.92440       -1.87290
C          0.70590        8.09160       -2.45770
C         -0.71080        8.27740       -2.69190
C         -1.64350        7.39300       -3.15690
C         -2.93510        7.93430       -3.27840
C         -2.99620        9.24080       -2.88390
S         -4.33900       10.35730       -2.85830
C         -5.77890        9.23090       -2.92210
C         -5.93370        8.42420       -1.64810
S         -1.45080        9.82710       -2.36560
C          1.62280        9.07920       -2.81170
S          1.22960       10.52060       -3.69820
C          0.55380        5.73740       -1.50750
C          1.36160        4.77900       -0.97590
S          3.01310        5.33060       -0.80230
C          1.04110        3.41500       -0.68200
C          0.35780        2.52570       -1.49690
N         -0.07130        2.77800       -2.78900
C         -1.19230        2.08650       -3.26800
C         -1.21260        1.56720       -4.56230
C         -2.27580        0.79860       -4.98140
C         -3.33660        0.53160       -4.11930
S         -4.62630       -0.52390       -4.70680
C         -5.27130       -1.25280       -3.17210
C         -3.35240        1.10090       -2.85430
C         -2.28910        1.87500       -2.43510
C          0.63980        3.66290       -3.61300
C         -0.03940        4.52070       -4.47780
C          0.64040        5.51620       -5.14480
C          2.01380        5.67540       -4.97130
S          2.74730        7.08570       -5.73590
C          4.49660        6.98260       -5.26470
C          2.71040        4.74900       -4.20670
C          2.02800        3.74940       -3.54260
C          0.23420        1.26580       -0.85710
S         -0.57280       -0.20980       -1.23660
C         -0.04910       -0.93520        0.28310
C          0.73010       -0.06340        1.03570
N          1.36970       -0.28360        2.24680
C          0.76560       -0.87030        3.35520
C          1.55490       -1.45710        4.34450
C          0.98070       -2.05740        5.44570
C         -0.40140       -2.10330        5.57100
S         -1.23240       -2.88800        6.91650
C          0.07290       -3.07290        8.16550
C         -1.19580       -1.52440        4.58470
C         -0.62360       -0.90590        3.49470
C          2.66010        0.27650        2.34770
C          3.02710        1.08060        3.42510
C          4.27780        1.65760        3.46090
C          5.18330        1.44770        2.42350
S          6.74780        2.26260        2.53250
C          7.81820        1.22300        1.49210
C          4.82250        0.64510        1.34990
C          3.57300        0.06000        1.31880
C          0.87180        1.18170        0.36720
S          1.64090        2.67170        0.79040
C         -0.54320       -2.24620        0.53110
C         -0.28530       -3.14150        1.53110
C         -1.06700       -4.31800        1.45630
C         -1.14690       -5.36330        2.39830
C         -0.39280       -5.39800        3.63220
C         -0.83540       -5.85400        4.84540
C          0.14890       -5.84110        5.84520
C          1.35390       -5.39370        5.39080
S          2.84580       -5.22870        6.29870
C          3.01770       -6.93860        6.93810
C          3.15230       -7.95030        5.82020
S          1.28920       -4.96300        3.71140
C         -2.00210       -6.41140        2.08100
C         -2.75770       -6.48520        0.88520
C         -2.75930       -5.38760       -0.00800
C         -3.62230       -5.35700       -1.16160
C         -4.89840       -5.84580       -1.28400
C         -5.47260       -5.62740       -2.54360
C         -4.63160       -4.97130       -3.40340
S         -5.00970       -4.52270       -5.04180
C         -3.41790       -3.79820       -5.58480
C         -3.56220       -3.24460       -6.98700
S         -3.11410       -4.59770       -2.64920
C         -1.90110       -4.34070        0.31180
S         -1.73960       -2.86510       -0.59570
C         -3.38500       -7.74050        0.73920
C         -3.14560       -8.61060        1.77340
S         -2.18820       -7.85250        3.03390
C         -3.66730       -9.92300        1.90390
C         -3.30780      -10.88870        2.78880
C         -4.25450      -11.98840        3.12330
O         -5.21960      -12.33640        2.48230
C         -3.80020      -12.49830        4.43260
C         -4.43870      -13.43720        5.24000
C         -3.79000      -13.69260        6.42420
C         -2.59610      -13.05550        6.79080
C         -1.95010      -12.13270        6.00340
C         -2.58910      -11.86700        4.79030
C         -2.18080      -10.99770        3.69250
C         -0.90050      -10.58940        3.42570
C          0.17650      -10.70820        4.32350
N          1.08310      -10.73760        5.02840
C         -0.51610      -10.05980        2.17400
N         -0.15620       -9.69720        1.14610
C         -2.51490      -13.78940        8.10560
C         -1.50910      -14.96200        8.21320
C         -1.32480      -15.49710        6.81460
C         -2.44970      -16.10550        6.46290
C         -3.41480      -15.99260        7.61710
C         -2.43200      -16.04300        8.79780
C         -3.84000      -14.50510        7.69390
H          4.54870       12.11210       -4.38950
H          4.79350       10.11620       -3.13070
H          5.35730        9.86990       -0.95830
H          7.73690        9.13740       -0.23870
H          8.85350        4.02560        0.37470
H          7.14650        4.44840        0.12430
H          7.96220        2.90880       -1.69080
H          7.55420        4.48690       -2.36450
H          9.24520        4.05820       -2.08550
H         -1.40230        6.39300       -3.46330
H         -3.77020        7.37340       -3.65650
H         -5.67400        8.59860       -3.80250
H         -6.62670        9.89960       -3.06810
H         -5.06230        7.79470       -1.48120
H         -6.04820        9.08730       -0.79410
H         -6.81460        7.78900       -1.71780
H         -0.50330        5.59630       -1.62860
H         -0.37730        1.74820       -5.22210
H         -2.28540        0.37520       -5.97390
H         -4.43980       -1.56080       -2.54430
H         -5.85380       -2.11720       -3.47650
H         -5.91300       -0.54540       -2.65490
H         -4.18500        0.94550       -2.18710
H         -2.30280        2.31660       -1.44920
H         -1.10710        4.41050       -4.60350
H          0.10990        6.20740       -5.78160
H          4.96000        7.87580       -5.67230
H          4.59000        6.98000       -4.18290
H          4.94960        6.09880       -5.70410
H          3.78200        4.80260       -4.10260
H          2.57800        3.04500       -2.93610
H          2.62950       -1.45770        4.24350
H          1.62620       -2.50640        6.18270
H          0.81280       -3.79740        7.83850
H          0.53010       -2.10680        8.35650
H         -0.42680       -3.43070        9.06030
H         -2.26950       -1.56010        4.68740
H         -1.24970       -0.44320        2.74730
H          2.32350        1.25570        4.22480
H          4.56340        2.28840        4.28820
H          7.66360        0.17940        1.74760
H          8.83660        1.51480        1.72850
H          7.61970        1.40330        0.43960
H          5.50320        0.47210        0.53180
H          3.29260       -0.56530        0.48350
H          0.44700       -2.97910        2.29580
H         -1.85440       -6.13790        5.03450
H         -0.03090       -6.14830        6.85960
H          2.15410       -7.14510        7.56920
H          3.91430       -6.89990        7.55580
H          2.25870       -7.96220        5.19850
H          3.28290       -8.94600        6.23700
H          4.00950       -7.71620        5.19280
H         -5.42740       -6.30820       -0.47020
H         -6.46430       -5.93470       -2.81940
H         -3.16220       -3.00930       -4.87710
H         -2.67080       -4.59120       -5.53800
H         -2.60820       -2.84090       -7.31780
H         -3.87150       -4.02430       -7.67900
H         -4.30200       -2.44780       -7.00170
H         -3.94070       -8.03060       -0.13410
H         -4.52350      -10.15360        1.27790
H         -5.36000      -13.90290        4.92700
H         -1.03540      -11.64050        6.29200
H         -2.52760      -13.16910        8.99960
H         -0.60020      -14.72840        8.76130
H         -0.44390      -15.33270        6.22220
H         -2.69640      -16.55190        5.51740
H         -4.24110      -16.69870        7.62300
H         -2.88170      -15.76180        9.74920
H         -1.93970      -17.00940        8.89490
H         -4.71670      -14.35660        8.32150
