
  xtb     02042205193D
 energy: -374.750061413635 gnorm: 0.000497875785 xtb: 6.4.1 (unknown)
200219  0     0  0            999 V2000
   -6.5009   -3.1724   -8.6370 C   0  0  0  0  0  0  0  0  0  0  0  0
   -7.5410   -4.0634   -8.6176 C   0  0  0  0  0  0  0  0  0  0  0  0
   -8.0545   -4.7804   -7.4434 C   0  0  0  0  0  0  0  0  0  0  0  0
   -7.5856   -4.8155   -6.3257 O   0  0  0  0  0  0  0  0  0  0  0  0
   -9.2971   -5.4491   -7.8946 C   0  0  0  0  0  0  0  0  0  0  0  0
  -10.2140   -6.1600   -7.1410 C   0  0  0  0  0  0  0  0  0  0  0  0
   -9.9319   -6.5132   -5.4961 Cl  0  0  0  0  0  0  0  0  0  0  0  0
  -11.3986   -6.5791   -7.7635 C   0  0  0  0  0  0  0  0  0  0  0  0
  -12.5469   -7.4909   -6.8848 Cl  0  0  0  0  0  0  0  0  0  0  0  0
  -11.6609   -6.2144   -9.0829 C   0  0  0  0  0  0  0  0  0  0  0  0
  -13.1577   -6.6481   -9.7879 Cl  0  0  0  0  0  0  0  0  0  0  0  0
  -10.7282   -5.4858   -9.8396 C   0  0  0  0  0  0  0  0  0  0  0  0
  -11.2007   -4.9231  -11.3891 Cl  0  0  0  0  0  0  0  0  0  0  0  0
   -9.5064   -5.1672   -9.2600 C   0  0  0  0  0  0  0  0  0  0  0  0
   -8.3283   -4.4687   -9.7688 C   0  0  0  0  0  0  0  0  0  0  0  0
   -7.9219   -4.4051  -11.0772 C   0  0  0  0  0  0  0  0  0  0  0  0
   -6.7702   -3.7256  -11.5307 C   0  0  0  0  0  0  0  0  0  0  0  0
   -5.8660   -3.1886  -11.9931 N   0  0  0  0  0  0  0  0  0  0  0  0
   -8.4726   -5.1416  -12.1487 C   0  0  0  0  0  0  0  0  0  0  0  0
   -8.7696   -5.7724  -13.0602 N   0  0  0  0  0  0  0  0  0  0  0  0
   -5.6354   -2.7499   -7.6130 C   0  0  0  0  0  0  0  0  0  0  0  0
   -4.6116   -1.8472   -7.8518 C   0  0  0  0  0  0  0  0  0  0  0  0
   -3.8109   -1.5768   -6.7372 C   0  0  0  0  0  0  0  0  0  0  0  0
   -2.7114   -0.6855   -6.6523 C   0  0  0  0  0  0  0  0  0  0  0  0
   -2.3158    0.1571   -7.7581 C   0  0  0  0  0  0  0  0  0  0  0  0
   -2.1601   -0.1345   -9.0843 C   0  0  0  0  0  0  0  0  0  0  0  0
   -1.8601    0.9846   -9.8824 C   0  0  0  0  0  0  0  0  0  0  0  0
   -1.8042    2.1463   -9.1631 C   0  0  0  0  0  0  0  0  0  0  0  0
   -1.5426    3.7984   -9.6557 S   0  0  0  0  0  0  0  0  0  0  0  0
   -1.2442    3.6393  -11.4500 C   0  0  0  0  0  0  0  0  0  0  0  0
   -2.5295    3.4919  -12.2414 C   0  0  0  0  0  0  0  0  0  0  0  0
   -2.0723    1.8672   -7.4746 S   0  0  0  0  0  0  0  0  0  0  0  0
   -2.1006   -0.5957   -5.4132 C   0  0  0  0  0  0  0  0  0  0  0  0
   -2.5660   -1.2637   -4.2544 C   0  0  0  0  0  0  0  0  0  0  0  0
   -3.7165   -2.0818   -4.3162 C   0  0  0  0  0  0  0  0  0  0  0  0
   -4.3232   -2.6366   -3.1290 C   0  0  0  0  0  0  0  0  0  0  0  0
   -5.0433   -3.7913   -2.9715 C   0  0  0  0  0  0  0  0  0  0  0  0
   -5.5728   -3.9608   -1.6821 C   0  0  0  0  0  0  0  0  0  0  0  0
   -5.2754   -2.9242   -0.8419 C   0  0  0  0  0  0  0  0  0  0  0  0
   -5.6974   -2.8352    0.8483 S   0  0  0  0  0  0  0  0  0  0  0  0
   -5.4278   -1.0637    1.2186 C   0  0  0  0  0  0  0  0  0  0  0  0
   -6.4973   -0.1804    0.6094 C   0  0  0  0  0  0  0  0  0  0  0  0
   -4.3064   -1.7254   -1.6363 S   0  0  0  0  0  0  0  0  0  0  0  0
   -4.2736   -2.2661   -5.5812 C   0  0  0  0  0  0  0  0  0  0  0  0
   -5.6457   -3.2733   -5.9417 S   0  0  0  0  0  0  0  0  0  0  0  0
   -1.7368   -0.9940   -3.1465 C   0  0  0  0  0  0  0  0  0  0  0  0
   -0.6766   -0.1679   -3.4146 C   0  0  0  0  0  0  0  0  0  0  0  0
   -0.6532    0.3210   -5.0933 S   0  0  0  0  0  0  0  0  0  0  0  0
    0.2128    0.3090   -2.4035 C   0  0  0  0  0  0  0  0  0  0  0  0
    1.5596    0.6479   -2.3792 C   0  0  0  0  0  0  0  0  0  0  0  0
    2.4847    0.5233   -3.3994 N   0  0  0  0  0  0  0  0  0  0  0  0
    3.7531    0.0172   -3.0715 C   0  0  0  0  0  0  0  0  0  0  0  0
    3.8828   -1.0173   -2.1480 C   0  0  0  0  0  0  0  0  0  0  0  0
    5.1287   -1.4829   -1.7774 C   0  0  0  0  0  0  0  0  0  0  0  0
    6.2713   -0.9269   -2.3361 C   0  0  0  0  0  0  0  0  0  0  0  0
    7.9120   -1.4271   -1.9239 S   0  0  0  0  0  0  0  0  0  0  0  0
    7.6918   -2.4117   -0.4138 C   0  0  0  0  0  0  0  0  0  0  0  0
    6.1446    0.0805   -3.2914 C   0  0  0  0  0  0  0  0  0  0  0  0
    4.9031    0.5511   -3.6535 C   0  0  0  0  0  0  0  0  0  0  0  0
    2.2455    0.9322   -4.7180 C   0  0  0  0  0  0  0  0  0  0  0  0
    1.6353    2.1533   -5.0032 C   0  0  0  0  0  0  0  0  0  0  0  0
    1.4370    2.5356   -6.3140 C   0  0  0  0  0  0  0  0  0  0  0  0
    1.8419    1.7079   -7.3578 C   0  0  0  0  0  0  0  0  0  0  0  0
    1.5680    2.2869   -9.0006 S   0  0  0  0  0  0  0  0  0  0  0  0
    1.7851    0.7985  -10.0198 C   0  0  0  0  0  0  0  0  0  0  0  0
    2.4620    0.4969   -7.0754 C   0  0  0  0  0  0  0  0  0  0  0  0
    2.6642    0.1168   -5.7666 C   0  0  0  0  0  0  0  0  0  0  0  0
    1.9586    1.0244   -1.0667 C   0  0  0  0  0  0  0  0  0  0  0  0
    3.4649    1.5325   -0.3768 S   0  0  0  0  0  0  0  0  0  0  0  0
    2.7084    1.6762    1.1927 C   0  0  0  0  0  0  0  0  0  0  0  0
    1.3792    1.2863    1.1921 C   0  0  0  0  0  0  0  0  0  0  0  0
    0.6179    1.1220    2.3440 N   0  0  0  0  0  0  0  0  0  0  0  0
   -0.7229    1.5045    2.3561 C   0  0  0  0  0  0  0  0  0  0  0  0
   -1.1641    2.5625    1.5592 C   0  0  0  0  0  0  0  0  0  0  0  0
   -2.4887    2.9385    1.5713 C   0  0  0  0  0  0  0  0  0  0  0  0
   -3.4021    2.2804    2.3899 C   0  0  0  0  0  0  0  0  0  0  0  0
   -5.0734    2.8598    2.3506 S   0  0  0  0  0  0  0  0  0  0  0  0
   -5.8075    2.1522    3.8536 C   0  0  0  0  0  0  0  0  0  0  0  0
   -2.9729    1.2207    3.1766 C   0  0  0  0  0  0  0  0  0  0  0  0
   -1.6480    0.8347    3.1548 C   0  0  0  0  0  0  0  0  0  0  0  0
    1.2289    0.5489    3.4722 C   0  0  0  0  0  0  0  0  0  0  0  0
    0.9598    1.0183    4.7565 C   0  0  0  0  0  0  0  0  0  0  0  0
    1.6138    0.4894    5.8517 C   0  0  0  0  0  0  0  0  0  0  0  0
    2.5444   -0.5267    5.6799 C   0  0  0  0  0  0  0  0  0  0  0  0
    3.4453   -1.2334    7.0324 S   0  0  0  0  0  0  0  0  0  0  0  0
    2.1488   -1.4053    8.2910 C   0  0  0  0  0  0  0  0  0  0  0  0
    2.8101   -1.0075    4.4031 C   0  0  0  0  0  0  0  0  0  0  0  0
    2.1567   -0.4800    3.3112 C   0  0  0  0  0  0  0  0  0  0  0  0
    0.9558    0.9543   -0.1156 C   0  0  0  0  0  0  0  0  0  0  0  0
   -0.5394    0.4572   -0.8101 S   0  0  0  0  0  0  0  0  0  0  0  0
    3.3784    2.1261    2.3779 C   0  0  0  0  0  0  0  0  0  0  0  0
    2.8307    2.9925    3.2717 C   0  0  0  0  0  0  0  0  0  0  0  0
    3.5429    3.0795    4.4904 C   0  0  0  0  0  0  0  0  0  0  0  0
    3.1428    3.7777    5.6405 C   0  0  0  0  0  0  0  0  0  0  0  0
    1.9212    4.5670    5.6260 C   0  0  0  0  0  0  0  0  0  0  0  0
    1.5915    5.5927    4.7865 C   0  0  0  0  0  0  0  0  0  0  0  0
    0.2955    6.0957    5.0047 C   0  0  0  0  0  0  0  0  0  0  0  0
   -0.3726    5.4258    5.9851 C   0  0  0  0  0  0  0  0  0  0  0  0
   -2.0130    5.7011    6.5461 S   0  0  0  0  0  0  0  0  0  0  0  0
   -2.9638    4.8592    5.2166 C   0  0  0  0  0  0  0  0  0  0  0  0
   -2.9489    5.6172    3.9064 C   0  0  0  0  0  0  0  0  0  0  0  0
    0.6114    4.1822    6.6982 S   0  0  0  0  0  0  0  0  0  0  0  0
    3.9267    3.6127    6.7695 C   0  0  0  0  0  0  0  0  0  0  0  0
    5.0584    2.7561    6.7993 C   0  0  0  0  0  0  0  0  0  0  0  0
    5.4353    2.0164    5.6533 C   0  0  0  0  0  0  0  0  0  0  0  0
    6.4711    1.0132    5.6863 C   0  0  0  0  0  0  0  0  0  0  0  0
    7.3152    0.6334    4.6742 C   0  0  0  0  0  0  0  0  0  0  0  0
    8.1035   -0.4827    4.9864 C   0  0  0  0  0  0  0  0  0  0  0  0
    7.8530   -0.9829    6.2345 C   0  0  0  0  0  0  0  0  0  0  0  0
    8.6621   -2.3450    6.9596 S   0  0  0  0  0  0  0  0  0  0  0  0
    7.2627   -3.2304    7.7396 C   0  0  0  0  0  0  0  0  0  0  0  0
    6.2674   -3.7276    6.7133 C   0  0  0  0  0  0  0  0  0  0  0  0
    6.6720   -0.0255    7.0748 S   0  0  0  0  0  0  0  0  0  0  0  0
    4.6783    2.2362    4.5058 C   0  0  0  0  0  0  0  0  0  0  0  0
    4.8675    1.4215    2.9735 S   0  0  0  0  0  0  0  0  0  0  0  0
    5.6797    2.7744    8.0614 C   0  0  0  0  0  0  0  0  0  0  0  0
    5.0609    3.5895    8.9783 C   0  0  0  0  0  0  0  0  0  0  0  0
    3.6802    4.4133    8.2909 S   0  0  0  0  0  0  0  0  0  0  0  0
    5.4366    3.8034   10.3302 C   0  0  0  0  0  0  0  0  0  0  0  0
    6.1369    2.9212   11.0896 C   0  0  0  0  0  0  0  0  0  0  0  0
    6.8322    3.3310   12.3342 C   0  0  0  0  0  0  0  0  0  0  0  0
    6.6728    4.3517   12.9556 O   0  0  0  0  0  0  0  0  0  0  0  0
    7.8106    2.2428   12.5919 C   0  0  0  0  0  0  0  0  0  0  0  0
    8.8257    2.1912   13.5321 C   0  0  0  0  0  0  0  0  0  0  0  0
    9.0100    3.4140   14.7068 Cl  0  0  0  0  0  0  0  0  0  0  0  0
    9.7128    1.1044   13.4935 C   0  0  0  0  0  0  0  0  0  0  0  0
   10.9639    0.9876   14.6519 Cl  0  0  0  0  0  0  0  0  0  0  0  0
    9.6014    0.1391   12.4926 C   0  0  0  0  0  0  0  0  0  0  0  0
   10.7496   -1.1256   12.4111 Cl  0  0  0  0  0  0  0  0  0  0  0  0
    8.5689    0.1945   11.5435 C   0  0  0  0  0  0  0  0  0  0  0  0
    8.5712   -0.9247   10.2468 Cl  0  0  0  0  0  0  0  0  0  0  0  0
    7.6391    1.2197   11.6346 C   0  0  0  0  0  0  0  0  0  0  0  0
    6.4385    1.5183   10.8609 C   0  0  0  0  0  0  0  0  0  0  0  0
    5.5498    0.6237   10.3301 C   0  0  0  0  0  0  0  0  0  0  0  0
    5.6548   -0.7801   10.3260 C   0  0  0  0  0  0  0  0  0  0  0  0
    5.6141   -1.9273   10.3013 N   0  0  0  0  0  0  0  0  0  0  0  0
    4.2812    1.0228    9.8512 C   0  0  0  0  0  0  0  0  0  0  0  0
    3.2133    1.2762    9.5164 N   0  0  0  0  0  0  0  0  0  0  0  0
   -6.2965   -2.6886   -9.5847 H   0  0  0  0  0  0  0  0  0  0  0  0
   -4.4606   -1.3997   -8.8177 H   0  0  0  0  0  0  0  0  0  0  0  0
   -2.2258   -1.1329   -9.4803 H   0  0  0  0  0  0  0  0  0  0  0  0
   -1.7041    0.9163  -10.9430 H   0  0  0  0  0  0  0  0  0  0  0  0
   -0.5645    2.8014  -11.5936 H   0  0  0  0  0  0  0  0  0  0  0  0
   -0.7269    4.5608  -11.7153 H   0  0  0  0  0  0  0  0  0  0  0  0
   -2.3026    3.4122  -13.3028 H   0  0  0  0  0  0  0  0  0  0  0  0
   -3.1670    4.3589  -12.0865 H   0  0  0  0  0  0  0  0  0  0  0  0
   -3.0791    2.6052  -11.9348 H   0  0  0  0  0  0  0  0  0  0  0  0
   -5.1730   -4.5185   -3.7516 H   0  0  0  0  0  0  0  0  0  0  0  0
   -6.1578   -4.8086   -1.3774 H   0  0  0  0  0  0  0  0  0  0  0  0
   -5.4464   -1.0202    2.3074 H   0  0  0  0  0  0  0  0  0  0  0  0
   -4.4300   -0.7979    0.8677 H   0  0  0  0  0  0  0  0  0  0  0  0
   -7.4795   -0.4555    0.9869 H   0  0  0  0  0  0  0  0  0  0  0  0
   -6.3008    0.8605    0.8571 H   0  0  0  0  0  0  0  0  0  0  0  0
   -6.5027   -0.2758   -0.4738 H   0  0  0  0  0  0  0  0  0  0  0  0
   -1.8788   -1.4231   -2.1718 H   0  0  0  0  0  0  0  0  0  0  0  0
    2.9979   -1.4610   -1.7146 H   0  0  0  0  0  0  0  0  0  0  0  0
    5.1925   -2.2833   -1.0581 H   0  0  0  0  0  0  0  0  0  0  0  0
    8.6930   -2.5989   -0.0383 H   0  0  0  0  0  0  0  0  0  0  0  0
    7.2063   -3.3556   -0.6451 H   0  0  0  0  0  0  0  0  0  0  0  0
    7.1229   -1.8405    0.3139 H   0  0  0  0  0  0  0  0  0  0  0  0
    7.0359    0.5008   -3.7309 H   0  0  0  0  0  0  0  0  0  0  0  0
    4.8145    1.3468   -4.3776 H   0  0  0  0  0  0  0  0  0  0  0  0
    1.3161    2.7936   -4.1946 H   0  0  0  0  0  0  0  0  0  0  0  0
    0.9633    3.4776   -6.5428 H   0  0  0  0  0  0  0  0  0  0  0  0
    2.8267    0.4913  -10.0288 H   0  0  0  0  0  0  0  0  0  0  0  0
    1.1398    0.0074   -9.6490 H   0  0  0  0  0  0  0  0  0  0  0  0
    1.4855    1.0821  -11.0240 H   0  0  0  0  0  0  0  0  0  0  0  0
    2.7920   -0.1581   -7.8650 H   0  0  0  0  0  0  0  0  0  0  0  0
    3.1462   -0.8241   -5.5463 H   0  0  0  0  0  0  0  0  0  0  0  0
   -0.4594    3.0979    0.9404 H   0  0  0  0  0  0  0  0  0  0  0  0
   -2.8275    3.7558    0.9534 H   0  0  0  0  0  0  0  0  0  0  0  0
   -6.7613    2.6552    3.9783 H   0  0  0  0  0  0  0  0  0  0  0  0
   -5.9709    1.0856    3.7305 H   0  0  0  0  0  0  0  0  0  0  0  0
   -5.1647    2.3581    4.7040 H   0  0  0  0  0  0  0  0  0  0  0  0
   -3.6622    0.6794    3.8047 H   0  0  0  0  0  0  0  0  0  0  0  0
   -1.3262    0.0001    3.7593 H   0  0  0  0  0  0  0  0  0  0  0  0
    0.2492    1.8195    4.8947 H   0  0  0  0  0  0  0  0  0  0  0  0
    1.4137    0.8878    6.8341 H   0  0  0  0  0  0  0  0  0  0  0  0
    2.5628   -2.0596    9.0520 H   0  0  0  0  0  0  0  0  0  0  0  0
    1.9170   -0.4377    8.7251 H   0  0  0  0  0  0  0  0  0  0  0  0
    1.2737   -1.8586    7.8360 H   0  0  0  0  0  0  0  0  0  0  0  0
    3.5315   -1.7998    4.2764 H   0  0  0  0  0  0  0  0  0  0  0  0
    2.3645   -0.8636    2.3232 H   0  0  0  0  0  0  0  0  0  0  0  0
    1.9199    3.5307    3.0814 H   0  0  0  0  0  0  0  0  0  0  0  0
    2.2719    5.9914    4.0550 H   0  0  0  0  0  0  0  0  0  0  0  0
   -0.1274    6.9240    4.4659 H   0  0  0  0  0  0  0  0  0  0  0  0
   -2.5571    3.8531    5.1074 H   0  0  0  0  0  0  0  0  0  0  0  0
   -3.9722    4.8021    5.6249 H   0  0  0  0  0  0  0  0  0  0  0  0
   -3.6426    5.1561    3.2070 H   0  0  0  0  0  0  0  0  0  0  0  0
   -3.2509    6.6498    4.0650 H   0  0  0  0  0  0  0  0  0  0  0  0
   -1.9550    5.6024    3.4646 H   0  0  0  0  0  0  0  0  0  0  0  0
    7.3808    1.1559    3.7370 H   0  0  0  0  0  0  0  0  0  0  0  0
    8.8171   -0.9269    4.3172 H   0  0  0  0  0  0  0  0  0  0  0  0
    7.7379   -4.0558    8.2687 H   0  0  0  0  0  0  0  0  0  0  0  0
    6.7909   -2.5654    8.4631 H   0  0  0  0  0  0  0  0  0  0  0  0
    5.4900   -4.2984    7.2154 H   0  0  0  0  0  0  0  0  0  0  0  0
    5.7947   -2.8922    6.2008 H   0  0  0  0  0  0  0  0  0  0  0  0
    6.7561   -4.3642    5.9786 H   0  0  0  0  0  0  0  0  0  0  0  0
    6.5946    2.2546    8.2819 H   0  0  0  0  0  0  0  0  0  0  0  0
    5.1950    4.7598   10.7780 H   0  0  0  0  0  0  0  0  0  0  0  0
  1  2  2  0  0  0  0
  2  3  1  0  0  0  0
  3  4  2  0  0  0  0
  3  5  1  0  0  0  0
  5  6  2  0  0  0  0
  6  7  1  0  0  0  0
  6  8  1  0  0  0  0
  8  9  1  0  0  0  0
  8 10  2  0  0  0  0
 10 11  1  0  0  0  0
 10 12  1  0  0  0  0
 12 13  1  0  0  0  0
 12 14  2  0  0  0  0
 14 15  1  0  0  0  0
 15 16  2  0  0  0  0
 16 17  1  0  0  0  0
 17 18  3  0  0  0  0
 16 19  1  0  0  0  0
 19 20  3  0  0  0  0
  1 21  1  0  0  0  0
 21 22  2  0  0  0  0
 22 23  1  0  0  0  0
 23 24  2  0  0  0  0
 24 25  1  0  0  0  0
 25 26  2  0  0  0  0
 26 27  1  0  0  0  0
 27 28  2  0  0  0  0
 28 29  1  0  0  0  0
 29 30  1  0  0  0  0
 30 31  1  0  0  0  0
 28 32  1  0  0  0  0
 24 33  1  0  0  0  0
 33 34  2  0  0  0  0
 34 35  1  0  0  0  0
 35 36  1  0  0  0  0
 36 37  2  0  0  0  0
 37 38  1  0  0  0  0
 38 39  2  0  0  0  0
 39 40  1  0  0  0  0
 40 41  1  0  0  0  0
 41 42  1  0  0  0  0
 39 43  1  0  0  0  0
 35 44  2  0  0  0  0
 44 45  1  0  0  0  0
 34 46  1  0  0  0  0
 46 47  2  0  0  0  0
 47 48  1  0  0  0  0
 47 49  1  0  0  0  0
 49 50  2  0  0  0  0
 50 51  1  0  0  0  0
 51 52  1  0  0  0  0
 52 53  2  0  0  0  0
 53 54  1  0  0  0  0
 54 55  2  0  0  0  0
 55 56  1  0  0  0  0
 56 57  1  0  0  0  0
 55 58  1  0  0  0  0
 58 59  2  0  0  0  0
 51 60  1  0  0  0  0
 60 61  2  0  0  0  0
 61 62  1  0  0  0  0
 62 63  2  0  0  0  0
 63 64  1  0  0  0  0
 64 65  1  0  0  0  0
 63 66  1  0  0  0  0
 66 67  2  0  0  0  0
 50 68  1  0  0  0  0
 68 69  1  0  0  0  0
 69 70  1  0  0  0  0
 70 71  2  0  0  0  0
 71 72  1  0  0  0  0
 72 73  1  0  0  0  0
 73 74  2  0  0  0  0
 74 75  1  0  0  0  0
 75 76  2  0  0  0  0
 76 77  1  0  0  0  0
 77 78  1  0  0  0  0
 76 79  1  0  0  0  0
 79 80  2  0  0  0  0
 72 81  1  0  0  0  0
 81 82  2  0  0  0  0
 82 83  1  0  0  0  0
 83 84  2  0  0  0  0
 84 85  1  0  0  0  0
 85 86  1  0  0  0  0
 84 87  1  0  0  0  0
 87 88  2  0  0  0  0
 71 89  1  0  0  0  0
 89 90  1  0  0  0  0
 70 91  1  0  0  0  0
 91 92  2  0  0  0  0
 92 93  1  0  0  0  0
 93 94  2  0  0  0  0
 94 95  1  0  0  0  0
 95 96  2  0  0  0  0
 96 97  1  0  0  0  0
 97 98  2  0  0  0  0
 98 99  1  0  0  0  0
 99100  1  0  0  0  0
100101  1  0  0  0  0
 98102  1  0  0  0  0
 94103  1  0  0  0  0
103104  2  0  0  0  0
104105  1  0  0  0  0
105106  1  0  0  0  0
106107  2  0  0  0  0
107108  1  0  0  0  0
108109  2  0  0  0  0
109110  1  0  0  0  0
110111  1  0  0  0  0
111112  1  0  0  0  0
109113  1  0  0  0  0
105114  2  0  0  0  0
114115  1  0  0  0  0
104116  1  0  0  0  0
116117  2  0  0  0  0
117118  1  0  0  0  0
117119  1  0  0  0  0
119120  2  0  0  0  0
120121  1  0  0  0  0
121122  2  0  0  0  0
121123  1  0  0  0  0
123124  2  0  0  0  0
124125  1  0  0  0  0
124126  1  0  0  0  0
126127  1  0  0  0  0
126128  2  0  0  0  0
128129  1  0  0  0  0
128130  1  0  0  0  0
130131  1  0  0  0  0
130132  2  0  0  0  0
132133  1  0  0  0  0
133134  2  0  0  0  0
134135  1  0  0  0  0
135136  3  0  0  0  0
134137  1  0  0  0  0
137138  3  0  0  0  0
 15  2  1  0  0  0  0
 45 21  1  0  0  0  0
 90 49  1  0  0  0  0
115 91  1  0  0  0  0
133120  1  0  0  0  0
 14  5  1  0  0  0  0
 44 23  1  0  0  0  0
 59 52  1  0  0  0  0
 67 60  1  0  0  0  0
 89 68  2  0  0  0  0
114 93  1  0  0  0  0
132123  1  0  0  0  0
 32 25  1  0  0  0  0
 48 33  1  0  0  0  0
 80 73  1  0  0  0  0
 88 81  1  0  0  0  0
102 95  1  0  0  0  0
118103  1  0  0  0  0
 43 36  1  0  0  0  0
113106  1  0  0  0  0
  1139  1  0  0  0  0
 22140  1  0  0  0  0
 26141  1  0  0  0  0
 27142  1  0  0  0  0
 30143  1  0  0  0  0
 30144  1  0  0  0  0
 31145  1  0  0  0  0
 31146  1  0  0  0  0
 31147  1  0  0  0  0
 37148  1  0  0  0  0
 38149  1  0  0  0  0
 41150  1  0  0  0  0
 41151  1  0  0  0  0
 42152  1  0  0  0  0
 42153  1  0  0  0  0
 42154  1  0  0  0  0
 46155  1  0  0  0  0
 53156  1  0  0  0  0
 54157  1  0  0  0  0
 57158  1  0  0  0  0
 57159  1  0  0  0  0
 57160  1  0  0  0  0
 58161  1  0  0  0  0
 59162  1  0  0  0  0
 61163  1  0  0  0  0
 62164  1  0  0  0  0
 65165  1  0  0  0  0
 65166  1  0  0  0  0
 65167  1  0  0  0  0
 66168  1  0  0  0  0
 67169  1  0  0  0  0
 74170  1  0  0  0  0
 75171  1  0  0  0  0
 78172  1  0  0  0  0
 78173  1  0  0  0  0
 78174  1  0  0  0  0
 79175  1  0  0  0  0
 80176  1  0  0  0  0
 82177  1  0  0  0  0
 83178  1  0  0  0  0
 86179  1  0  0  0  0
 86180  1  0  0  0  0
 86181  1  0  0  0  0
 87182  1  0  0  0  0
 88183  1  0  0  0  0
 92184  1  0  0  0  0
 96185  1  0  0  0  0
 97186  1  0  0  0  0
100187  1  0  0  0  0
100188  1  0  0  0  0
101189  1  0  0  0  0
101190  1  0  0  0  0
101191  1  0  0  0  0
107192  1  0  0  0  0
108193  1  0  0  0  0
111194  1  0  0  0  0
111195  1  0  0  0  0
112196  1  0  0  0  0
112197  1  0  0  0  0
112198  1  0  0  0  0
116199  1  0  0  0  0
119200  1  0  0  0  0
M  END
