84

C         -5.67220        5.34990        3.43620
C         -5.91500        4.99860        4.72720
C         -5.49320        3.71820        5.34770
O         -5.02780        2.74190        4.80990
C         -5.61020        3.94160        6.80860
C         -5.23510        3.09010        7.83390
Cl        -4.71310        1.49700        7.52100
C         -5.28890        3.57220        9.14980
Cl        -4.86790        2.54730       10.45050
C         -5.64290        4.89850        9.39450
Cl        -5.60300        5.49220       10.99720
C         -6.01570        5.75960        8.34930
Cl        -6.27350        7.41590        8.70870
C         -6.06290        5.25440        7.05570
C         -6.43100        5.85810        5.77950
C         -7.30110        6.88920        5.55570
C         -7.63730        7.34260        4.25820
N         -7.95920        7.76460        3.24120
C         -8.11150        7.53400        6.51570
N         -8.87590        8.05660        7.19310
C         -5.30040        4.44370        2.39890
C         -5.83070        3.15060        2.24820
C         -5.30460        2.20850        1.27690
N         -5.99120        1.05910        1.29450
S         -7.13590        1.15170        2.39750
N         -6.87200        2.64200        2.91080
C         -4.22750        2.51510        0.43250
C         -3.81410        3.85810        0.46770
N         -2.86150        4.42040       -0.28870
S         -2.67990        5.94850        0.14130
N         -3.76510        6.00250        1.31650
C         -4.35160        4.80720        1.42460
C         -3.51930        1.51940       -0.35940
C         -2.99190        1.82650       -1.61700
C         -2.20950        0.92690       -2.30580
C         -1.92370       -0.33540       -1.78490
C         -2.48460       -0.66160       -0.55180
F         -2.22270       -1.85370        0.01410
C         -3.25580        0.24710        0.15700
F         -3.65150       -0.09760        1.38940
C         -0.96270       -1.24280       -2.42700
C          0.26950       -0.71740       -2.83620
C          1.23670       -1.58310       -3.28880
C          2.64520       -1.29180       -3.66950
O          3.17550       -0.21400       -3.77840
C          3.24510       -2.63610       -3.88940
C          2.24730       -3.62360       -3.75730
C          1.00200       -2.96970       -3.36940
C         -0.23480       -3.47990       -3.02520
C         -1.20570       -2.60900       -2.54600
C          2.56510       -4.95480       -3.95280
C          3.88530       -5.28960       -4.21600
C          4.89510       -4.32290       -4.24670
C          4.55650       -2.96520       -4.12320
C          6.27110       -4.73840       -4.40090
C          7.31550       -4.22930       -3.70340
C          7.18400       -3.39220       -2.47430
O          6.18220       -2.92640       -1.98550
C          8.54630       -3.32780       -1.90340
C          8.94520       -2.69830       -0.74170
C         10.28870       -2.77900       -0.40350
Br        10.90220       -1.92880        1.17890
C         11.19760       -3.47050       -1.19640
C         10.78650       -4.10140       -2.35950
C          9.44730       -4.03010       -2.72250
C          8.72270       -4.57490       -3.86460
C          9.27980       -5.23130       -4.92680
C          8.56790       -5.69350       -6.05560
N          8.05880       -6.08660       -7.00610
C         10.65750       -5.51800       -5.04480
N         11.76410       -5.78280       -5.19200
H         -5.66780        6.39640        3.15720
H         -3.19140        2.79890       -2.03560
H         -1.80220        1.19650       -3.26780
H          0.47830        0.33780       -2.74630
H         -0.44220       -4.53680       -3.09370
H         -2.16580       -3.00240       -2.24830
H          1.81120       -5.72460       -3.88930
H          4.15410       -6.32790       -4.34720
H          5.30290       -2.19360       -4.22340
H          6.44610       -5.55240       -5.09390
H          8.23200       -2.16600       -0.13150
H         12.23420       -3.51630       -0.89980
H         11.50750       -4.63670       -2.95500
