150

C         -6.70760        2.04550       -4.02920
C         -7.58880        3.07590       -3.84870
C         -7.26340        4.39000       -3.26340
O         -6.16980        4.85270       -3.03350
C         -8.56680        5.09400       -3.14070
C         -8.84520        6.28520       -2.49790
Cl        -7.60390        7.23450       -1.81230
C        -10.18370        6.69000       -2.39910
Cl       -10.57500        8.16940       -1.63630
C        -11.19810        5.86610       -2.88210
Cl       -12.82990        6.33530       -2.66670
C        -10.90910        4.65230       -3.52610
Cl       -12.21690        3.61690       -3.92540
C         -9.57810        4.30180       -3.71890
C         -8.94930        3.13910       -4.34560
C         -9.49440        2.35100       -5.32710
C         -8.90830        1.18160       -5.85450
N         -8.54930        0.19940       -6.33080
C        -10.64740        2.66370       -6.07970
N        -11.49670        2.88060       -6.82100
C         -5.46440        1.86090       -3.38340
C         -4.47310        1.06110       -4.00090
C         -3.22700        0.71220       -3.36020
N         -2.42990        0.01200       -4.17000
S         -3.17020       -0.19230       -5.58030
N         -4.53640        0.58220       -5.24290
C         -2.92600        1.11410       -2.04160
C         -3.85400        2.00900       -1.47030
N         -3.76090        2.51800       -0.24000
S         -5.11480        3.30880        0.09820
N         -5.89760        3.03200       -1.27290
C         -5.11670        2.33750       -2.09910
C         -1.83970        0.59090       -1.29180
C         -1.35390       -0.72170       -1.29790
N         -1.94720       -1.79580       -1.92430
C         -3.33570       -1.84050       -2.10670
C         -3.88540       -2.37640       -3.26800
C         -5.24330       -2.29710       -3.51170
C         -6.08320       -1.68650       -2.58890
S         -7.80920       -1.44320       -2.82220
C         -8.16770       -2.29240       -4.38430
C         -5.54570       -1.21970       -1.38750
C         -4.19520       -1.30350       -1.14440
C         -1.13020       -2.82910       -2.39770
C          0.10190       -2.53100       -2.98290
C          0.92240       -3.54380       -3.42120
C          0.53210       -4.87710       -3.29440
S          1.67910       -6.08180       -3.87640
C          0.82890       -7.66490       -3.62340
C         -0.70270       -5.17570       -2.73190
C         -1.52450       -4.15930       -2.28610
C         -0.25730       -0.84580       -0.41400
S          0.77250       -2.15920        0.05280
C          1.55660       -1.14030        1.23300
C          1.10360        0.16620        1.20880
N          1.66780        1.20240        1.93570
C          3.05210        1.22150        2.15060
C          3.58790        1.61980        3.37200
C          4.94340        1.51640        3.62130
C          5.79950        1.03730        2.63930
S          7.53140        0.77970        2.85160
C          7.90820        1.50760        4.47210
C          5.27800        0.71470        1.38740
C          3.92690        0.80230        1.14590
C          0.83100        2.19130        2.46230
C         -0.44600        1.86010        2.91910
C         -1.28960        2.83860        3.39330
C         -0.87640        4.16870        3.43590
S         -2.04760        5.33260        4.05960
C         -1.24080        6.94060        3.81780
C          0.40290        4.49880        3.00780
C          1.24540        3.51880        2.52040
C          0.04480        0.31730        0.28000
S         -1.02890        1.61150       -0.12040
C          2.58860       -1.63370        2.12590
C          3.72990       -2.24940        1.63530
C          4.81680       -2.52560        2.45450
O          6.00090       -3.00620        2.01550
C          6.27060       -3.11200        0.62830
C          5.78160       -4.42860        0.03230
C          4.73420       -2.17060        3.82220
C          3.54180       -1.63390        4.32320
C          2.45780       -1.38320        3.50990
O          1.25300       -0.90400        3.91240
C          0.92470       -0.87200        5.28980
C          1.32980        0.42630        5.97830
C          5.90000       -2.13990        4.66110
C          7.00690       -2.93040        4.64490
C          8.21950       -2.31260        5.23660
O          8.16770       -1.35990        5.99140
N          9.42070       -2.82590        4.80740
C         10.63910       -2.10630        5.16570
C         11.07920       -1.19320        4.02800
C          9.57540       -3.96020        4.01730
O         10.66980       -4.29420        3.61940
C          8.34750       -4.73150        3.78840
C          7.11050       -4.25150        4.09650
C          5.90520       -5.12790        3.97760
C          8.49240       -6.01390        3.22170
N          8.56550       -7.05550        2.74670
H         -6.95730        1.26380       -4.73480
H         -3.23480       -2.82290       -4.00580
H         -5.62930       -2.68950       -4.43820
H         -7.87050       -3.33440       -4.31300
H         -7.67780       -1.78270       -5.20830
H         -9.24370       -2.22290       -4.51010
H         -6.20680       -0.78680       -0.65260
H         -3.79350       -0.93690       -0.21150
H          0.39440       -1.49940       -3.10400
H          1.87430       -3.31850       -3.87670
H          0.64880       -7.82670       -2.56470
H          1.50820       -8.42310       -4.00050
H         -0.09640       -7.68440       -4.19160
H         -1.03370       -6.19580       -2.62430
H         -2.47740       -4.39740       -1.83710
H          2.93140        1.99440        4.14180
H          5.31750        1.79740        4.59310
H          7.46720        2.49680        4.54220
H          8.99050        1.58720        4.51120
H          7.56910        0.85060        5.26780
H          5.95320        0.39060        0.60990
H          3.53480        0.54160        0.17410
H         -0.76130        0.82820        2.90730
H         -2.28000        2.58620        3.73930
H         -1.00380        7.07970        2.76710
H         -1.96810        7.68230        4.13350
H         -0.35190        7.01160        4.43820
H          0.75460        5.51740        3.03580
H          2.23220        3.78530        2.17170
H          3.76880       -2.45210        0.57700
H          5.85030       -2.25460        0.09130
H          7.36120       -3.06140        0.56130
H          6.00510       -4.45020       -1.03040
H          4.70880       -4.54770        0.16730
H          6.28850       -5.26440        0.50870
H          3.50710       -1.40270        5.37600
H          1.35600       -1.73930        5.80350
H         -0.16560       -0.96550        5.31050
H          2.40990        0.54710        5.98680
H          0.88420        1.27130        5.45800
H          0.97000        0.41690        7.00360
H          5.96030       -1.27830        5.31890
H         10.41710       -1.52870        6.06430
H         11.41470       -2.84510        5.37670
H         10.27280       -0.51690        3.75200
H         11.35180       -1.78650        3.15900
H         11.94160       -0.60980        4.33810
H          5.70810       -5.37080        2.93560
H          6.08850       -6.06870        4.49670
H          5.02630       -4.65070        4.40020
