138

C         -4.64110        2.17040       -5.78920
C         -5.96610        2.34880       -5.48960
C         -6.64980        1.91610       -4.25900
O         -6.15760        1.52280       -3.22370
C         -8.09300        2.16960       -4.50230
C         -9.18020        1.77940       -3.74390
Cl        -8.97870        1.00140       -2.23850
C        -10.46490        2.01730       -4.25150
Cl       -11.84040        1.56960       -3.33890
C        -10.62260        2.57860       -5.51700
Cl       -12.19810        2.77470       -6.15580
C         -9.51370        2.97150       -6.28370
Cl        -9.78080        3.49590       -7.89520
C         -8.24510        2.82430       -5.73920
C         -6.91270        3.14000       -6.25220
C         -6.61030        4.14510       -7.13350
C         -7.50240        5.16120       -7.53960
N         -8.10830        6.09230       -7.82910
C         -5.31780        4.45100       -7.61040
N         -4.31400        4.78650       -8.05710
C         -3.72090        1.35340       -5.10330
C         -4.01550        0.19010       -4.35430
C         -3.05890       -0.40060       -3.44380
N         -3.55060       -1.46810       -2.82090
S         -5.04730       -1.73160       -3.35250
N         -5.14760       -0.50590       -4.38350
C         -1.79680        0.18560       -3.19850
C         -1.40910        1.15040       -4.15940
N         -0.18390        1.64660       -4.32450
S         -0.20180        2.68870       -5.54960
N         -1.76540        2.58820       -5.91370
C         -2.34470        1.69690       -5.11480
C         -1.03310       -0.13940       -2.05980
C         -0.15970        0.70020       -1.34300
N         -0.12770        2.06520       -1.43360
C          0.99800        2.75810       -0.96250
C          2.28160        2.30850       -1.26220
C          3.38780        2.93210       -0.71940
C          3.22260        4.02410        0.12430
S          4.54710        4.85960        0.91920
C          5.95520        3.73730        0.71670
C          1.93940        4.51630        0.37050
C          0.83760        3.89060       -0.16250
C         -1.24090        2.80000       -1.87570
C         -1.05520        3.93130       -2.66500
C         -2.13540        4.60640       -3.20020
C         -3.42800        4.16380       -2.94660
S         -4.87620        4.90320       -3.61660
C         -4.23570        6.13840       -4.78380
C         -3.62160        3.07550       -2.09270
C         -2.54420        2.40860       -1.55850
C          0.54330       -0.05040       -0.37070
S          1.79590        0.30460        0.76440
C          1.76740       -1.34710        1.37010
C          0.76050       -2.10400        0.76810
N          0.41270       -3.41700        1.04810
C          0.10420       -3.83350        2.34320
C         -0.28220       -2.92200        3.32460
C         -0.53950       -3.33850        4.61670
C         -0.43080       -4.68170        4.95150
S         -0.70090       -5.33620        6.56840
C         -1.15570       -3.88690        7.55990
C         -0.07010       -5.60160        3.96610
C          0.19990       -5.18700        2.68240
C          0.07010       -4.22220       -0.05650
C          0.91200       -4.24680       -1.16820
C          0.57430       -4.98900       -2.27650
C         -0.60800       -5.72770       -2.29840
S         -0.93950       -6.63020       -3.77550
C         -2.59670       -7.31990       -3.50620
C         -1.43960       -5.71780       -1.18620
C         -1.10400       -4.96700       -0.07700
C          0.11690       -1.36560       -0.25310
S         -1.15880       -1.74500       -1.36690
C          2.81460       -1.68600        2.26800
C          2.96540       -2.77340        3.10950
C          4.15530       -2.73980        3.83080
S          4.66130       -3.89120        5.04070
C          3.37930       -5.19090        4.98900
C          3.53280       -6.10010        3.78550
C          4.97740       -1.63960        3.51270
S          4.20660       -0.64030        2.30710
C          6.22030       -1.41680        4.10720
C          7.20010       -0.50450        3.80390
C          7.20590        0.43060        2.66850
O          6.28600        0.69280        1.91060
C          8.56300        0.99240        2.63470
C          9.27670        0.50140        3.72070
S         10.89480        1.08780        3.82320
C         10.64000        1.99910        2.36820
C         11.45870        2.84350        1.59440
C         10.79020        3.31020        0.50790
S          9.15750        2.74560        0.39200
C          9.34710        1.84880        1.85080
C          8.47700       -0.41300        4.48990
C          8.89400       -1.03290        5.64270
C         10.18830       -0.80330        6.15230
N         11.24150       -0.62250        6.57160
C          8.13260       -1.91080        6.43630
N          7.57280       -2.62570        7.14000
H         -4.20720        2.74490       -6.59790
H          2.40600        1.46930       -1.92980
H          4.36960        2.55520       -0.95280
H          6.27920        3.72180       -0.31970
H          6.74260        4.15540        1.33620
H          5.69720        2.74150        1.06690
H          1.82310        5.37940        1.00740
H         -0.15540        4.25370        0.05630
H         -0.05140        4.26310       -2.88690
H         -1.95340        5.46230       -3.82910
H         -5.10950        6.56940       -5.26370
H         -3.69710        6.91370       -4.24720
H         -3.60950        5.65530       -5.52820
H         -4.62670        2.74970       -1.87500
H         -2.70930        1.57090       -0.89800
H         -0.37590       -1.87600        3.07560
H         -0.82900       -2.60300        5.34930
H         -0.33700       -3.17340        7.57570
H         -1.33280       -4.26510        8.56200
H         -2.06520       -3.44000        7.16910
H          0.00560       -6.64530        4.22990
H          0.49820       -5.90400        1.93270
H          1.82700       -3.67310       -1.15520
H          1.22050       -5.00690       -3.14040
H         -2.57770       -8.03260       -2.68680
H         -2.85300       -7.83020       -4.42950
H         -3.30370       -6.51710       -3.31900
H         -2.35930       -6.27910       -1.17240
H         -1.76590       -4.94760        0.77580
H          2.22440       -3.53890        3.21380
H          2.40030       -4.71700        5.03230
H          3.54180       -5.74390        5.91410
H          3.41290       -5.54700        2.85670
H          4.51740       -6.56160        3.78670
H          2.77960       -6.88380        3.82190
H          6.44140       -2.11250        4.90940
H         12.47820        3.08400        1.83080
H         11.15920        3.96640       -0.25510
