218

C          1.24370        6.91560        2.25900
C          0.03690        7.43330        2.59770
C         -0.93060        6.84420        3.56470
O         -0.71250        6.05050        4.44680
C         -2.21140        7.54160        3.29480
C         -3.47790        7.20590        3.74040
Cl        -3.72640        5.88850        4.80300
C         -4.56120        7.95780        3.26370
Cl        -6.14350        7.59960        3.79720
C         -4.35540        8.96910        2.32530
Cl        -5.70390        9.81760        1.70290
C         -3.06830        9.29050        1.86520
Cl        -2.91650       10.42140        0.58480
C         -1.98290        8.60650        2.40040
C         -0.54660        8.69350        2.14580
C          0.15320        9.79600        1.74270
C         -0.35770       11.11020        1.65040
N         -0.64530       12.22050        1.64540
C          1.54950        9.81170        1.52310
N          2.67320        9.90060        1.30730
C          1.69640        5.59850        2.62610
C          0.79500        4.52730        2.71410
C          1.24180        3.32120        3.17820
C          0.42530        2.08680        3.43720
C         -0.16940        1.37290        2.23660
C          0.48490        0.78430        1.17240
C         -0.23970        0.00480        0.29040
C         -1.61500       -0.19490        0.45660
O         -2.18740       -1.05100       -0.43070
C         -3.56900       -1.33100       -0.32340
C         -3.90840       -2.46090       -1.28190
C         -2.28220        0.43440        1.50380
C         -1.54520        1.18990        2.40470
C         -1.94350        1.81910        3.65450
C         -3.19190        1.92140        4.24650
C         -3.29100        2.56790        5.47490
O         -4.44820        2.76180        6.16860
C         -5.63910        2.13760        5.73430
C         -5.65820        0.63990        6.02660
C         -2.14610        3.10020        6.07820
C         -0.90170        2.99130        5.48700
C         -0.80220        2.33830        4.27630
C          1.47210        1.16370        4.00670
C          2.74510        1.75720        3.99370
C          2.59210        3.12260        3.53650
C          3.50340        4.15870        3.37140
C          3.05220        5.38020        2.91090
C          3.85900        0.96420        4.25400
C          3.69950       -0.40590        4.35740
C          2.43470       -1.00150        4.27630
C          1.30300       -0.17590        4.21440
C          2.22120       -2.36180        3.82510
C          0.98610       -3.00740        3.82570
N          0.12310       -2.90470        4.89700
C          0.67320       -2.62240        6.16540
C          0.12160       -1.62510        6.96820
C          0.66510       -1.35160        8.20330
C          1.77110       -2.06290        8.66430
S          2.37740       -1.61990       10.26090
C          3.81840       -2.69810       10.50080
C          2.32070       -3.05880        7.86770
C          1.77290       -3.33450        6.63050
C         -1.27030       -2.89820        4.76510
C         -1.90390       -2.28340        3.68590
C         -3.27950       -2.25300        3.62860
C         -4.05450       -2.82570        4.63180
S         -5.80570       -2.69730        4.43540
C         -6.46910       -3.35830        5.98860
C         -3.42690       -3.44760        5.70280
C         -2.04880       -3.48120        5.76360
C          0.78870       -3.73320        2.62500
S         -0.60040       -4.37380        1.79970
C          0.29260       -4.44000        0.29640
C          1.63260       -4.14730        0.47120
N          2.57290       -4.26600       -0.55200
C          3.39710       -3.19330       -0.88530
C          3.04860       -1.88590       -0.53900
C          3.85980       -0.83010       -0.89090
C          5.03160       -1.04820       -1.60380
S          5.98070        0.37520       -2.07010
C          7.67210       -0.28350       -2.15590
C          5.39250       -2.34460       -1.94470
C          4.59140       -3.40450       -1.57500
C          2.45220       -5.39260       -1.38330
C          2.18160       -6.63880       -0.81680
C          2.00730       -7.74450       -1.61710
C          2.10680       -7.63620       -3.00290
S          1.85250       -9.11730       -3.93080
C          1.89730       -8.56090       -5.65820
C          2.39530       -6.40320       -3.56850
C          2.56040       -5.29200       -2.76520
C          1.89910       -3.71510        1.78660
S          3.24410       -2.89340        2.49530
C         -0.35900       -4.44480       -1.00300
C          0.03780       -3.42820       -1.88240
C         -0.57140       -3.31670       -3.10130
C         -0.29710       -2.28900       -4.17200
C         -0.35660       -0.87490       -3.64210
C         -1.44230       -0.15900       -3.18470
C         -1.23930        1.11650       -2.69230
C          0.03760        1.68600       -2.63910
O          0.07450        2.94660       -2.12490
C          1.29340        3.65850       -2.05840
C          2.15010        3.26750       -0.85810
C          1.13120        0.97510       -3.12590
C          0.91970       -0.29720       -3.63500
C          1.84540       -1.21840       -4.27710
C          3.18330       -1.06720       -4.60230
C          3.80930       -2.08190       -5.32100
O          5.11970       -2.08170       -5.69840
C          5.85410       -0.87350       -5.66290
C          5.43020        0.09840       -6.75940
C          3.08850       -3.21900       -5.69830
C          1.75480       -3.36950       -5.36440
C          1.13850       -2.36700       -4.64790
C         -1.28490       -2.69540       -5.22650
C         -2.00930       -3.83720       -4.82830
C         -1.57720       -4.21380       -3.49770
C         -1.97130       -5.22560       -2.63040
C         -1.36950       -5.32650       -1.38680
C         -2.94640       -4.39430       -5.69230
C         -3.09710       -3.85180       -6.95160
C         -2.31770       -2.76320       -7.37920
C         -1.44350       -2.14630       -6.47060
C         -2.41290       -2.31270       -8.73850
C         -1.38580       -1.81840       -9.48400
C          0.05790       -1.95840       -9.16290
O          0.57580       -2.38780       -8.15900
C          0.77130       -1.58630      -10.40640
C          2.13550       -1.61630      -10.64030
Cl         3.24310       -1.95800       -9.38700
C          2.58660       -1.35300      -11.94090
Cl         4.26230       -1.33610      -12.27520
C          1.66820       -1.14710      -12.97020
Cl         2.23950       -0.93410      -14.56780
C          0.28540       -1.12240      -12.72440
Cl        -0.77950       -1.03380      -14.06560
C         -0.15990       -1.26990      -11.41580
C         -1.48930       -1.23730      -10.81450
C         -2.59380       -0.57250      -11.27560
C         -3.83070       -0.54730      -10.59050
N         -4.86650       -0.48080      -10.10060
C         -2.64950        0.31000      -12.37620
N         -2.78500        1.11470      -13.18300
H          1.92550        7.50950        1.66390
H         -0.23290        4.64690        2.40860
H          1.55160        0.90130        1.04920
H          0.23400       -0.47850       -0.54880
H         -3.81370       -1.64840        0.69830
H         -4.15350       -0.43120       -0.56300
H         -3.68220       -2.17970       -2.30610
H         -4.96550       -2.69920       -1.20390
H         -3.32290       -3.34170       -1.03310
H         -3.34540        0.32530        1.64510
H         -4.05420        1.51080        3.74580
H         -5.81260        2.32960        4.66810
H         -6.42790        2.63780        6.30330
H         -4.84830        0.13220        5.50760
H         -6.60370        0.21460        5.70150
H         -5.53990        0.47310        7.09470
H         -2.26540        3.60690        7.02270
H         -0.03180        3.41490        5.96380
H          4.54580        4.01880        3.61510
H          3.74200        6.20580        2.81280
H          4.84820        1.39610        4.28290
H          4.56930       -1.04270        4.42850
H          0.31280       -0.59450        4.14380
H         -0.73000       -1.06150        6.61710
H          0.24430       -0.57510        8.82310
H          4.55660       -2.50870        9.72710
H          4.22420       -2.42900       11.47100
H          3.50900       -3.73920       10.50810
H          3.17040       -3.63340        8.19890
H          2.20380       -4.11280        6.01810
H         -1.32570       -1.80720        2.90810
H         -3.77830       -1.76600        2.80640
H         -6.23340       -4.41500        6.07600
H         -6.07400       -2.79230        6.82700
H         -7.54500       -3.22700        5.92740
H         -3.99520       -3.91030        6.49320
H         -1.56270       -3.96030        6.60050
H          2.14070       -1.69100        0.01140
H          3.58650        0.17750       -0.61780
H          7.80840       -0.87120       -3.05940
H          8.32860        0.58060       -2.17870
H          7.86640       -0.87870       -1.26910
H          6.29690       -2.54110       -2.49840
H          4.88940       -4.41010       -1.82910
H          2.10370       -6.73330        0.25610
H          1.79550       -8.70800       -1.17930
H          1.13560       -7.80410       -5.82120
H          1.67820       -9.44130       -6.25430
H          2.88640       -8.18630       -5.90530
H          2.48750       -6.28280       -4.63510
H          2.76200       -4.33600       -3.22190
H          0.79290       -2.71450       -1.59620
H         -2.43650       -0.57510       -3.22060
H         -2.06520        1.70800       -2.33040
H          0.98930        4.70550       -1.96500
H          1.85810        3.54700       -2.99220
H          3.02420        3.91100       -0.80630
H          2.47920        2.23530       -0.94100
H          1.57540        3.37580        0.05900
H          2.12820        1.38690       -3.12290
H          3.70680       -0.17290       -4.30420
H          5.77880       -0.39690       -4.67900
H          6.89070       -1.18490       -5.82230
H          5.54360       -0.36940       -7.73440
H          6.04970        0.99010       -6.71940
H          4.38850        0.38500       -6.63470
H          3.60590       -3.97360       -6.26980
H          1.20450       -4.24390       -5.67650
H         -2.74480       -5.92370       -2.91410
H         -1.67630       -6.10240       -0.70050
H         -3.53280       -5.24930       -5.39080
H         -3.79350       -4.29700       -7.64750
H         -0.91450       -1.24690       -6.73930
H         -3.37600       -2.44480       -9.21710
