
  xtb     02042206133D
 energy: -295.921053146267 gnorm: 0.000602124994 xtb: 6.4.1 (unknown)
145159  0     0  0            999 V2000
    1.8227    1.7972   -7.2464 C   0  0  0  0  0  0  0  0  0  0  0  0
    2.2096    0.9370   -8.2247 C   0  0  0  0  0  0  0  0  0  0  0  0
    1.9902   -0.5262   -8.1712 C   0  0  0  0  0  0  0  0  0  0  0  0
    1.4528   -1.1686   -7.2998 O   0  0  0  0  0  0  0  0  0  0  0  0
    2.4961   -1.0440   -9.4677 C   0  0  0  0  0  0  0  0  0  0  0  0
    2.5791   -2.3571   -9.8965 C   0  0  0  0  0  0  0  0  0  0  0  0
    1.9094   -3.6365   -8.9841 Cl  0  0  0  0  0  0  0  0  0  0  0  0
    3.2478   -2.6225  -11.0994 C   0  0  0  0  0  0  0  0  0  0  0  0
    3.3577   -4.2264  -11.6793 Cl  0  0  0  0  0  0  0  0  0  0  0  0
    3.8687   -1.5855  -11.7948 C   0  0  0  0  0  0  0  0  0  0  0  0
    4.7761   -1.9477  -13.1994 Cl  0  0  0  0  0  0  0  0  0  0  0  0
    3.7738   -0.2541  -11.3591 C   0  0  0  0  0  0  0  0  0  0  0  0
    4.7110    0.9321  -12.1694 Cl  0  0  0  0  0  0  0  0  0  0  0  0
    3.0090    0.0244  -10.2309 C   0  0  0  0  0  0  0  0  0  0  0  0
    2.6674    1.2768   -9.5625 C   0  0  0  0  0  0  0  0  0  0  0  0
    2.6237    2.5192  -10.1392 C   0  0  0  0  0  0  0  0  0  0  0  0
    2.3664    3.7274   -9.4555 C   0  0  0  0  0  0  0  0  0  0  0  0
    2.2078    4.7657   -8.9910 N   0  0  0  0  0  0  0  0  0  0  0  0
    2.6717    2.7802  -11.5269 C   0  0  0  0  0  0  0  0  0  0  0  0
    2.5786    3.0828  -12.6299 N   0  0  0  0  0  0  0  0  0  0  0  0
    1.4769    1.4240   -5.9068 C   0  0  0  0  0  0  0  0  0  0  0  0
    0.3952    2.0231   -5.2656 C   0  0  0  0  0  0  0  0  0  0  0  0
   -0.3554    2.8925   -5.9723 F   0  0  0  0  0  0  0  0  0  0  0  0
    0.0073    1.7565   -3.9685 C   0  0  0  0  0  0  0  0  0  0  0  0
    0.7735    0.9088   -3.1700 C   0  0  0  0  0  0  0  0  0  0  0  0
    1.8490    0.2169   -3.8005 C   0  0  0  0  0  0  0  0  0  0  0  0
    2.5138   -0.7108   -3.0905 N   0  0  0  0  0  0  0  0  0  0  0  0
    3.5380   -1.3050   -3.6213 C   0  0  0  0  0  0  0  0  0  0  0  0
    4.0018   -0.9275   -4.9144 C   0  0  0  0  0  0  0  0  0  0  0  0
    5.1558   -1.4488   -5.3172 O   0  0  0  0  0  0  0  0  0  0  0  0
    5.6094   -1.1512   -6.6363 C   0  0  0  0  0  0  0  0  0  0  0  0
    5.1890   -2.2533   -7.5978 C   0  0  0  0  0  0  0  0  0  0  0  0
    3.3362   -0.0705   -5.6520 N   0  0  0  0  0  0  0  0  0  0  0  0
    2.2239    0.4859   -5.1393 C   0  0  0  0  0  0  0  0  0  0  0  0
    0.5381    0.7138   -1.7799 C   0  0  0  0  0  0  0  0  0  0  0  0
   -0.1464    1.5452   -0.8799 C   0  0  0  0  0  0  0  0  0  0  0  0
   -0.5489    2.8413   -1.1192 N   0  0  0  0  0  0  0  0  0  0  0  0
    0.2022    3.6869   -1.9507 C   0  0  0  0  0  0  0  0  0  0  0  0
    1.5916    3.5750   -2.0165 C   0  0  0  0  0  0  0  0  0  0  0  0
    2.2997    4.2844   -2.9580 C   0  0  0  0  0  0  0  0  0  0  0  0
    1.6417    5.1308   -3.8508 C   0  0  0  0  0  0  0  0  0  0  0  0
    2.6163    5.8736   -5.1137 S   0  0  0  0  0  0  0  0  0  0  0  0
    1.3827    6.4065   -6.3328 C   0  0  0  0  0  0  0  0  0  0  0  0
    0.2724    5.3275   -3.7146 C   0  0  0  0  0  0  0  0  0  0  0  0
   -0.4392    4.6098   -2.7750 C   0  0  0  0  0  0  0  0  0  0  0  0
   -1.6574    3.3382   -0.4169 C   0  0  0  0  0  0  0  0  0  0  0  0
   -2.7858    2.5389   -0.2508 C   0  0  0  0  0  0  0  0  0  0  0  0
   -3.8560    2.9786    0.5012 C   0  0  0  0  0  0  0  0  0  0  0  0
   -3.8145    4.2323    1.0971 C   0  0  0  0  0  0  0  0  0  0  0  0
   -5.0983    4.8687    2.1207 S   0  0  0  0  0  0  0  0  0  0  0  0
   -6.0796    3.3942    2.5198 C   0  0  0  0  0  0  0  0  0  0  0  0
   -2.7095    5.0569    0.8855 C   0  0  0  0  0  0  0  0  0  0  0  0
   -1.6407    4.6175    0.1385 C   0  0  0  0  0  0  0  0  0  0  0  0
   -0.2691    0.9197    0.3840 C   0  0  0  0  0  0  0  0  0  0  0  0
   -1.0882    1.3220    1.8589 S   0  0  0  0  0  0  0  0  0  0  0  0
   -0.4781   -0.1386    2.6176 C   0  0  0  0  0  0  0  0  0  0  0  0
    0.2434   -0.9438    1.7207 C   0  0  0  0  0  0  0  0  0  0  0  0
    0.6569   -2.2366    1.9313 N   0  0  0  0  0  0  0  0  0  0  0  0
    1.8083   -2.6676    1.2557 C   0  0  0  0  0  0  0  0  0  0  0  0
    1.8425   -3.9022    0.6083 C   0  0  0  0  0  0  0  0  0  0  0  0
    2.9504   -4.2621   -0.1241 C   0  0  0  0  0  0  0  0  0  0  0  0
    4.0461   -3.4036   -0.2221 C   0  0  0  0  0  0  0  0  0  0  0  0
    5.3749   -3.9437   -1.2461 S   0  0  0  0  0  0  0  0  0  0  0  0
    6.5563   -2.5648   -1.2064 C   0  0  0  0  0  0  0  0  0  0  0  0
    4.0343   -2.1963    0.4647 C   0  0  0  0  0  0  0  0  0  0  0  0
    2.9226   -1.8347    1.1972 C   0  0  0  0  0  0  0  0  0  0  0  0
   -0.0470   -3.1016    2.7687 C   0  0  0  0  0  0  0  0  0  0  0  0
   -1.4359   -2.9974    2.8951 C   0  0  0  0  0  0  0  0  0  0  0  0
   -2.1064   -3.7477    3.8291 C   0  0  0  0  0  0  0  0  0  0  0  0
   -1.4156   -4.6361    4.6593 C   0  0  0  0  0  0  0  0  0  0  0  0
   -2.3627   -5.4528    5.8880 S   0  0  0  0  0  0  0  0  0  0  0  0
   -1.1197   -6.2557    6.9318 C   0  0  0  0  0  0  0  0  0  0  0  0
   -0.0494   -4.8149    4.4650 C   0  0  0  0  0  0  0  0  0  0  0  0
    0.6239   -4.0608    3.5250 C   0  0  0  0  0  0  0  0  0  0  0  0
    0.3691   -0.3082    0.4636 C   0  0  0  0  0  0  0  0  0  0  0  0
    1.1767   -0.7277   -1.0146 S   0  0  0  0  0  0  0  0  0  0  0  0
   -0.7803   -0.3636    3.9822 C   0  0  0  0  0  0  0  0  0  0  0  0
   -1.9821    0.1158    4.5537 C   0  0  0  0  0  0  0  0  0  0  0  0
   -2.4154   -0.2337    5.8894 C   0  0  0  0  0  0  0  0  0  0  0  0
   -3.6586    0.1805    6.1192 N   0  0  0  0  0  0  0  0  0  0  0  0
   -4.1931    0.9928    4.8472 S   0  0  0  0  0  4  0  0  0  0  0  0
   -2.9070    0.8163    3.8961 N   0  0  0  0  0  0  0  0  0  0  0  0
   -1.6091   -0.9889    6.7740 C   0  0  0  0  0  0  0  0  0  0  0  0
   -0.3722   -1.4056    6.2219 C   0  0  0  0  0  0  0  0  0  0  0  0
    0.5756   -2.0619    6.8875 N   0  0  0  0  0  0  0  0  0  0  0  0
    1.8618   -2.2395    5.9369 S   0  0  0  0  0  0  0  0  0  0  0  0
    1.2813   -1.5162    4.6249 N   0  0  0  0  0  0  0  0  0  0  0  0
    0.0414   -1.0908    4.8734 C   0  0  0  0  0  0  0  0  0  0  0  0
   -1.9607   -1.3821    8.0803 C   0  0  0  0  0  0  0  0  0  0  0  0
   -2.8247   -0.7441    8.9375 C   0  0  0  0  0  0  0  0  0  0  0  0
   -3.2009    0.6771    8.8525 C   0  0  0  0  0  0  0  0  0  0  0  0
   -2.8195    1.5102    8.0604 O   0  0  0  0  0  0  0  0  0  0  0  0
   -4.0173    0.9428   10.0653 C   0  0  0  0  0  0  0  0  0  0  0  0
   -4.5837    2.1354   10.4746 C   0  0  0  0  0  0  0  0  0  0  0  0
   -4.5791    3.5136    9.4682 Cl  0  0  0  0  0  0  0  0  0  0  0  0
   -5.1728    2.1903   11.7458 C   0  0  0  0  0  0  0  0  0  0  0  0
   -5.9312    3.6288   12.2753 Cl  0  0  0  0  0  0  0  0  0  0  0  0
   -5.0989    1.0885   12.5942 C   0  0  0  0  0  0  0  0  0  0  0  0
   -5.7250    1.2121   14.1826 Cl  0  0  0  0  0  0  0  0  0  0  0  0
   -4.5089   -0.1162   12.1773 C   0  0  0  0  0  0  0  0  0  0  0  0
   -4.2926   -1.3566   13.3425 Cl  0  0  0  0  0  0  0  0  0  0  0  0
   -4.0374   -0.2108   10.8742 C   0  0  0  0  0  0  0  0  0  0  0  0
   -3.4233   -1.3061   10.1247 C   0  0  0  0  0  0  0  0  0  0  0  0
   -3.5801   -2.6513   10.3583 C   0  0  0  0  0  0  0  0  0  0  0  0
   -4.5062   -3.2457   11.2406 C   0  0  0  0  0  0  0  0  0  0  0  0
   -5.2911   -3.8351   11.8365 N   0  0  0  0  0  0  0  0  0  0  0  0
   -2.9354   -3.6646    9.6197 C   0  0  0  0  0  0  0  0  0  0  0  0
   -2.4353   -4.5627    9.1063 N   0  0  0  0  0  0  0  0  0  0  0  0
    1.7390    2.8535   -7.4692 H   0  0  0  0  0  0  0  0  0  0  0  0
   -0.9020    2.2000   -3.6026 H   0  0  0  0  0  0  0  0  0  0  0  0
    4.0297   -2.0823   -3.0569 H   0  0  0  0  0  0  0  0  0  0  0  0
    6.6982   -1.0914   -6.5631 H   0  0  0  0  0  0  0  0  0  0  0  0
    5.2015   -0.1858   -6.9485 H   0  0  0  0  0  0  0  0  0  0  0  0
    5.4880   -1.9992   -8.6110 H   0  0  0  0  0  0  0  0  0  0  0  0
    5.6499   -3.1959   -7.3144 H   0  0  0  0  0  0  0  0  0  0  0  0
    4.1100   -2.3720   -7.5633 H   0  0  0  0  0  0  0  0  0  0  0  0
    2.1078    2.9067   -1.3440 H   0  0  0  0  0  0  0  0  0  0  0  0
    3.3711    4.1786   -3.0297 H   0  0  0  0  0  0  0  0  0  0  0  0
    0.6690    5.6052   -6.4970 H   0  0  0  0  0  0  0  0  0  0  0  0
    0.8903    7.3155   -5.9993 H   0  0  0  0  0  0  0  0  0  0  0  0
    1.9347    6.5933   -7.2482 H   0  0  0  0  0  0  0  0  0  0  0  0
   -0.2540    6.0171   -4.3537 H   0  0  0  0  0  0  0  0  0  0  0  0
   -1.5093    4.7379   -2.7013 H   0  0  0  0  0  0  0  0  0  0  0  0
   -2.8204    1.5639   -0.7146 H   0  0  0  0  0  0  0  0  0  0  0  0
   -4.7131    2.3357    0.6132 H   0  0  0  0  0  0  0  0  0  0  0  0
   -6.6666    3.0868    1.6589 H   0  0  0  0  0  0  0  0  0  0  0  0
   -5.4167    2.6008    2.8536 H   0  0  0  0  0  0  0  0  0  0  0  0
   -6.7424    3.6902    3.3268 H   0  0  0  0  0  0  0  0  0  0  0  0
   -2.6937    6.0373    1.3356 H   0  0  0  0  0  0  0  0  0  0  0  0
   -0.7759    5.2487    0.0002 H   0  0  0  0  0  0  0  0  0  0  0  0
    0.9877   -4.5591    0.6637 H   0  0  0  0  0  0  0  0  0  0  0  0
    2.9757   -5.2053   -0.6476 H   0  0  0  0  0  0  0  0  0  0  0  0
    7.3549   -2.8486   -1.8850 H   0  0  0  0  0  0  0  0  0  0  0  0
    6.9528   -2.4423   -0.2027 H   0  0  0  0  0  0  0  0  0  0  0  0
    6.0806   -1.6543   -1.5595 H   0  0  0  0  0  0  0  0  0  0  0  0
    4.8796   -1.5288    0.4360 H   0  0  0  0  0  0  0  0  0  0  0  0
    2.9095   -0.8987    1.7347 H   0  0  0  0  0  0  0  0  0  0  0  0
   -1.9809   -2.3109    2.2647 H   0  0  0  0  0  0  0  0  0  0  0  0
   -3.1753   -3.6528    3.9428 H   0  0  0  0  0  0  0  0  0  0  0  0
   -1.6671   -6.6242    7.7928 H   0  0  0  0  0  0  0  0  0  0  0  0
   -0.3930   -5.5182    7.2572 H   0  0  0  0  0  0  0  0  0  0  0  0
   -0.6524   -7.0785    6.3983 H   0  0  0  0  0  0  0  0  0  0  0  0
    0.5036   -5.5274    5.0552 H   0  0  0  0  0  0  0  0  0  0  0  0
    1.6907   -4.1779    3.4060 H   0  0  0  0  0  0  0  0  0  0  0  0
   -1.4374   -2.2609    8.4365 H   0  0  0  0  0  0  0  0  0  0  0  0
  1  2  2  0  0  0  0
  2  3  1  0  0  0  0
  3  4  2  0  0  0  0
  3  5  1  0  0  0  0
  5  6  2  0  0  0  0
  6  7  1  0  0  0  0
  6  8  1  0  0  0  0
  8  9  1  0  0  0  0
  8 10  2  0  0  0  0
 10 11  1  0  0  0  0
 10 12  1  0  0  0  0
 12 13  1  0  0  0  0
 12 14  2  0  0  0  0
 14 15  1  0  0  0  0
 15 16  2  0  0  0  0
 16 17  1  0  0  0  0
 17 18  3  0  0  0  0
 16 19  1  0  0  0  0
 19 20  3  0  0  0  0
  1 21  1  0  0  0  0
 21 22  2  0  0  0  0
 22 23  1  0  0  0  0
 22 24  1  0  0  0  0
 24 25  2  0  0  0  0
 25 26  1  0  0  0  0
 26 27  2  0  0  0  0
 27 28  1  0  0  0  0
 28 29  2  0  0  0  0
 29 30  1  0  0  0  0
 30 31  1  0  0  0  0
 31 32  1  0  0  0  0
 29 33  1  0  0  0  0
 33 34  2  0  0  0  0
 25 35  1  0  0  0  0
 35 36  2  0  0  0  0
 36 37  1  0  0  0  0
 37 38  1  0  0  0  0
 38 39  2  0  0  0  0
 39 40  1  0  0  0  0
 40 41  2  0  0  0  0
 41 42  1  0  0  0  0
 42 43  1  0  0  0  0
 41 44  1  0  0  0  0
 44 45  2  0  0  0  0
 37 46  1  0  0  0  0
 46 47  2  0  0  0  0
 47 48  1  0  0  0  0
 48 49  2  0  0  0  0
 49 50  1  0  0  0  0
 50 51  1  0  0  0  0
 49 52  1  0  0  0  0
 52 53  2  0  0  0  0
 36 54  1  0  0  0  0
 54 55  1  0  0  0  0
 55 56  1  0  0  0  0
 56 57  2  0  0  0  0
 57 58  1  0  0  0  0
 58 59  1  0  0  0  0
 59 60  2  0  0  0  0
 60 61  1  0  0  0  0
 61 62  2  0  0  0  0
 62 63  1  0  0  0  0
 63 64  1  0  0  0  0
 62 65  1  0  0  0  0
 65 66  2  0  0  0  0
 58 67  1  0  0  0  0
 67 68  2  0  0  0  0
 68 69  1  0  0  0  0
 69 70  2  0  0  0  0
 70 71  1  0  0  0  0
 71 72  1  0  0  0  0
 70 73  1  0  0  0  0
 73 74  2  0  0  0  0
 57 75  1  0  0  0  0
 75 76  1  0  0  0  0
 56 77  1  0  0  0  0
 77 78  2  0  0  0  0
 78 79  1  0  0  0  0
 79 80  1  0  0  0  0
 80 81  2  0  0  0  0
 81 82  2  0  0  0  0
 79 83  2  0  0  0  0
 83 84  1  0  0  0  0
 84 85  2  0  0  0  0
 85 86  1  0  0  0  0
 86 87  1  0  0  0  0
 87 88  2  0  0  0  0
 83 89  1  0  0  0  0
 89 90  2  0  0  0  0
 90 91  1  0  0  0  0
 91 92  2  0  0  0  0
 91 93  1  0  0  0  0
 93 94  2  0  0  0  0
 94 95  1  0  0  0  0
 94 96  1  0  0  0  0
 96 97  1  0  0  0  0
 96 98  2  0  0  0  0
 98 99  1  0  0  0  0
 98100  1  0  0  0  0
100101  1  0  0  0  0
100102  2  0  0  0  0
102103  1  0  0  0  0
103104  2  0  0  0  0
104105  1  0  0  0  0
105106  3  0  0  0  0
104107  1  0  0  0  0
107108  3  0  0  0  0
 15  2  1  0  0  0  0
 34 21  1  0  0  0  0
 76 35  1  0  0  0  0
 88 77  1  0  0  0  0
103 90  1  0  0  0  0
 14  5  1  0  0  0  0
 34 26  1  0  0  0  0
 45 38  1  0  0  0  0
 53 46  1  0  0  0  0
 75 54  2  0  0  0  0
 82 78  1  0  0  0  0
 88 84  1  0  0  0  0
102 93  1  0  0  0  0
 66 59  1  0  0  0  0
 74 67  1  0  0  0  0
  1109  1  0  0  0  0
 24110  1  0  0  0  0
 28111  1  0  0  0  0
 31112  1  0  0  0  0
 31113  1  0  0  0  0
 32114  1  0  0  0  0
 32115  1  0  0  0  0
 32116  1  0  0  0  0
 39117  1  0  0  0  0
 40118  1  0  0  0  0
 43119  1  0  0  0  0
 43120  1  0  0  0  0
 43121  1  0  0  0  0
 44122  1  0  0  0  0
 45123  1  0  0  0  0
 47124  1  0  0  0  0
 48125  1  0  0  0  0
 51126  1  0  0  0  0
 51127  1  0  0  0  0
 51128  1  0  0  0  0
 52129  1  0  0  0  0
 53130  1  0  0  0  0
 60131  1  0  0  0  0
 61132  1  0  0  0  0
 64133  1  0  0  0  0
 64134  1  0  0  0  0
 64135  1  0  0  0  0
 65136  1  0  0  0  0
 66137  1  0  0  0  0
 68138  1  0  0  0  0
 69139  1  0  0  0  0
 72140  1  0  0  0  0
 72141  1  0  0  0  0
 72142  1  0  0  0  0
 73143  1  0  0  0  0
 74144  1  0  0  0  0
 89145  1  0  0  0  0
M  END
