145

C          1.82270        1.79720       -7.24640
C          2.20960        0.93700       -8.22470
C          1.99020       -0.52620       -8.17120
O          1.45280       -1.16860       -7.29980
C          2.49610       -1.04400       -9.46770
C          2.57910       -2.35710       -9.89650
Cl         1.90940       -3.63650       -8.98410
C          3.24780       -2.62250      -11.09940
Cl         3.35770       -4.22640      -11.67930
C          3.86870       -1.58550      -11.79480
Cl         4.77610       -1.94770      -13.19940
C          3.77380       -0.25410      -11.35910
Cl         4.71100        0.93210      -12.16940
C          3.00900        0.02440      -10.23090
C          2.66740        1.27680       -9.56250
C          2.62370        2.51920      -10.13920
C          2.36640        3.72740       -9.45550
N          2.20780        4.76570       -8.99100
C          2.67170        2.78020      -11.52690
N          2.57860        3.08280      -12.62990
C          1.47690        1.42400       -5.90680
C          0.39520        2.02310       -5.26560
F         -0.35540        2.89250       -5.97230
C          0.00730        1.75650       -3.96850
C          0.77350        0.90880       -3.17000
C          1.84900        0.21690       -3.80050
N          2.51380       -0.71080       -3.09050
C          3.53800       -1.30500       -3.62130
C          4.00180       -0.92750       -4.91440
O          5.15580       -1.44880       -5.31720
C          5.60940       -1.15120       -6.63630
C          5.18900       -2.25330       -7.59780
N          3.33620       -0.07050       -5.65200
C          2.22390        0.48590       -5.13930
C          0.53810        0.71380       -1.77990
C         -0.14640        1.54520       -0.87990
N         -0.54890        2.84130       -1.11920
C          0.20220        3.68690       -1.95070
C          1.59160        3.57500       -2.01650
C          2.29970        4.28440       -2.95800
C          1.64170        5.13080       -3.85080
S          2.61630        5.87360       -5.11370
C          1.38270        6.40650       -6.33280
C          0.27240        5.32750       -3.71460
C         -0.43920        4.60980       -2.77500
C         -1.65740        3.33820       -0.41690
C         -2.78580        2.53890       -0.25080
C         -3.85600        2.97860        0.50120
C         -3.81450        4.23230        1.09710
S         -5.09830        4.86870        2.12070
C         -6.07960        3.39420        2.51980
C         -2.70950        5.05690        0.88550
C         -1.64070        4.61750        0.13850
C         -0.26910        0.91970        0.38400
S         -1.08820        1.32200        1.85890
C         -0.47810       -0.13860        2.61760
C          0.24340       -0.94380        1.72070
N          0.65690       -2.23660        1.93130
C          1.80830       -2.66760        1.25570
C          1.84250       -3.90220        0.60830
C          2.95040       -4.26210       -0.12410
C          4.04610       -3.40360       -0.22210
S          5.37490       -3.94370       -1.24610
C          6.55630       -2.56480       -1.20640
C          4.03430       -2.19630        0.46470
C          2.92260       -1.83470        1.19720
C         -0.04700       -3.10160        2.76870
C         -1.43590       -2.99740        2.89510
C         -2.10640       -3.74770        3.82910
C         -1.41560       -4.63610        4.65930
S         -2.36270       -5.45280        5.88800
C         -1.11970       -6.25570        6.93180
C         -0.04940       -4.81490        4.46500
C          0.62390       -4.06080        3.52500
C          0.36910       -0.30820        0.46360
S          1.17670       -0.72770       -1.01460
C         -0.78030       -0.36360        3.98220
C         -1.98210        0.11580        4.55370
C         -2.41540       -0.23370        5.88940
N         -3.65860        0.18050        6.11920
S         -4.19310        0.99280        4.84720
N         -2.90700        0.81630        3.89610
C         -1.60910       -0.98890        6.77400
C         -0.37220       -1.40560        6.22190
N          0.57560       -2.06190        6.88750
S          1.86180       -2.23950        5.93690
N          1.28130       -1.51620        4.62490
C          0.04140       -1.09080        4.87340
C         -1.96070       -1.38210        8.08030
C         -2.82470       -0.74410        8.93750
C         -3.20090        0.67710        8.85250
O         -2.81950        1.51020        8.06040
C         -4.01730        0.94280       10.06530
C         -4.58370        2.13540       10.47460
Cl        -4.57910        3.51360        9.46820
C         -5.17280        2.19030       11.74580
Cl        -5.93120        3.62880       12.27530
C         -5.09890        1.08850       12.59420
Cl        -5.72500        1.21210       14.18260
C         -4.50890       -0.11620       12.17730
Cl        -4.29260       -1.35660       13.34250
C         -4.03740       -0.21080       10.87420
C         -3.42330       -1.30610       10.12470
C         -3.58010       -2.65130       10.35830
C         -4.50620       -3.24570       11.24060
N         -5.29110       -3.83510       11.83650
C         -2.93540       -3.66460        9.61970
N         -2.43530       -4.56270        9.10630
H          1.73900        2.85350       -7.46920
H         -0.90200        2.20000       -3.60260
H          4.02970       -2.08230       -3.05690
H          6.69820       -1.09140       -6.56310
H          5.20150       -0.18580       -6.94850
H          5.48800       -1.99920       -8.61100
H          5.64990       -3.19590       -7.31440
H          4.11000       -2.37200       -7.56330
H          2.10780        2.90670       -1.34400
H          3.37110        4.17860       -3.02970
H          0.66900        5.60520       -6.49700
H          0.89030        7.31550       -5.99930
H          1.93470        6.59330       -7.24820
H         -0.25400        6.01710       -4.35370
H         -1.50930        4.73790       -2.70130
H         -2.82040        1.56390       -0.71460
H         -4.71310        2.33570        0.61320
H         -6.66660        3.08680        1.65890
H         -5.41670        2.60080        2.85360
H         -6.74240        3.69020        3.32680
H         -2.69370        6.03730        1.33560
H         -0.77590        5.24870        0.00020
H          0.98770       -4.55910        0.66370
H          2.97570       -5.20530       -0.64760
H          7.35490       -2.84860       -1.88500
H          6.95280       -2.44230       -0.20270
H          6.08060       -1.65430       -1.55950
H          4.87960       -1.52880        0.43600
H          2.90950       -0.89870        1.73470
H         -1.98090       -2.31090        2.26470
H         -3.17530       -3.65280        3.94280
H         -1.66710       -6.62420        7.79280
H         -0.39300       -5.51820        7.25720
H         -0.65240       -7.07850        6.39830
H          0.50360       -5.52740        5.05520
H          1.69070       -4.17790        3.40600
H         -1.43740       -2.26090        8.43650
