123

C         -4.98340        3.51460       -3.85920
C         -3.95310        3.51180       -4.76820
C         -2.85100        2.53220       -4.83050
O         -2.75900        1.46310       -4.27120
C         -1.90610        3.07370       -5.84670
C         -0.63550        2.63070       -6.16350
Cl         0.01120        1.19760       -5.48320
C          0.13920        3.40450       -7.03910
Cl         1.71400        2.89100       -7.46200
C         -0.35430        4.61340       -7.52400
Cl         0.64580        5.58800       -8.51560
C         -1.64750        5.05550       -7.20130
Cl        -2.10890        6.63420       -7.70260
C         -2.45130        4.24290       -6.41070
C         -3.81570        4.40080       -5.90340
C         -4.81750        5.12810       -6.49680
C         -6.11370        5.30320       -5.96700
N         -7.18080        5.52380       -5.60370
C         -4.77240        5.66390       -7.80180
N         -4.87220        6.03660       -8.88290
C         -5.02960        2.79780       -2.65470
C         -6.10220        2.59870       -1.77730
C         -5.62240        1.84080       -0.72170
C         -4.26320        1.63620       -0.97580
O         -3.92920        2.20370       -2.14080
C         -3.26980        0.96930       -0.22430
C         -1.88840        0.97320       -0.44200
N         -1.17320        1.76190       -1.31000
C         -0.03830        1.15940       -1.89790
C         -0.16760       -0.09520       -2.49280
C          0.93370       -0.71900       -3.03100
C          2.18660       -0.10500       -2.98830
S          3.51440       -0.99800       -3.71580
C          4.96410        0.05660       -3.44490
C          2.31400        1.14910       -2.40220
C          1.20770        1.77540       -1.86210
C         -1.49050        3.08980       -1.57890
C         -2.22580        3.85930       -0.67170
C         -2.60090        5.14260       -0.99060
C         -2.23540        5.70900       -2.21210
S         -2.83530        7.33430       -2.53290
C         -2.29020        7.68070       -4.22730
C         -1.43560        4.98050       -3.08140
C         -1.07120        3.68600       -2.76710
C         -1.25690        0.03650        0.41210
S          0.39110       -0.40840        0.64850
C         -0.07940       -1.50020        1.94640
C         -1.44920       -1.47310        2.21090
N         -2.10690       -2.14970        3.21410
C         -3.42900       -2.56800        2.97850
C         -4.41870       -2.39520        3.94590
C         -5.70870       -2.80150        3.69380
C         -6.04490       -3.38270        2.47080
S         -7.73090       -3.85260        2.26570
C         -7.81480       -4.45830        0.55660
C         -5.06070       -3.56040        1.50780
C         -3.76430       -3.15870        1.76380
C         -1.54380       -2.30380        4.48750
C         -1.83810       -3.43340        5.24790
C         -1.28080       -3.60860        6.49960
C         -0.41000       -2.65630        7.01370
S          0.37510       -2.77100        8.58690
C         -0.17080       -4.37600        9.23570
C         -0.12240       -1.51930        6.25930
C         -0.68280       -1.34120        5.01530
C         -2.10430       -0.60710        1.29940
S         -3.74810       -0.09540        1.09200
C          0.99860       -2.25070        2.47940
C          1.12540       -3.35040        3.32540
C          2.48100       -3.65230        3.38410
C          3.14080       -2.73550        2.56650
O          2.21270       -1.89240        2.02920
C          4.46020       -2.48810        2.15360
C          5.64610       -3.09120        2.47850
C          5.86450       -4.20650        3.43550
O          5.03850       -4.80890        4.08780
C          7.31770       -4.43230        3.43010
C          8.19830       -5.25840        4.04730
S          9.81060       -4.93400        3.52310
C          9.29230       -3.67610        2.46290
C          7.94110       -3.52110        2.51870
C          6.92170       -2.68740        1.91390
C          7.18280       -1.71940        0.97480
C          8.49950       -1.46860        0.53570
N          9.56090       -1.24500        0.16020
C          6.25770       -0.87910        0.33250
N          5.58680       -0.14550       -0.24640
H         -5.83970        4.14950       -4.03530
H         -7.09970        2.96220       -1.91950
H         -6.15790        1.48580        0.13540
H         -1.14190       -0.55710       -2.54490
H          0.84060       -1.68640       -3.50060
H          4.82360        1.01300       -3.93950
H          5.13990        0.17240       -2.37840
H          5.79610       -0.47240       -3.90000
H          3.27110        1.64000       -2.34560
H          1.31070        2.74540       -1.39830
H         -2.51000        3.44410        0.28350
H         -3.18610        5.72710       -0.29730
H         -2.69730        6.93760       -4.90570
H         -1.20560        7.70740       -4.27720
H         -2.69260        8.65960       -4.46870
H         -1.09800        5.40020       -4.01600
H         -0.45550        3.12700       -3.45250
H         -4.16930       -1.93360        4.88920
H         -6.47860       -2.66480        4.43730
H         -7.20080       -5.34720        0.44430
H         -8.85740       -4.70910        0.38790
H         -7.50830       -3.67410       -0.12920
H         -5.28480       -4.01540        0.55700
H         -3.00010       -3.30870        1.01520
H         -2.50460       -4.18480        4.85060
H         -1.52920       -4.49670        7.05730
H          0.14930       -5.17300        8.57120
H          0.31890       -4.48130       10.19880
H         -1.24860       -4.37810        9.36970
H          0.54340       -0.77500        6.66780
H         -0.46170       -0.44960        4.44910
H          0.33330       -3.87110        3.82040
H          2.94940       -4.43820        3.93920
H          4.50850       -1.66370        1.45110
H          8.01200       -6.02850        4.76860
H         10.01990       -3.14660        1.88140
