
  xtb     02102223043D
 energy: -295.121377185025 gnorm: 0.000503570373 xtb: 6.4.1 (unknown)
152167  0     0  0            999 V2000
   -9.6366    6.7449   -1.9102 C   0  0  0  0  0  0  0  0  0  0  0  0
  -10.1368    6.6596   -3.1643 C   0  0  0  0  0  0  0  0  0  0  0  0
  -10.0835    5.4699   -4.0597 C   0  0  0  0  0  0  0  0  0  0  0  0
   -9.7962    4.3364   -3.7647 O   0  0  0  0  0  0  0  0  0  0  0  0
  -10.5287    5.9636   -5.3844 C   0  0  0  0  0  0  0  0  0  0  0  0
  -10.5066    5.3010   -6.6003 C   0  0  0  0  0  0  0  0  0  0  0  0
  -10.0495    3.6614   -6.7110 Cl  0  0  0  0  0  0  0  0  0  0  0  0
  -10.8550    6.0215   -7.7520 C   0  0  0  0  0  0  0  0  0  0  0  0
  -10.8686    5.2420   -9.2721 Cl  0  0  0  0  0  0  0  0  0  0  0  0
  -11.1490    7.3829   -7.6655 C   0  0  0  0  0  0  0  0  0  0  0  0
  -11.4766    8.2596   -9.0963 Cl  0  0  0  0  0  0  0  0  0  0  0  0
  -11.1677    8.0490   -6.4300 C   0  0  0  0  0  0  0  0  0  0  0  0
  -11.3675    9.7520   -6.4210 Cl  0  0  0  0  0  0  0  0  0  0  0  0
  -10.9225    7.3132   -5.2758 C   0  0  0  0  0  0  0  0  0  0  0  0
  -10.9086    7.6852   -3.8656 C   0  0  0  0  0  0  0  0  0  0  0  0
  -11.6454    8.6740   -3.2766 C   0  0  0  0  0  0  0  0  0  0  0  0
  -12.6676    9.4206   -3.9064 C   0  0  0  0  0  0  0  0  0  0  0  0
  -13.5795    9.9979   -4.2945 N   0  0  0  0  0  0  0  0  0  0  0  0
  -11.6173    8.9840   -1.8976 C   0  0  0  0  0  0  0  0  0  0  0  0
  -11.6422    9.3092   -0.7972 N   0  0  0  0  0  0  0  0  0  0  0  0
   -8.8050    5.7747   -1.2354 C   0  0  0  0  0  0  0  0  0  0  0  0
   -7.8104    5.0430   -1.9047 C   0  0  0  0  0  0  0  0  0  0  0  0
   -7.0540    4.1523   -1.1841 C   0  0  0  0  0  0  0  0  0  0  0  0
   -5.9121    3.3126   -1.6380 C   0  0  0  0  0  0  0  0  0  0  0  0
   -5.4135    3.2664   -2.7382 O   0  0  0  0  0  0  0  0  0  0  0  0
   -5.4815    2.5898   -0.4141 C   0  0  0  0  0  0  0  0  0  0  0  0
   -6.3004    2.9651    0.6698 C   0  0  0  0  0  0  0  0  0  0  0  0
   -7.2660    3.9452    0.1962 C   0  0  0  0  0  0  0  0  0  0  0  0
   -8.2218    4.6875    0.8647 C   0  0  0  0  0  0  0  0  0  0  0  0
   -8.9651    5.6101    0.1461 C   0  0  0  0  0  0  0  0  0  0  0  0
   -6.0731    2.4281    1.9229 C   0  0  0  0  0  0  0  0  0  0  0  0
   -4.9777    1.5977    2.1023 C   0  0  0  0  0  0  0  0  0  0  0  0
   -4.1109    1.2945    1.0489 C   0  0  0  0  0  0  0  0  0  0  0  0
   -4.4093    1.7493   -0.2429 C   0  0  0  0  0  0  0  0  0  0  0  0
   -2.8504    0.6166    1.2747 C   0  0  0  0  0  0  0  0  0  0  0  0
   -1.9041    0.8929    2.2458 C   0  0  0  0  0  0  0  0  0  0  0  0
   -2.0165    1.8704    3.2253 N   0  0  0  0  0  0  0  0  0  0  0  0
   -1.4526    1.6451    4.4857 C   0  0  0  0  0  0  0  0  0  0  0  0
   -0.8840    2.6960    5.2072 C   0  0  0  0  0  0  0  0  0  0  0  0
   -0.3155    2.4632    6.4380 C   0  0  0  0  0  0  0  0  0  0  0  0
   -0.2907    1.1776    6.9779 C   0  0  0  0  0  0  0  0  0  0  0  0
    0.4772    1.0068    8.5581 S   0  0  0  0  0  0  0  0  0  0  0  0
    0.4431   -0.7812    8.8715 C   0  0  0  0  0  0  0  0  0  0  0  0
   -0.8615    0.1310    6.2682 C   0  0  0  0  0  0  0  0  0  0  0  0
   -1.4411    0.3663    5.0362 C   0  0  0  0  0  0  0  0  0  0  0  0
   -2.6852    3.0675    2.9360 C   0  0  0  0  0  0  0  0  0  0  0  0
   -3.5335    3.6567    3.8745 C   0  0  0  0  0  0  0  0  0  0  0  0
   -4.2957    4.7502    3.5296 C   0  0  0  0  0  0  0  0  0  0  0  0
   -4.2368    5.2793    2.2418 C   0  0  0  0  0  0  0  0  0  0  0  0
   -5.3558    6.5949    1.8762 S   0  0  0  0  0  0  0  0  0  0  0  0
   -5.0330    6.9806    0.1341 C   0  0  0  0  0  0  0  0  0  0  0  0
   -3.3371    4.7453    1.3294 C   0  0  0  0  0  0  0  0  0  0  0  0
   -2.5643    3.6572    1.6801 C   0  0  0  0  0  0  0  0  0  0  0  0
   -0.7314    0.1193    2.0395 C   0  0  0  0  0  0  0  0  0  0  0  0
    0.7829   -0.0180    2.8594 S   0  0  0  0  0  0  0  0  0  0  0  0
    1.3800   -1.1109    1.6201 C   0  0  0  0  0  0  0  0  0  0  0  0
    0.4250   -1.4048    0.6609 C   0  0  0  0  0  0  0  0  0  0  0  0
    0.5530   -2.3014   -0.3866 N   0  0  0  0  0  0  0  0  0  0  0  0
    1.3948   -3.4175   -0.2989 C   0  0  0  0  0  0  0  0  0  0  0  0
    1.5281   -4.1287    0.8951 C   0  0  0  0  0  0  0  0  0  0  0  0
    2.4719   -5.1237    1.0071 C   0  0  0  0  0  0  0  0  0  0  0  0
    3.2860   -5.4522   -0.0757 C   0  0  0  0  0  0  0  0  0  0  0  0
    4.5471   -6.6525    0.2194 S   0  0  0  0  0  0  0  0  0  0  0  0
    5.4135   -6.7692   -1.3705 C   0  0  0  0  0  0  0  0  0  0  0  0
    3.0845   -4.8202   -1.2946 C   0  0  0  0  0  0  0  0  0  0  0  0
    2.1520   -3.8083   -1.4005 C   0  0  0  0  0  0  0  0  0  0  0  0
   -0.1471   -2.0454   -1.5776 C   0  0  0  0  0  0  0  0  0  0  0  0
   -0.7733   -3.0858   -2.2643 C   0  0  0  0  0  0  0  0  0  0  0  0
   -1.5140   -2.8215   -3.3934 C   0  0  0  0  0  0  0  0  0  0  0  0
   -1.6544   -1.5149   -3.8607 C   0  0  0  0  0  0  0  0  0  0  0  0
   -2.6671   -1.2841   -5.2862 S   0  0  0  0  0  0  0  0  0  0  0  0
   -3.0133    0.4987   -5.2829 C   0  0  0  0  0  0  0  0  0  0  0  0
   -0.9965   -0.4828   -3.2060 C   0  0  0  0  0  0  0  0  0  0  0  0
   -0.2452   -0.7496   -2.0777 C   0  0  0  0  0  0  0  0  0  0  0  0
   -0.7734   -0.6843    0.9136 C   0  0  0  0  0  0  0  0  0  0  0  0
   -2.2829   -0.5405    0.0865 S   0  0  0  0  0  0  0  0  0  0  0  0
    2.7180   -1.6535    1.7273 C   0  0  0  0  0  0  0  0  0  0  0  0
    3.5022   -1.8292    0.5743 C   0  0  0  0  0  0  0  0  0  0  0  0
    4.6773   -2.5313    0.6818 C   0  0  0  0  0  0  0  0  0  0  0  0
    5.6135   -2.9557   -0.3904 C   0  0  0  0  0  0  0  0  0  0  0  0
    5.5223   -2.7598   -1.5793 O   0  0  0  0  0  0  0  0  0  0  0  0
    6.6592   -3.7375    0.3228 C   0  0  0  0  0  0  0  0  0  0  0  0
    6.3431   -3.7963    1.6959 C   0  0  0  0  0  0  0  0  0  0  0  0
    5.1238   -3.0353    1.9205 C   0  0  0  0  0  0  0  0  0  0  0  0
    4.4083   -2.7668    3.0715 C   0  0  0  0  0  0  0  0  0  0  0  0
    3.2109   -2.0763    2.9624 C   0  0  0  0  0  0  0  0  0  0  0  0
    7.1344   -4.5395    2.5523 C   0  0  0  0  0  0  0  0  0  0  0  0
    8.2380   -5.1963    2.0325 C   0  0  0  0  0  0  0  0  0  0  0  0
    8.5960   -5.0862    0.6834 C   0  0  0  0  0  0  0  0  0  0  0  0
    7.7707   -4.3588   -0.1891 C   0  0  0  0  0  0  0  0  0  0  0  0
    9.7844   -5.7738    0.2337 C   0  0  0  0  0  0  0  0  0  0  0  0
   10.6549   -5.3622   -0.7165 C   0  0  0  0  0  0  0  0  0  0  0  0
   10.6672   -4.0373   -1.3986 C   0  0  0  0  0  0  0  0  0  0  0  0
   10.0887   -3.0319   -1.0695 O   0  0  0  0  0  0  0  0  0  0  0  0
   11.6059   -4.1982   -2.5347 C   0  0  0  0  0  0  0  0  0  0  0  0
   11.8428   -3.3263   -3.5841 C   0  0  0  0  0  0  0  0  0  0  0  0
   11.1224   -1.7808   -3.6355 Cl  0  0  0  0  0  0  0  0  0  0  0  0
   12.6811   -3.7557   -4.6232 C   0  0  0  0  0  0  0  0  0  0  0  0
   13.0204   -2.7092   -5.9302 Cl  0  0  0  0  0  0  0  0  0  0  0  0
   13.2045   -5.0494   -4.6137 C   0  0  0  0  0  0  0  0  0  0  0  0
   14.1472   -5.5790   -5.9380 Cl  0  0  0  0  0  0  0  0  0  0  0  0
   12.9609   -5.9278   -3.5463 C   0  0  0  0  0  0  0  0  0  0  0  0
   13.4968   -7.5511   -3.6816 Cl  0  0  0  0  0  0  0  0  0  0  0  0
   12.2088   -5.4711   -2.4700 C   0  0  0  0  0  0  0  0  0  0  0  0
   11.8118   -6.1044   -1.2172 C   0  0  0  0  0  0  0  0  0  0  0  0
   12.5076   -7.0573   -0.5288 C   0  0  0  0  0  0  0  0  0  0  0  0
   13.8119   -7.5044   -0.8413 C   0  0  0  0  0  0  0  0  0  0  0  0
   14.8995   -7.8504   -0.9531 N   0  0  0  0  0  0  0  0  0  0  0  0
   12.0961   -7.6127    0.7047 C   0  0  0  0  0  0  0  0  0  0  0  0
   11.8253   -8.1170    1.6993 N   0  0  0  0  0  0  0  0  0  0  0  0
   -9.8654    7.6279   -1.3262 H   0  0  0  0  0  0  0  0  0  0  0  0
   -7.6111    5.1992   -2.9527 H   0  0  0  0  0  0  0  0  0  0  0  0
   -8.3768    4.5696    1.9257 H   0  0  0  0  0  0  0  0  0  0  0  0
   -9.7111    6.2031    0.6550 H   0  0  0  0  0  0  0  0  0  0  0  0
   -6.7146    2.6682    2.7565 H   0  0  0  0  0  0  0  0  0  0  0  0
   -4.7773    1.1846    3.0793 H   0  0  0  0  0  0  0  0  0  0  0  0
   -3.7698    1.4926   -1.0745 H   0  0  0  0  0  0  0  0  0  0  0  0
   -0.8856    3.6915    4.7897 H   0  0  0  0  0  0  0  0  0  0  0  0
    0.1286    3.2736    6.9951 H   0  0  0  0  0  0  0  0  0  0  0  0
    0.9645   -1.3058    8.0763 H   0  0  0  0  0  0  0  0  0  0  0  0
    0.9670   -0.9219    9.8117 H   0  0  0  0  0  0  0  0  0  0  0  0
   -0.5826   -1.1256    8.9679 H   0  0  0  0  0  0  0  0  0  0  0  0
   -0.8723   -0.8720    6.6630 H   0  0  0  0  0  0  0  0  0  0  0  0
   -1.8972   -0.4524    4.4987 H   0  0  0  0  0  0  0  0  0  0  0  0
   -3.6106    3.2339    4.8650 H   0  0  0  0  0  0  0  0  0  0  0  0
   -4.9700    5.1925    4.2466 H   0  0  0  0  0  0  0  0  0  0  0  0
   -5.7426    7.7596   -0.1271 H   0  0  0  0  0  0  0  0  0  0  0  0
   -5.2081    6.1032   -0.4821 H   0  0  0  0  0  0  0  0  0  0  0  0
   -4.0192    7.3524    0.0169 H   0  0  0  0  0  0  0  0  0  0  0  0
   -3.2324    5.1594    0.3397 H   0  0  0  0  0  0  0  0  0  0  0  0
   -1.8735    3.2433    0.9607 H   0  0  0  0  0  0  0  0  0  0  0  0
    0.9060   -3.8780    1.7409 H   0  0  0  0  0  0  0  0  0  0  0  0
    2.6002   -5.6525    1.9390 H   0  0  0  0  0  0  0  0  0  0  0  0
    5.7766   -5.7896   -1.6659 H   0  0  0  0  0  0  0  0  0  0  0  0
    6.2505   -7.4389   -1.1984 H   0  0  0  0  0  0  0  0  0  0  0  0
    4.7523   -7.1903   -2.1224 H   0  0  0  0  0  0  0  0  0  0  0  0
    3.6680   -5.0754   -2.1631 H   0  0  0  0  0  0  0  0  0  0  0  0
    2.0356   -3.2913   -2.3410 H   0  0  0  0  0  0  0  0  0  0  0  0
   -0.6865   -4.0958   -1.8928 H   0  0  0  0  0  0  0  0  0  0  0  0
   -2.0124   -3.6214   -3.9188 H   0  0  0  0  0  0  0  0  0  0  0  0
   -3.7804    0.6482   -6.0362 H   0  0  0  0  0  0  0  0  0  0  0  0
   -2.1228    1.0587   -5.5532 H   0  0  0  0  0  0  0  0  0  0  0  0
   -3.3917    0.7990   -4.3107 H   0  0  0  0  0  0  0  0  0  0  0  0
   -1.0578    0.5316   -3.5657 H   0  0  0  0  0  0  0  0  0  0  0  0
    0.2704    0.0572   -1.5768 H   0  0  0  0  0  0  0  0  0  0  0  0
    3.1887   -1.4274   -0.3763 H   0  0  0  0  0  0  0  0  0  0  0  0
    4.7518   -3.1108    4.0351 H   0  0  0  0  0  0  0  0  0  0  0  0
    2.6166   -1.8924    3.8461 H   0  0  0  0  0  0  0  0  0  0  0  0
    6.8966   -4.6211    3.6017 H   0  0  0  0  0  0  0  0  0  0  0  0
    8.8639   -5.7852    2.6874 H   0  0  0  0  0  0  0  0  0  0  0  0
    7.9822   -4.3102   -1.2455 H   0  0  0  0  0  0  0  0  0  0  0  0
    9.9740   -6.7196    0.7264 H   0  0  0  0  0  0  0  0  0  0  0  0
  1  2  2  0  0  0  0
  2  3  1  0  0  0  0
  3  4  2  0  0  0  0
  3  5  1  0  0  0  0
  5  6  2  0  0  0  0
  6  7  1  0  0  0  0
  6  8  1  0  0  0  0
  8  9  1  0  0  0  0
  8 10  2  0  0  0  0
 10 11  1  0  0  0  0
 10 12  1  0  0  0  0
 12 13  1  0  0  0  0
 12 14  2  0  0  0  0
 14 15  1  0  0  0  0
 15 16  2  0  0  0  0
 16 17  1  0  0  0  0
 17 18  3  0  0  0  0
 16 19  1  0  0  0  0
 19 20  3  0  0  0  0
  1 21  1  0  0  0  0
 21 22  2  0  0  0  0
 22 23  1  0  0  0  0
 23 24  1  0  0  0  0
 24 25  2  0  0  0  0
 24 26  1  0  0  0  0
 26 27  2  0  0  0  0
 27 28  1  0  0  0  0
 28 29  1  0  0  0  0
 29 30  2  0  0  0  0
 27 31  1  0  0  0  0
 31 32  2  0  0  0  0
 32 33  1  0  0  0  0
 33 34  2  0  0  0  0
 33 35  1  0  0  0  0
 35 36  2  0  0  0  0
 36 37  1  0  0  0  0
 37 38  1  0  0  0  0
 38 39  2  0  0  0  0
 39 40  1  0  0  0  0
 40 41  2  0  0  0  0
 41 42  1  0  0  0  0
 42 43  1  0  0  0  0
 41 44  1  0  0  0  0
 44 45  2  0  0  0  0
 37 46  1  0  0  0  0
 46 47  2  0  0  0  0
 47 48  1  0  0  0  0
 48 49  2  0  0  0  0
 49 50  1  0  0  0  0
 50 51  1  0  0  0  0
 49 52  1  0  0  0  0
 52 53  2  0  0  0  0
 36 54  1  0  0  0  0
 54 55  1  0  0  0  0
 55 56  1  0  0  0  0
 56 57  2  0  0  0  0
 57 58  1  0  0  0  0
 58 59  1  0  0  0  0
 59 60  2  0  0  0  0
 60 61  1  0  0  0  0
 61 62  2  0  0  0  0
 62 63  1  0  0  0  0
 63 64  1  0  0  0  0
 62 65  1  0  0  0  0
 65 66  2  0  0  0  0
 58 67  1  0  0  0  0
 67 68  2  0  0  0  0
 68 69  1  0  0  0  0
 69 70  2  0  0  0  0
 70 71  1  0  0  0  0
 71 72  1  0  0  0  0
 70 73  1  0  0  0  0
 73 74  2  0  0  0  0
 57 75  1  0  0  0  0
 75 76  1  0  0  0  0
 56 77  1  0  0  0  0
 77 78  2  0  0  0  0
 78 79  1  0  0  0  0
 79 80  1  0  0  0  0
 80 81  2  0  0  0  0
 80 82  1  0  0  0  0
 82 83  2  0  0  0  0
 83 84  1  0  0  0  0
 84 85  1  0  0  0  0
 85 86  2  0  0  0  0
 83 87  1  0  0  0  0
 87 88  2  0  0  0  0
 88 89  1  0  0  0  0
 89 90  2  0  0  0  0
 89 91  1  0  0  0  0
 91 92  2  0  0  0  0
 92 93  1  0  0  0  0
 93 94  2  0  0  0  0
 93 95  1  0  0  0  0
 95 96  2  0  0  0  0
 96 97  1  0  0  0  0
 96 98  1  0  0  0  0
 98 99  1  0  0  0  0
 98100  2  0  0  0  0
100101  1  0  0  0  0
100102  1  0  0  0  0
102103  1  0  0  0  0
102104  2  0  0  0  0
104105  1  0  0  0  0
105106  2  0  0  0  0
106107  1  0  0  0  0
107108  3  0  0  0  0
106109  1  0  0  0  0
109110  3  0  0  0  0
 15  2  1  0  0  0  0
 30 21  1  0  0  0  0
 76 35  1  0  0  0  0
 86 77  1  0  0  0  0
105 92  1  0  0  0  0
 14  5  1  0  0  0  0
 28 23  2  0  0  0  0
 45 38  1  0  0  0  0
 53 46  1  0  0  0  0
 75 54  2  0  0  0  0
 84 79  2  0  0  0  0
104 95  1  0  0  0  0
 34 26  1  0  0  0  0
 66 59  1  0  0  0  0
 74 67  1  0  0  0  0
 90 82  1  0  0  0  0
  1111  1  0  0  0  0
 22112  1  0  0  0  0
 29113  1  0  0  0  0
 30114  1  0  0  0  0
 31115  1  0  0  0  0
 32116  1  0  0  0  0
 34117  1  0  0  0  0
 39118  1  0  0  0  0
 40119  1  0  0  0  0
 43120  1  0  0  0  0
 43121  1  0  0  0  0
 43122  1  0  0  0  0
 44123  1  0  0  0  0
 45124  1  0  0  0  0
 47125  1  0  0  0  0
 48126  1  0  0  0  0
 51127  1  0  0  0  0
 51128  1  0  0  0  0
 51129  1  0  0  0  0
 52130  1  0  0  0  0
 53131  1  0  0  0  0
 60132  1  0  0  0  0
 61133  1  0  0  0  0
 64134  1  0  0  0  0
 64135  1  0  0  0  0
 64136  1  0  0  0  0
 65137  1  0  0  0  0
 66138  1  0  0  0  0
 68139  1  0  0  0  0
 69140  1  0  0  0  0
 72141  1  0  0  0  0
 72142  1  0  0  0  0
 72143  1  0  0  0  0
 73144  1  0  0  0  0
 74145  1  0  0  0  0
 78146  1  0  0  0  0
 85147  1  0  0  0  0
 86148  1  0  0  0  0
 87149  1  0  0  0  0
 88150  1  0  0  0  0
 90151  1  0  0  0  0
 91152  1  0  0  0  0
M  END
