
  xtb     02032223283D
 energy: -360.951340307255 gnorm: 0.001706881360 xtb: 6.4.1 (unknown)
200219  0     0  0            999 V2000
  -11.1725    4.9478    2.4396 C   0  0  0  0  0  0  0  0  0  0  0  0
  -12.3761    4.3874    2.7839 C   0  0  0  0  0  0  0  0  0  0  0  0
  -12.7787    2.9682    2.7820 C   0  0  0  0  0  0  0  0  0  0  0  0
  -12.1034    1.9782    2.6044 O   0  0  0  0  0  0  0  0  0  0  0  0
  -14.2380    2.9668    3.0496 C   0  0  0  0  0  0  0  0  0  0  0  0
  -15.1102    1.8930    3.0372 C   0  0  0  0  0  0  0  0  0  0  0  0
  -14.5510    0.2923    2.8605 Cl  0  0  0  0  0  0  0  0  0  0  0  0
  -16.4814    2.1527    3.1652 C   0  0  0  0  0  0  0  0  0  0  0  0
  -17.5977    0.8569    3.1910 Cl  0  0  0  0  0  0  0  0  0  0  0  0
  -16.9397    3.4678    3.2243 C   0  0  0  0  0  0  0  0  0  0  0  0
  -18.6243    3.7644    3.2712 Cl  0  0  0  0  0  0  0  0  0  0  0  0
  -16.0486    4.5530    3.2322 C   0  0  0  0  0  0  0  0  0  0  0  0
  -16.6947    6.1384    3.1201 Cl  0  0  0  0  0  0  0  0  0  0  0  0
  -14.6843    4.2900    3.2236 C   0  0  0  0  0  0  0  0  0  0  0  0
  -13.5106    5.1586    3.2736 C   0  0  0  0  0  0  0  0  0  0  0  0
  -13.4561    6.3836    3.8854 C   0  0  0  0  0  0  0  0  0  0  0  0
  -12.3228    7.2252    3.9490 C   0  0  0  0  0  0  0  0  0  0  0  0
  -11.4712    7.9899    4.0420 N   0  0  0  0  0  0  0  0  0  0  0  0
  -14.4714    6.9240    4.7056 C   0  0  0  0  0  0  0  0  0  0  0  0
  -15.1841    7.3923    5.4736 N   0  0  0  0  0  0  0  0  0  0  0  0
   -9.9740    4.3742    1.9765 C   0  0  0  0  0  0  0  0  0  0  0  0
   -9.6363    3.0838    1.6344 C   0  0  0  0  0  0  0  0  0  0  0  0
   -8.2991    2.9223    1.2442 C   0  0  0  0  0  0  0  0  0  0  0  0
   -7.6498    1.7167    0.8703 C   0  0  0  0  0  0  0  0  0  0  0  0
   -8.3109    0.4340    0.9243 C   0  0  0  0  0  0  0  0  0  0  0  0
   -8.1295   -0.6576    0.1130 C   0  0  0  0  0  0  0  0  0  0  0  0
   -8.9338   -1.7526    0.4705 C   0  0  0  0  0  0  0  0  0  0  0  0
   -9.7170   -1.5187    1.5652 C   0  0  0  0  0  0  0  0  0  0  0  0
  -10.7395   -2.4088    2.1878 C   0  0  0  0  0  0  0  0  0  0  0  0
  -10.8900   -2.1597    3.6850 C   0  0  0  0  0  0  0  0  0  0  0  0
   -9.4645    0.0714    2.1771 S   0  0  0  0  0  0  0  0  0  0  0  0
   -6.3154    1.8400    0.5091 C   0  0  0  0  0  0  0  0  0  0  0  0
   -5.5813    3.0520    0.5928 C   0  0  0  0  0  0  0  0  0  0  0  0
   -6.2279    4.2556    0.9553 C   0  0  0  0  0  0  0  0  0  0  0  0
   -5.5481    5.5321    1.0266 C   0  0  0  0  0  0  0  0  0  0  0  0
   -6.0642    6.7583    0.7011 C   0  0  0  0  0  0  0  0  0  0  0  0
   -5.1669    7.8199    0.9118 C   0  0  0  0  0  0  0  0  0  0  0  0
   -3.9650    7.4219    1.4129 C   0  0  0  0  0  0  0  0  0  0  0  0
   -2.7605    8.2551    1.6818 C   0  0  0  0  0  0  0  0  0  0  0  0
   -1.9271    8.4066    0.4060 C   0  0  0  0  0  0  0  0  0  0  0  0
   -3.9171    5.7061    1.6206 S   0  0  0  0  0  0  0  0  0  0  0  0
   -7.5828    4.1528    1.2525 C   0  0  0  0  0  0  0  0  0  0  0  0
   -8.6023    5.4619    1.7699 S   0  0  0  0  0  0  0  0  0  0  0  0
   -4.2149    2.8467    0.3229 C   0  0  0  0  0  0  0  0  0  0  0  0
   -3.8736    1.5422    0.0647 C   0  0  0  0  0  0  0  0  0  0  0  0
   -5.2885    0.5147    0.0355 S   0  0  0  0  0  0  0  0  0  0  0  0
   -2.5419    1.0934   -0.1554 C   0  0  0  0  0  0  0  0  0  0  0  0
   -1.9746   -0.1738   -0.2758 C   0  0  0  0  0  0  0  0  0  0  0  0
   -2.6108   -1.4020   -0.2061 N   0  0  0  0  0  0  0  0  0  0  0  0
   -3.5895   -1.6803    0.7558 C   0  0  0  0  0  0  0  0  0  0  0  0
   -3.5848   -1.0579    2.0042 C   0  0  0  0  0  0  0  0  0  0  0  0
   -4.5874   -1.3203    2.9120 C   0  0  0  0  0  0  0  0  0  0  0  0
   -5.6049   -2.2183    2.6012 C   0  0  0  0  0  0  0  0  0  0  0  0
   -6.8621   -2.4646    3.8126 S   0  0  0  0  0  0  0  0  0  0  0  0
   -7.5679   -4.0714    3.3409 C   0  0  0  0  0  0  0  0  0  0  0  0
   -5.6004   -2.8573    1.3677 C   0  0  0  0  0  0  0  0  0  0  0  0
   -4.6011   -2.5912    0.4565 C   0  0  0  0  0  0  0  0  0  0  0  0
   -2.0466   -2.4670   -0.9283 C   0  0  0  0  0  0  0  0  0  0  0  0
   -1.6183   -2.2756   -2.2409 C   0  0  0  0  0  0  0  0  0  0  0  0
   -0.9538   -3.2802   -2.9163 C   0  0  0  0  0  0  0  0  0  0  0  0
   -0.7201   -4.4986   -2.2936 C   0  0  0  0  0  0  0  0  0  0  0  0
    0.1952   -5.8018   -3.0684 S   0  0  0  0  0  0  0  0  0  0  0  0
    1.4703   -4.8784   -3.9749 C   0  0  0  0  0  0  0  0  0  0  0  0
   -1.2185   -4.7218   -1.0135 C   0  0  0  0  0  0  0  0  0  0  0  0
   -1.8672   -3.7159   -0.3335 C   0  0  0  0  0  0  0  0  0  0  0  0
   -0.5722   -0.0756   -0.4715 C   0  0  0  0  0  0  0  0  0  0  0  0
    0.6862   -1.2353   -0.6907 S   0  0  0  0  0  0  0  0  0  0  0  0
    1.9046    0.0399   -0.7681 C   0  0  0  0  0  0  0  0  0  0  0  0
    1.3386    1.3034   -0.6415 C   0  0  0  0  0  0  0  0  0  0  0  0
    1.9889    2.5302   -0.6320 N   0  0  0  0  0  0  0  0  0  0  0  0
    2.9042    2.8961   -1.6206 C   0  0  0  0  0  0  0  0  0  0  0  0
    2.8503    2.3368   -2.8950 C   0  0  0  0  0  0  0  0  0  0  0  0
    3.7659    2.6988   -3.8638 C   0  0  0  0  0  0  0  0  0  0  0  0
    4.7463    3.6381   -3.5801 C   0  0  0  0  0  0  0  0  0  0  0  0
    5.9503    4.1754   -4.7546 S   0  0  0  0  0  0  0  0  0  0  0  0
    6.0439    2.7757   -5.9070 C   0  0  0  0  0  0  0  0  0  0  0  0
    4.7951    4.2116   -2.3117 C   0  0  0  0  0  0  0  0  0  0  0  0
    3.8967    3.8388   -1.3407 C   0  0  0  0  0  0  0  0  0  0  0  0
    1.5414    3.4726    0.3080 C   0  0  0  0  0  0  0  0  0  0  0  0
    1.2141    3.0564    1.5994 C   0  0  0  0  0  0  0  0  0  0  0  0
    0.7709    3.9655    2.5343 C   0  0  0  0  0  0  0  0  0  0  0  0
    0.6651    5.3131    2.2070 C   0  0  0  0  0  0  0  0  0  0  0  0
    0.1165    6.4239    3.4684 S   0  0  0  0  0  0  0  0  0  0  0  0
    1.0022    7.9553    3.0401 C   0  0  0  0  0  0  0  0  0  0  0  0
    0.9756    5.7318    0.9200 C   0  0  0  0  0  0  0  0  0  0  0  0
    1.4015    4.8184   -0.0225 C   0  0  0  0  0  0  0  0  0  0  0  0
   -0.0668    1.2102   -0.4676 C   0  0  0  0  0  0  0  0  0  0  0  0
   -1.3221    2.3720   -0.2428 S   0  0  0  0  0  0  0  0  0  0  0  0
    3.2414   -0.4184   -0.9269 C   0  0  0  0  0  0  0  0  0  0  0  0
    3.5882   -1.7416   -1.0341 C   0  0  0  0  0  0  0  0  0  0  0  0
    4.9715   -1.9656   -1.1674 C   0  0  0  0  0  0  0  0  0  0  0  0
    5.6344   -3.1954   -1.3019 C   0  0  0  0  0  0  0  0  0  0  0  0
    4.9153   -4.4625   -1.2831 C   0  0  0  0  0  0  0  0  0  0  0  0
    4.0435   -4.9948    0.1229 S   0  0  0  0  0  0  0  0  0  0  0  0
    3.6390   -6.5136   -0.6066 C   0  0  0  0  0  0  0  0  0  0  0  0
    2.8536   -7.5371    0.1364 C   0  0  0  0  0  0  0  0  0  0  0  0
    1.3794   -7.1478    0.2408 C   0  0  0  0  0  0  0  0  0  0  0  0
    4.1293   -6.5720   -1.8758 C   0  0  0  0  0  0  0  0  0  0  0  0
    3.9106   -7.9082   -2.9302 Cl  0  0  0  0  0  0  0  0  0  0  0  0
    4.8622   -5.4153   -2.2584 C   0  0  0  0  0  0  0  0  0  0  0  0
    5.5628   -5.2285   -3.8104 Cl  0  0  0  0  0  0  0  0  0  0  0  0
    7.0147   -3.1625   -1.4352 C   0  0  0  0  0  0  0  0  0  0  0  0
    7.7467   -1.9444   -1.4480 C   0  0  0  0  0  0  0  0  0  0  0  0
    7.0825   -0.7018   -1.3112 C   0  0  0  0  0  0  0  0  0  0  0  0
    7.8238    0.5418   -1.3225 C   0  0  0  0  0  0  0  0  0  0  0  0
    8.9763    0.8526   -0.6571 C   0  0  0  0  0  0  0  0  0  0  0  0
    9.4398    2.1539   -0.9291 C   0  0  0  0  0  0  0  0  0  0  0  0
    8.6551    2.8375   -1.8079 C   0  0  0  0  0  0  0  0  0  0  0  0
    8.8841    4.1906   -2.3854 C   0  0  0  0  0  0  0  0  0  0  0  0
    9.6301    4.0943   -3.7181 C   0  0  0  0  0  0  0  0  0  0  0  0
    7.3015    1.8806   -2.3051 S   0  0  0  0  0  0  0  0  0  0  0  0
    5.7055   -0.7516   -1.1782 C   0  0  0  0  0  0  0  0  0  0  0  0
    4.6490    0.6232   -0.9739 S   0  0  0  0  0  0  0  0  0  0  0  0
    9.1162   -2.1838   -1.6229 C   0  0  0  0  0  0  0  0  0  0  0  0
    9.4534   -3.5238   -1.6948 C   0  0  0  0  0  0  0  0  0  0  0  0
    8.0438   -4.5574   -1.5736 S   0  0  0  0  0  0  0  0  0  0  0  0
   10.7962   -3.9301   -1.8397 C   0  0  0  0  0  0  0  0  0  0  0  0
   11.3495   -5.1773   -1.8851 C   0  0  0  0  0  0  0  0  0  0  0  0
   10.6148   -6.4575   -1.7972 C   0  0  0  0  0  0  0  0  0  0  0  0
    9.4142   -6.6024   -1.6838 O   0  0  0  0  0  0  0  0  0  0  0  0
   11.6373   -7.5093   -1.8708 C   0  0  0  0  0  0  0  0  0  0  0  0
   11.4660   -8.8966   -1.8286 C   0  0  0  0  0  0  0  0  0  0  0  0
   10.2158   -9.3650   -1.7117 O   0  0  0  0  0  0  0  0  0  0  0  0
   10.0001  -10.7559   -1.6674 C   0  0  0  0  0  0  0  0  0  0  0  0
   12.6212   -9.6844   -1.9120 C   0  0  0  0  0  0  0  0  0  0  0  0
   13.8695   -9.1008   -2.0317 C   0  0  0  0  0  0  0  0  0  0  0  0
   14.0394   -7.7234   -2.0760 C   0  0  0  0  0  0  0  0  0  0  0  0
   12.9103   -6.9262   -1.9947 C   0  0  0  0  0  0  0  0  0  0  0  0
   12.7631   -5.4710   -2.0106 C   0  0  0  0  0  0  0  0  0  0  0  0
   13.7939   -4.5737   -2.1218 C   0  0  0  0  0  0  0  0  0  0  0  0
   13.6727   -3.1682   -2.1396 C   0  0  0  0  0  0  0  0  0  0  0  0
   13.6707   -2.0193   -2.1629 N   0  0  0  0  0  0  0  0  0  0  0  0
   15.1546   -4.9302   -2.2348 C   0  0  0  0  0  0  0  0  0  0  0  0
   16.2795   -5.1400   -2.3284 N   0  0  0  0  0  0  0  0  0  0  0  0
  -11.1142    6.0261    2.5289 H   0  0  0  0  0  0  0  0  0  0  0  0
  -10.3561    2.2899    1.6629 H   0  0  0  0  0  0  0  0  0  0  0  0
   -7.4789   -0.6610   -0.7429 H   0  0  0  0  0  0  0  0  0  0  0  0
   -8.9436   -2.6803   -0.0760 H   0  0  0  0  0  0  0  0  0  0  0  0
  -10.4755   -3.4526    1.9966 H   0  0  0  0  0  0  0  0  0  0  0  0
  -11.7037   -2.2259    1.7004 H   0  0  0  0  0  0  0  0  0  0  0  0
  -11.2573   -1.1507    3.8590 H   0  0  0  0  0  0  0  0  0  0  0  0
   -9.9321   -2.2659    4.1892 H   0  0  0  0  0  0  0  0  0  0  0  0
  -11.5960   -2.8643    4.1178 H   0  0  0  0  0  0  0  0  0  0  0  0
   -7.0433    6.8957    0.2798 H   0  0  0  0  0  0  0  0  0  0  0  0
   -5.4071    8.8473    0.7032 H   0  0  0  0  0  0  0  0  0  0  0  0
   -2.1574    7.7888    2.4628 H   0  0  0  0  0  0  0  0  0  0  0  0
   -3.0780    9.2410    2.0288 H   0  0  0  0  0  0  0  0  0  0  0  0
   -1.0807    9.0683    0.5778 H   0  0  0  0  0  0  0  0  0  0  0  0
   -1.5592    7.4358    0.0800 H   0  0  0  0  0  0  0  0  0  0  0  0
   -2.5331    8.8299   -0.3921 H   0  0  0  0  0  0  0  0  0  0  0  0
   -3.4776    3.6274    0.3494 H   0  0  0  0  0  0  0  0  0  0  0  0
   -2.7975   -0.3628    2.2556 H   0  0  0  0  0  0  0  0  0  0  0  0
   -4.5916   -0.8323    3.8745 H   0  0  0  0  0  0  0  0  0  0  0  0
   -8.1600   -3.9702    2.4369 H   0  0  0  0  0  0  0  0  0  0  0  0
   -6.7670   -4.7925    3.2095 H   0  0  0  0  0  0  0  0  0  0  0  0
   -8.2053   -4.3709    4.1670 H   0  0  0  0  0  0  0  0  0  0  0  0
   -6.3813   -3.5491    1.0984 H   0  0  0  0  0  0  0  0  0  0  0  0
   -4.6103   -3.0748   -0.5087 H   0  0  0  0  0  0  0  0  0  0  0  0
   -1.7932   -1.3256   -2.7248 H   0  0  0  0  0  0  0  0  0  0  0  0
   -0.6161   -3.1058   -3.9258 H   0  0  0  0  0  0  0  0  0  0  0  0
    1.8396   -4.0724   -3.3482 H   0  0  0  0  0  0  0  0  0  0  0  0
    1.0744   -4.4958   -4.9108 H   0  0  0  0  0  0  0  0  0  0  0  0
    2.2662   -5.5873   -4.1779 H   0  0  0  0  0  0  0  0  0  0  0  0
   -1.0643   -5.6809   -0.5458 H   0  0  0  0  0  0  0  0  0  0  0  0
   -2.2093   -3.8801    0.6771 H   0  0  0  0  0  0  0  0  0  0  0  0
    2.0841    1.6127   -3.1305 H   0  0  0  0  0  0  0  0  0  0  0  0
    3.6964    2.2484   -4.8410 H   0  0  0  0  0  0  0  0  0  0  0  0
    5.1721    2.7567   -6.5546 H   0  0  0  0  0  0  0  0  0  0  0  0
    6.9361    2.9389   -6.5035 H   0  0  0  0  0  0  0  0  0  0  0  0
    6.1362    1.8549   -5.3387 H   0  0  0  0  0  0  0  0  0  0  0  0
    5.5565    4.9439   -2.0920 H   0  0  0  0  0  0  0  0  0  0  0  0
    3.9666    4.2626   -0.3509 H   0  0  0  0  0  0  0  0  0  0  0  0
    1.3229    2.0160    1.8682 H   0  0  0  0  0  0  0  0  0  0  0  0
    0.5188    3.6437    3.5327 H   0  0  0  0  0  0  0  0  0  0  0  0
    0.5100    8.4663    2.2187 H   0  0  0  0  0  0  0  0  0  0  0  0
    2.0300    7.7133    2.7896 H   0  0  0  0  0  0  0  0  0  0  0  0
    0.9706    8.5773    3.9289 H   0  0  0  0  0  0  0  0  0  0  0  0
    0.8774    6.7683    0.6393 H   0  0  0  0  0  0  0  0  0  0  0  0
    1.6222    5.1496   -1.0261 H   0  0  0  0  0  0  0  0  0  0  0  0
    2.8640   -2.5369   -1.0176 H   0  0  0  0  0  0  0  0  0  0  0  0
    3.2713   -7.6495    1.1397 H   0  0  0  0  0  0  0  0  0  0  0  0
    2.9457   -8.4902   -0.3871 H   0  0  0  0  0  0  0  0  0  0  0  0
    0.8370   -7.8930    0.8166 H   0  0  0  0  0  0  0  0  0  0  0  0
    0.9421   -7.0841   -0.7521 H   0  0  0  0  0  0  0  0  0  0  0  0
    1.2797   -6.1824    0.7325 H   0  0  0  0  0  0  0  0  0  0  0  0
    9.4523    0.1825    0.0368 H   0  0  0  0  0  0  0  0  0  0  0  0
   10.3284    2.5697   -0.4883 H   0  0  0  0  0  0  0  0  0  0  0  0
    7.9286    4.6894   -2.5545 H   0  0  0  0  0  0  0  0  0  0  0  0
    9.4696    4.7837   -1.6796 H   0  0  0  0  0  0  0  0  0  0  0  0
   10.5917    3.6049   -3.5823 H   0  0  0  0  0  0  0  0  0  0  0  0
    9.0439    3.5201   -4.4311 H   0  0  0  0  0  0  0  0  0  0  0  0
    9.7953    5.0873   -4.1270 H   0  0  0  0  0  0  0  0  0  0  0  0
    9.8530   -1.4046   -1.7059 H   0  0  0  0  0  0  0  0  0  0  0  0
   11.4770   -3.0903   -1.9109 H   0  0  0  0  0  0  0  0  0  0  0  0
   10.3446  -11.2453   -2.5839 H   0  0  0  0  0  0  0  0  0  0  0  0
    8.9226  -10.8794   -1.5762 H   0  0  0  0  0  0  0  0  0  0  0  0
   10.4919  -11.2109   -0.8019 H   0  0  0  0  0  0  0  0  0  0  0  0
   12.5496  -10.7600   -1.8830 H   0  0  0  0  0  0  0  0  0  0  0  0
   14.7388   -9.7382   -2.0926 H   0  0  0  0  0  0  0  0  0  0  0  0
   15.0269   -7.3057   -2.1702 H   0  0  0  0  0  0  0  0  0  0  0  0
  1  2  2  0  0  0  0
  2  3  1  0  0  0  0
  3  4  2  0  0  0  0
  3  5  1  0  0  0  0
  5  6  2  0  0  0  0
  6  7  1  0  0  0  0
  6  8  1  0  0  0  0
  8  9  1  0  0  0  0
  8 10  2  0  0  0  0
 10 11  1  0  0  0  0
 10 12  1  0  0  0  0
 12 13  1  0  0  0  0
 12 14  2  0  0  0  0
 14 15  1  0  0  0  0
 15 16  2  0  0  0  0
 16 17  1  0  0  0  0
 17 18  3  0  0  0  0
 16 19  1  0  0  0  0
 19 20  3  0  0  0  0
  1 21  1  0  0  0  0
 21 22  2  0  0  0  0
 22 23  1  0  0  0  0
 23 24  2  0  0  0  0
 24 25  1  0  0  0  0
 25 26  2  0  0  0  0
 26 27  1  0  0  0  0
 27 28  2  0  0  0  0
 28 29  1  0  0  0  0
 29 30  1  0  0  0  0
 28 31  1  0  0  0  0
 24 32  1  0  0  0  0
 32 33  2  0  0  0  0
 33 34  1  0  0  0  0
 34 35  1  0  0  0  0
 35 36  2  0  0  0  0
 36 37  1  0  0  0  0
 37 38  2  0  0  0  0
 38 39  1  0  0  0  0
 39 40  1  0  0  0  0
 38 41  1  0  0  0  0
 34 42  2  0  0  0  0
 42 43  1  0  0  0  0
 33 44  1  0  0  0  0
 44 45  2  0  0  0  0
 45 46  1  0  0  0  0
 45 47  1  0  0  0  0
 47 48  2  0  0  0  0
 48 49  1  0  0  0  0
 49 50  1  0  0  0  0
 50 51  2  0  0  0  0
 51 52  1  0  0  0  0
 52 53  2  0  0  0  0
 53 54  1  0  0  0  0
 54 55  1  0  0  0  0
 53 56  1  0  0  0  0
 56 57  2  0  0  0  0
 49 58  1  0  0  0  0
 58 59  2  0  0  0  0
 59 60  1  0  0  0  0
 60 61  2  0  0  0  0
 61 62  1  0  0  0  0
 62 63  1  0  0  0  0
 61 64  1  0  0  0  0
 64 65  2  0  0  0  0
 48 66  1  0  0  0  0
 66 67  1  0  0  0  0
 67 68  1  0  0  0  0
 68 69  2  0  0  0  0
 69 70  1  0  0  0  0
 70 71  1  0  0  0  0
 71 72  2  0  0  0  0
 72 73  1  0  0  0  0
 73 74  2  0  0  0  0
 74 75  1  0  0  0  0
 75 76  1  0  0  0  0
 74 77  1  0  0  0  0
 77 78  2  0  0  0  0
 70 79  1  0  0  0  0
 79 80  2  0  0  0  0
 80 81  1  0  0  0  0
 81 82  2  0  0  0  0
 82 83  1  0  0  0  0
 83 84  1  0  0  0  0
 82 85  1  0  0  0  0
 85 86  2  0  0  0  0
 69 87  1  0  0  0  0
 87 88  1  0  0  0  0
 68 89  1  0  0  0  0
 89 90  2  0  0  0  0
 90 91  1  0  0  0  0
 91 92  2  0  0  0  0
 92 93  1  0  0  0  0
 93 94  1  0  0  0  0
 94 95  1  0  0  0  0
 95 96  1  0  0  0  0
 96 97  1  0  0  0  0
 95 98  2  0  0  0  0
 98 99  1  0  0  0  0
 98100  1  0  0  0  0
100101  1  0  0  0  0
 92102  1  0  0  0  0
102103  2  0  0  0  0
103104  1  0  0  0  0
104105  1  0  0  0  0
105106  2  0  0  0  0
106107  1  0  0  0  0
107108  2  0  0  0  0
108109  1  0  0  0  0
109110  1  0  0  0  0
108111  1  0  0  0  0
104112  2  0  0  0  0
112113  1  0  0  0  0
103114  1  0  0  0  0
114115  2  0  0  0  0
115116  1  0  0  0  0
115117  1  0  0  0  0
117118  2  0  0  0  0
118119  1  0  0  0  0
119120  2  0  0  0  0
119121  1  0  0  0  0
121122  2  0  0  0  0
122123  1  0  0  0  0
123124  1  0  0  0  0
122125  1  0  0  0  0
125126  2  0  0  0  0
126127  1  0  0  0  0
127128  2  0  0  0  0
128129  1  0  0  0  0
129130  2  0  0  0  0
130131  1  0  0  0  0
131132  3  0  0  0  0
130133  1  0  0  0  0
133134  3  0  0  0  0
 15  2  1  0  0  0  0
 43 21  1  0  0  0  0
 88 47  1  0  0  0  0
113 89  1  0  0  0  0
129118  1  0  0  0  0
 14  5  1  0  0  0  0
 42 23  1  0  0  0  0
 57 50  1  0  0  0  0
 65 58  1  0  0  0  0
 87 66  2  0  0  0  0
112 91  1  0  0  0  0
128121  1  0  0  0  0
 31 25  1  0  0  0  0
 46 32  1  0  0  0  0
 78 71  1  0  0  0  0
 86 79  1  0  0  0  0
100 93  2  0  0  0  0
116102  1  0  0  0  0
 41 35  1  0  0  0  0
111105  1  0  0  0  0
  1135  1  0  0  0  0
 22136  1  0  0  0  0
 26137  1  0  0  0  0
 27138  1  0  0  0  0
 29139  1  0  0  0  0
 29140  1  0  0  0  0
 30141  1  0  0  0  0
 30142  1  0  0  0  0
 30143  1  0  0  0  0
 36144  1  0  0  0  0
 37145  1  0  0  0  0
 39146  1  0  0  0  0
 39147  1  0  0  0  0
 40148  1  0  0  0  0
 40149  1  0  0  0  0
 40150  1  0  0  0  0
 44151  1  0  0  0  0
 51152  1  0  0  0  0
 52153  1  0  0  0  0
 55154  1  0  0  0  0
 55155  1  0  0  0  0
 55156  1  0  0  0  0
 56157  1  0  0  0  0
 57158  1  0  0  0  0
 59159  1  0  0  0  0
 60160  1  0  0  0  0
 63161  1  0  0  0  0
 63162  1  0  0  0  0
 63163  1  0  0  0  0
 64164  1  0  0  0  0
 65165  1  0  0  0  0
 72166  1  0  0  0  0
 73167  1  0  0  0  0
 76168  1  0  0  0  0
 76169  1  0  0  0  0
 76170  1  0  0  0  0
 77171  1  0  0  0  0
 78172  1  0  0  0  0
 80173  1  0  0  0  0
 81174  1  0  0  0  0
 84175  1  0  0  0  0
 84176  1  0  0  0  0
 84177  1  0  0  0  0
 85178  1  0  0  0  0
 86179  1  0  0  0  0
 90180  1  0  0  0  0
 96181  1  0  0  0  0
 96182  1  0  0  0  0
 97183  1  0  0  0  0
 97184  1  0  0  0  0
 97185  1  0  0  0  0
106186  1  0  0  0  0
107187  1  0  0  0  0
109188  1  0  0  0  0
109189  1  0  0  0  0
110190  1  0  0  0  0
110191  1  0  0  0  0
110192  1  0  0  0  0
114193  1  0  0  0  0
117194  1  0  0  0  0
124195  1  0  0  0  0
124196  1  0  0  0  0
124197  1  0  0  0  0
125198  1  0  0  0  0
126199  1  0  0  0  0
127200  1  0  0  0  0
M  END
