
  xtb     02032220263D
 energy: -322.423950869712 gnorm: 0.000953770905 xtb: 6.4.1 (unknown)
165183  0     0  0            999 V2000
    1.8678    9.5508    5.4570 C   0  0  0  0  0  0  0  0  0  0  0  0
    3.0649    9.7888    6.0635 C   0  0  0  0  0  0  0  0  0  0  0  0
    3.2373   10.8682    7.0625 C   0  0  0  0  0  0  0  0  0  0  0  0
    2.4809   11.7790    7.2957 O   0  0  0  0  0  0  0  0  0  0  0  0
    4.5104   10.5374    7.7602 C   0  0  0  0  0  0  0  0  0  0  0  0
    5.0563   11.1000    8.9003 C   0  0  0  0  0  0  0  0  0  0  0  0
    4.3570   12.4707    9.6382 Cl  0  0  0  0  0  0  0  0  0  0  0  0
    6.2035   10.5069    9.4497 C   0  0  0  0  0  0  0  0  0  0  0  0
    6.9250   11.1842   10.8440 Cl  0  0  0  0  0  0  0  0  0  0  0  0
    6.7362    9.3473    8.8877 C   0  0  0  0  0  0  0  0  0  0  0  0
    8.0784    8.5928    9.6302 Cl  0  0  0  0  0  0  0  0  0  0  0  0
    6.1814    8.7814    7.7293 C   0  0  0  0  0  0  0  0  0  0  0  0
    6.7745    7.2747    7.1621 Cl  0  0  0  0  0  0  0  0  0  0  0  0
    5.1009    9.4186    7.1385 C   0  0  0  0  0  0  0  0  0  0  0  0
    4.3309    9.0998    5.9416 C   0  0  0  0  0  0  0  0  0  0  0  0
    4.8239    8.5657    4.7805 C   0  0  0  0  0  0  0  0  0  0  0  0
    4.0434    8.4028    3.6194 C   0  0  0  0  0  0  0  0  0  0  0  0
    3.4617    8.2258    2.6447 N   0  0  0  0  0  0  0  0  0  0  0  0
    6.1740    8.2582    4.5146 C   0  0  0  0  0  0  0  0  0  0  0  0
    7.2449    8.0490    4.1577 N   0  0  0  0  0  0  0  0  0  0  0  0
    1.4798    8.3415    4.8258 C   0  0  0  0  0  0  0  0  0  0  0  0
    2.0244    7.0795    5.1432 C   0  0  0  0  0  0  0  0  0  0  0  0
    1.5836    5.8689    4.4946 C   0  0  0  0  0  0  0  0  0  0  0  0
    2.2084    4.7897    4.9804 N   0  0  0  0  0  0  0  0  0  0  0  0
    3.2456    5.2448    6.1057 S   0  0  0  0  0  4  0  0  0  0  0  0
    2.9543    6.8195    6.0712 N   0  0  0  0  0  0  0  0  0  0  0  0
    0.6560    5.8502    3.4368 C   0  0  0  0  0  0  0  0  0  0  0  0
    0.1054    7.1115    3.1138 C   0  0  0  0  0  0  0  0  0  0  0  0
   -0.7959    7.3680    2.1632 N   0  0  0  0  0  0  0  0  0  0  0  0
   -1.1319    8.9378    2.1647 S   0  0  0  0  0  0  0  0  0  0  0  0
   -0.1663    9.3852    3.3637 N   0  0  0  0  0  0  0  0  0  0  0  0
    0.4790    8.3157    3.8282 C   0  0  0  0  0  0  0  0  0  0  0  0
    0.3537    4.6446    2.7523 C   0  0  0  0  0  0  0  0  0  0  0  0
   -0.3627    4.5030    1.5888 C   0  0  0  0  0  0  0  0  0  0  0  0
   -0.4663    3.1707    1.1509 C   0  0  0  0  0  0  0  0  0  0  0  0
   -1.1088    2.6931   -0.0184 C   0  0  0  0  0  0  0  0  0  0  0  0
   -1.4565    3.5993   -1.0821 C   0  0  0  0  0  0  0  0  0  0  0  0
   -2.4762    3.5698   -2.0024 C   0  0  0  0  0  0  0  0  0  0  0  0
   -2.4120    4.6186   -2.9258 C   0  0  0  0  0  0  0  0  0  0  0  0
   -1.3347    5.4628   -2.7448 C   0  0  0  0  0  0  0  0  0  0  0  0
   -0.9611    6.5459   -3.6003 C   0  0  0  0  0  0  0  0  0  0  0  0
    0.0756    7.4002   -3.4795 C   0  0  0  0  0  0  0  0  0  0  0  0
    0.9726    7.5454   -2.3635 C   0  0  0  0  0  0  0  0  0  0  0  0
    0.7215    7.6283   -1.0187 C   0  0  0  0  0  0  0  0  0  0  0  0
    1.8691    7.8010   -0.2315 C   0  0  0  0  0  0  0  0  0  0  0  0
    3.0185    7.8591   -0.9718 C   0  0  0  0  0  0  0  0  0  0  0  0
    4.6249    7.9965   -0.3128 S   0  0  0  0  0  0  0  0  0  0  0  0
    5.6201    8.1481   -1.8477 C   0  0  0  0  0  0  0  0  0  0  0  0
    7.0842    8.3022   -1.4880 C   0  0  0  0  0  0  0  0  0  0  0  0
    2.6859    7.7293   -2.6714 S   0  0  0  0  0  0  0  0  0  0  0  0
   -0.3851    4.9369   -1.3950 S   0  0  0  0  0  0  0  0  0  0  0  0
   -1.2585    1.3141   -0.1103 C   0  0  0  0  0  0  0  0  0  0  0  0
   -0.7052    0.4050    0.8286 C   0  0  0  0  0  0  0  0  0  0  0  0
    0.0463    0.8839    1.9260 C   0  0  0  0  0  0  0  0  0  0  0  0
    0.7020    0.0069    2.8708 C   0  0  0  0  0  0  0  0  0  0  0  0
    0.2810   -1.1708    3.4357 C   0  0  0  0  0  0  0  0  0  0  0  0
    1.1885   -1.6918    4.3672 C   0  0  0  0  0  0  0  0  0  0  0  0
    2.3226   -0.9277    4.5279 C   0  0  0  0  0  0  0  0  0  0  0  0
    3.3413   -1.1333    5.5141 C   0  0  0  0  0  0  0  0  0  0  0  0
    4.3757   -0.3275    5.8074 C   0  0  0  0  0  0  0  0  0  0  0  0
    4.7689    0.8437    5.0513 C   0  0  0  0  0  0  0  0  0  0  0  0
    5.1385    0.9214    3.7389 C   0  0  0  0  0  0  0  0  0  0  0  0
    5.4777    2.2193    3.3162 C   0  0  0  0  0  0  0  0  0  0  0  0
    5.3591    3.1444    4.3116 C   0  0  0  0  0  0  0  0  0  0  0  0
    5.6505    4.8736    4.2693 S   0  0  0  0  0  0  0  0  0  0  0  0
    5.4692    5.2331    2.4851 C   0  0  0  0  0  0  0  0  0  0  0  0
    4.0594    5.0161    1.9760 C   0  0  0  0  0  0  0  0  0  0  0  0
    4.8596    2.4159    5.8066 S   0  0  0  0  0  0  0  0  0  0  0  0
    2.2651    0.4568    3.4833 S   0  0  0  0  0  0  0  0  0  0  0  0
    0.1393    2.2660    2.0585 C   0  0  0  0  0  0  0  0  0  0  0  0
    0.9396    3.1157    3.3572 S   0  0  0  0  0  0  0  0  0  0  0  0
   -0.9373   -0.9382    0.4543 C   0  0  0  0  0  0  0  0  0  0  0  0
   -1.6582   -1.0728   -0.7000 C   0  0  0  0  0  0  0  0  0  0  0  0
   -2.0609    0.4741   -1.4070 S   0  0  0  0  0  0  0  0  0  0  0  0
   -2.0937   -2.2820   -1.3177 C   0  0  0  0  0  0  0  0  0  0  0  0
   -1.9832   -3.5539   -0.8280 C   0  0  0  0  0  0  0  0  0  0  0  0
   -2.5321   -4.5359   -1.6827 C   0  0  0  0  0  0  0  0  0  0  0  0
   -2.6081   -5.9247   -1.4595 C   0  0  0  0  0  0  0  0  0  0  0  0
   -1.9649   -6.5394   -0.3122 C   0  0  0  0  0  0  0  0  0  0  0  0
   -2.8172   -7.6415    0.7287 S   0  0  0  0  0  0  0  0  0  0  0  0
   -1.4310   -7.8882    1.7345 C   0  0  0  0  0  0  0  0  0  0  0  0
   -1.4706   -8.8440    2.8749 C   0  0  0  0  0  0  0  0  0  0  0  0
   -1.2954  -10.2828    2.3828 C   0  0  0  0  0  0  0  0  0  0  0  0
   -0.3752   -7.1601    1.2731 C   0  0  0  0  0  0  0  0  0  0  0  0
    1.1773   -7.1506    2.0062 Cl  0  0  0  0  0  0  0  0  0  0  0  0
   -0.6736   -6.3918    0.1162 C   0  0  0  0  0  0  0  0  0  0  0  0
    0.5157   -5.4533   -0.6935 Cl  0  0  0  0  0  0  0  0  0  0  0  0
   -3.3122   -6.6697   -2.3942 C   0  0  0  0  0  0  0  0  0  0  0  0
   -3.8984   -6.1009   -3.5572 C   0  0  0  0  0  0  0  0  0  0  0  0
   -3.7953   -4.7107   -3.8009 C   0  0  0  0  0  0  0  0  0  0  0  0
   -4.4065   -4.1019   -4.9595 C   0  0  0  0  0  0  0  0  0  0  0  0
   -5.6095   -4.3907   -5.5480 C   0  0  0  0  0  0  0  0  0  0  0  0
   -5.8911   -3.5746   -6.6587 C   0  0  0  0  0  0  0  0  0  0  0  0
   -4.9098   -2.6703   -6.9351 C   0  0  0  0  0  0  0  0  0  0  0  0
   -4.8716   -1.6356   -8.0053 C   0  0  0  0  0  0  0  0  0  0  0  0
   -5.0634   -0.2336   -7.4227 C   0  0  0  0  0  0  0  0  0  0  0  0
   -3.6103   -2.7969   -5.7994 S   0  0  0  0  0  0  0  0  0  0  0  0
   -3.1018   -3.9696   -2.8508 C   0  0  0  0  0  0  0  0  0  0  0  0
   -2.8938   -2.2395   -2.8695 S   0  0  0  0  0  0  0  0  0  0  0  0
   -4.5122   -7.0746   -4.3678 C   0  0  0  0  0  0  0  0  0  0  0  0
   -4.4574   -8.3456   -3.8506 C   0  0  0  0  0  0  0  0  0  0  0  0
   -3.5531   -8.3879   -2.3386 S   0  0  0  0  0  0  0  0  0  0  0  0
   -4.9602   -9.5719   -4.3405 C   0  0  0  0  0  0  0  0  0  0  0  0
   -5.9668   -9.7938   -5.2374 C   0  0  0  0  0  0  0  0  0  0  0  0
   -6.9674   -8.8129   -5.7246 C   0  0  0  0  0  0  0  0  0  0  0  0
   -6.9713   -7.6057   -5.6051 O   0  0  0  0  0  0  0  0  0  0  0  0
   -8.0299   -9.6182   -6.3581 C   0  0  0  0  0  0  0  0  0  0  0  0
   -9.2194   -9.1787   -6.9063 C   0  0  0  0  0  0  0  0  0  0  0  0
  -10.1032  -10.1028   -7.4509 C   0  0  0  0  0  0  0  0  0  0  0  0
  -11.4075   -9.7027   -8.0577 C   0  0  0  0  0  0  0  0  0  0  0  0
   -9.7326  -11.4492   -7.4115 C   0  0  0  0  0  0  0  0  0  0  0  0
  -10.5862  -12.3516   -7.9290 F   0  0  0  0  0  0  0  0  0  0  0  0
   -8.5453  -11.9155   -6.8716 C   0  0  0  0  0  0  0  0  0  0  0  0
   -7.6777  -10.9772   -6.3343 C   0  0  0  0  0  0  0  0  0  0  0  0
   -6.3733  -11.1127   -5.6959 C   0  0  0  0  0  0  0  0  0  0  0  0
   -5.6412  -12.2669   -5.6198 C   0  0  0  0  0  0  0  0  0  0  0  0
   -4.3357  -12.3735   -5.0932 C   0  0  0  0  0  0  0  0  0  0  0  0
   -3.2688  -12.5428   -4.7042 N   0  0  0  0  0  0  0  0  0  0  0  0
   -6.0894  -13.5149   -6.1031 C   0  0  0  0  0  0  0  0  0  0  0  0
   -6.4008  -14.5564   -6.4709 N   0  0  0  0  0  0  0  0  0  0  0  0
    1.1188   10.3322    5.5087 H   0  0  0  0  0  0  0  0  0  0  0  0
   -0.8141    5.3494    1.1075 H   0  0  0  0  0  0  0  0  0  0  0  0
   -3.2636    2.8377   -1.9895 H   0  0  0  0  0  0  0  0  0  0  0  0
   -3.1339    4.7610   -3.7106 H   0  0  0  0  0  0  0  0  0  0  0  0
   -1.5706    6.6223   -4.4923 H   0  0  0  0  0  0  0  0  0  0  0  0
    0.2933    8.0427   -4.3243 H   0  0  0  0  0  0  0  0  0  0  0  0
   -0.2723    7.5969   -0.6087 H   0  0  0  0  0  0  0  0  0  0  0  0
    1.8772    7.8825    0.8388 H   0  0  0  0  0  0  0  0  0  0  0  0
    5.4480    7.2489   -2.4401 H   0  0  0  0  0  0  0  0  0  0  0  0
    5.2497    9.0174   -2.3917 H   0  0  0  0  0  0  0  0  0  0  0  0
    7.6786    8.3965   -2.3940 H   0  0  0  0  0  0  0  0  0  0  0  0
    7.4328    7.4370   -0.9290 H   0  0  0  0  0  0  0  0  0  0  0  0
    7.2349    9.1885   -0.8766 H   0  0  0  0  0  0  0  0  0  0  0  0
   -0.6778   -1.6155    3.2363 H   0  0  0  0  0  0  0  0  0  0  0  0
    1.0102   -2.5942    4.9255 H   0  0  0  0  0  0  0  0  0  0  0  0
    3.1813   -2.0072    6.1329 H   0  0  0  0  0  0  0  0  0  0  0  0
    4.9669   -0.5405    6.6887 H   0  0  0  0  0  0  0  0  0  0  0  0
    5.1813    0.0625    3.0934 H   0  0  0  0  0  0  0  0  0  0  0  0
    5.7944    2.4433    2.3146 H   0  0  0  0  0  0  0  0  0  0  0  0
    5.7639    6.2780    2.3916 H   0  0  0  0  0  0  0  0  0  0  0  0
    6.1978    4.6153    1.9625 H   0  0  0  0  0  0  0  0  0  0  0  0
    4.0441    5.1398    0.8957 H   0  0  0  0  0  0  0  0  0  0  0  0
    3.3837    5.7524    2.4037 H   0  0  0  0  0  0  0  0  0  0  0  0
    3.6980    4.0196    2.2233 H   0  0  0  0  0  0  0  0  0  0  0  0
   -0.5597   -1.7790    1.0039 H   0  0  0  0  0  0  0  0  0  0  0  0
   -1.5501   -3.7794    0.1280 H   0  0  0  0  0  0  0  0  0  0  0  0
   -0.6685   -8.5928    3.5710 H   0  0  0  0  0  0  0  0  0  0  0  0
   -2.4268   -8.7527    3.3933 H   0  0  0  0  0  0  0  0  0  0  0  0
   -0.3405  -10.3945    1.8754 H   0  0  0  0  0  0  0  0  0  0  0  0
   -1.3261  -10.9710    3.2231 H   0  0  0  0  0  0  0  0  0  0  0  0
   -2.0901  -10.5427    1.6876 H   0  0  0  0  0  0  0  0  0  0  0  0
   -6.2915   -5.1347   -5.1786 H   0  0  0  0  0  0  0  0  0  0  0  0
   -6.7934   -3.6591   -7.2379 H   0  0  0  0  0  0  0  0  0  0  0  0
   -3.9106   -1.6782   -8.5240 H   0  0  0  0  0  0  0  0  0  0  0  0
   -5.6616   -1.8469   -8.7288 H   0  0  0  0  0  0  0  0  0  0  0  0
   -5.0336    0.5107   -8.2142 H   0  0  0  0  0  0  0  0  0  0  0  0
   -6.0222   -0.1638   -6.9143 H   0  0  0  0  0  0  0  0  0  0  0  0
   -4.2755   -0.0135   -6.7061 H   0  0  0  0  0  0  0  0  0  0  0  0
   -4.9474   -6.8591   -5.3231 H   0  0  0  0  0  0  0  0  0  0  0  0
   -4.5052  -10.4444   -3.8857 H   0  0  0  0  0  0  0  0  0  0  0  0
   -9.4530   -8.1248   -6.9063 H   0  0  0  0  0  0  0  0  0  0  0  0
  -11.5351   -8.6248   -8.0249 H   0  0  0  0  0  0  0  0  0  0  0  0
  -12.2305  -10.1760   -7.5230 H   0  0  0  0  0  0  0  0  0  0  0  0
  -11.4598  -10.0384   -9.0928 H   0  0  0  0  0  0  0  0  0  0  0  0
   -8.3409  -12.9733   -6.8788 H   0  0  0  0  0  0  0  0  0  0  0  0
  1  2  2  0  0  0  0
  2  3  1  0  0  0  0
  3  4  2  0  0  0  0
  3  5  1  0  0  0  0
  5  6  2  0  0  0  0
  6  7  1  0  0  0  0
  6  8  1  0  0  0  0
  8  9  1  0  0  0  0
  8 10  2  0  0  0  0
 10 11  1  0  0  0  0
 10 12  1  0  0  0  0
 12 13  1  0  0  0  0
 12 14  2  0  0  0  0
 14 15  1  0  0  0  0
 15 16  2  0  0  0  0
 16 17  1  0  0  0  0
 17 18  3  0  0  0  0
 16 19  1  0  0  0  0
 19 20  3  0  0  0  0
  1 21  1  0  0  0  0
 21 22  2  0  0  0  0
 22 23  1  0  0  0  0
 23 24  1  0  0  0  0
 24 25  2  0  0  0  0
 25 26  2  0  0  0  0
 23 27  2  0  0  0  0
 27 28  1  0  0  0  0
 28 29  2  0  0  0  0
 29 30  1  0  0  0  0
 30 31  1  0  0  0  0
 31 32  2  0  0  0  0
 27 33  1  0  0  0  0
 33 34  2  0  0  0  0
 34 35  1  0  0  0  0
 35 36  2  0  0  0  0
 36 37  1  0  0  0  0
 37 38  2  0  0  0  0
 38 39  1  0  0  0  0
 39 40  2  0  0  0  0
 40 41  1  0  0  0  0
 41 42  2  0  0  0  0
 42 43  1  0  0  0  0
 43 44  2  0  0  0  0
 44 45  1  0  0  0  0
 45 46  2  0  0  0  0
 46 47  1  0  0  0  0
 47 48  1  0  0  0  0
 48 49  1  0  0  0  0
 46 50  1  0  0  0  0
 40 51  1  0  0  0  0
 36 52  1  0  0  0  0
 52 53  2  0  0  0  0
 53 54  1  0  0  0  0
 54 55  1  0  0  0  0
 55 56  2  0  0  0  0
 56 57  1  0  0  0  0
 57 58  2  0  0  0  0
 58 59  1  0  0  0  0
 59 60  2  0  0  0  0
 60 61  1  0  0  0  0
 61 62  2  0  0  0  0
 62 63  1  0  0  0  0
 63 64  2  0  0  0  0
 64 65  1  0  0  0  0
 65 66  1  0  0  0  0
 66 67  1  0  0  0  0
 64 68  1  0  0  0  0
 58 69  1  0  0  0  0
 54 70  2  0  0  0  0
 70 71  1  0  0  0  0
 53 72  1  0  0  0  0
 72 73  2  0  0  0  0
 73 74  1  0  0  0  0
 73 75  1  0  0  0  0
 75 76  2  0  0  0  0
 76 77  1  0  0  0  0
 77 78  2  0  0  0  0
 78 79  1  0  0  0  0
 79 80  1  0  0  0  0
 80 81  1  0  0  0  0
 81 82  1  0  0  0  0
 82 83  1  0  0  0  0
 81 84  2  0  0  0  0
 84 85  1  0  0  0  0
 84 86  1  0  0  0  0
 86 87  1  0  0  0  0
 78 88  1  0  0  0  0
 88 89  2  0  0  0  0
 89 90  1  0  0  0  0
 90 91  1  0  0  0  0
 91 92  2  0  0  0  0
 92 93  1  0  0  0  0
 93 94  2  0  0  0  0
 94 95  1  0  0  0  0
 95 96  1  0  0  0  0
 94 97  1  0  0  0  0
 90 98  2  0  0  0  0
 98 99  1  0  0  0  0
 89100  1  0  0  0  0
100101  2  0  0  0  0
101102  1  0  0  0  0
101103  1  0  0  0  0
103104  2  0  0  0  0
104105  1  0  0  0  0
105106  2  0  0  0  0
105107  1  0  0  0  0
107108  2  0  0  0  0
108109  1  0  0  0  0
109110  1  0  0  0  0
109111  2  0  0  0  0
111112  1  0  0  0  0
111113  1  0  0  0  0
113114  2  0  0  0  0
114115  1  0  0  0  0
115116  2  0  0  0  0
116117  1  0  0  0  0
117118  3  0  0  0  0
116119  1  0  0  0  0
119120  3  0  0  0  0
 15  2  1  0  0  0  0
 32 21  1  0  0  0  0
 71 33  1  0  0  0  0
 99 75  1  0  0  0  0
115104  1  0  0  0  0
 14  5  1  0  0  0  0
 26 22  1  0  0  0  0
 32 28  1  0  0  0  0
 70 35  1  0  0  0  0
 98 77  1  0  0  0  0
114107  1  0  0  0  0
 51 37  1  0  0  0  0
 74 52  1  0  0  0  0
 86 79  2  0  0  0  0
102 88  1  0  0  0  0
 50 43  1  0  0  0  0
 69 55  1  0  0  0  0
 97 91  1  0  0  0  0
 68 61  1  0  0  0  0
  1121  1  0  0  0  0
 34122  1  0  0  0  0
 38123  1  0  0  0  0
 39124  1  0  0  0  0
 41125  1  0  0  0  0
 42126  1  0  0  0  0
 44127  1  0  0  0  0
 45128  1  0  0  0  0
 48129  1  0  0  0  0
 48130  1  0  0  0  0
 49131  1  0  0  0  0
 49132  1  0  0  0  0
 49133  1  0  0  0  0
 56134  1  0  0  0  0
 57135  1  0  0  0  0
 59136  1  0  0  0  0
 60137  1  0  0  0  0
 62138  1  0  0  0  0
 63139  1  0  0  0  0
 66140  1  0  0  0  0
 66141  1  0  0  0  0
 67142  1  0  0  0  0
 67143  1  0  0  0  0
 67144  1  0  0  0  0
 72145  1  0  0  0  0
 76146  1  0  0  0  0
 82147  1  0  0  0  0
 82148  1  0  0  0  0
 83149  1  0  0  0  0
 83150  1  0  0  0  0
 83151  1  0  0  0  0
 92152  1  0  0  0  0
 93153  1  0  0  0  0
 95154  1  0  0  0  0
 95155  1  0  0  0  0
 96156  1  0  0  0  0
 96157  1  0  0  0  0
 96158  1  0  0  0  0
100159  1  0  0  0  0
103160  1  0  0  0  0
108161  1  0  0  0  0
110162  1  0  0  0  0
110163  1  0  0  0  0
110164  1  0  0  0  0
113165  1  0  0  0  0
M  END
