
  xtb     02112218083D
 energy: -349.282028530700 gnorm: 0.000458920778 xtb: 6.4.1 (unknown)
191207  0     0  0            999 V2000
    0.1146   -2.4153   -7.5370 C   0  0  0  0  0  0  0  0  0  0  0  0
    0.9569   -3.2922   -8.1477 C   0  0  0  0  0  0  0  0  0  0  0  0
    1.1606   -3.1823   -9.6127 C   0  0  0  0  0  0  0  0  0  0  0  0
    0.5214   -2.5075  -10.3841 O   0  0  0  0  0  0  0  0  0  0  0  0
    2.3581   -4.0059   -9.8918 C   0  0  0  0  0  0  0  0  0  0  0  0
    3.0339   -4.1524  -11.0912 C   0  0  0  0  0  0  0  0  0  0  0  0
    2.4787   -3.4032  -12.5198 Cl  0  0  0  0  0  0  0  0  0  0  0  0
    4.1947   -4.9373  -11.1092 C   0  0  0  0  0  0  0  0  0  0  0  0
    5.0505   -5.1655  -12.5718 Cl  0  0  0  0  0  0  0  0  0  0  0  0
    4.6629   -5.5135   -9.9296 C   0  0  0  0  0  0  0  0  0  0  0  0
    6.1143   -6.4180   -9.9624 Cl  0  0  0  0  0  0  0  0  0  0  0  0
    3.9718   -5.3628   -8.7170 C   0  0  0  0  0  0  0  0  0  0  0  0
    4.6785   -6.0211   -7.3033 Cl  0  0  0  0  0  0  0  0  0  0  0  0
    2.7877   -4.6368   -8.7022 C   0  0  0  0  0  0  0  0  0  0  0  0
    1.8039   -4.3586   -7.6564 C   0  0  0  0  0  0  0  0  0  0  0  0
    1.4472   -5.1515   -6.5937 C   0  0  0  0  0  0  0  0  0  0  0  0
    0.2399   -4.9064   -5.8994 C   0  0  0  0  0  0  0  0  0  0  0  0
   -0.7687   -4.7580   -5.3729 N   0  0  0  0  0  0  0  0  0  0  0  0
    2.0290   -6.3615   -6.1769 C   0  0  0  0  0  0  0  0  0  0  0  0
    2.3909   -7.3740   -5.7729 N   0  0  0  0  0  0  0  0  0  0  0  0
    0.0563   -1.9895   -6.1879 C   0  0  0  0  0  0  0  0  0  0  0  0
    1.0555   -1.9378   -5.2230 C   0  0  0  0  0  0  0  0  0  0  0  0
    2.3505   -2.4805   -5.3522 N   0  0  0  0  0  0  0  0  0  0  0  0
    2.6962   -3.5814   -4.5652 C   0  0  0  0  0  0  0  0  0  0  0  0
    1.8274   -4.1329   -3.6200 C   0  0  0  0  0  0  0  0  0  0  0  0
    2.1847   -5.2657   -2.9215 C   0  0  0  0  0  0  0  0  0  0  0  0
    3.4119   -5.8774   -3.1465 C   0  0  0  0  0  0  0  0  0  0  0  0
    3.7897   -7.3480   -2.2482 S   0  0  0  0  0  0  0  0  0  0  0  0
    4.7130   -8.2986   -3.4907 C   0  0  0  0  0  0  0  0  0  0  0  0
    4.2995   -5.3096   -4.0544 C   0  0  0  0  0  0  0  0  0  0  0  0
    3.9432   -4.1815   -4.7586 C   0  0  0  0  0  0  0  0  0  0  0  0
    3.3339   -1.4908   -5.6283 C   0  0  0  0  0  0  0  0  0  0  0  0
    4.2665   -1.1044   -4.6682 C   0  0  0  0  0  0  0  0  0  0  0  0
    5.1763   -0.1110   -4.9532 C   0  0  0  0  0  0  0  0  0  0  0  0
    5.1709    0.5189   -6.1976 C   0  0  0  0  0  0  0  0  0  0  0  0
    6.3574    1.7959   -6.4406 S   0  0  0  0  0  0  0  0  0  0  0  0
    5.7970    2.6220   -7.9551 C   0  0  0  0  0  0  0  0  0  0  0  0
    4.2519    0.1211   -7.1599 C   0  0  0  0  0  0  0  0  0  0  0  0
    3.3355   -0.8715   -6.8713 C   0  0  0  0  0  0  0  0  0  0  0  0
    0.6518   -1.1767   -4.1116 C   0  0  0  0  0  0  0  0  0  0  0  0
    1.4088   -0.7907   -2.6118 S   0  0  0  0  0  0  0  0  0  0  0  0
   -0.0550    0.0069   -2.0643 C   0  0  0  0  0  0  0  0  0  0  0  0
   -1.0850   -0.0759   -2.9789 C   0  0  0  0  0  0  0  0  0  0  0  0
   -2.4094    0.2816   -2.6723 N   0  0  0  0  0  0  0  0  0  0  0  0
   -2.9086    1.5166   -3.1321 C   0  0  0  0  0  0  0  0  0  0  0  0
   -3.4688    2.4222   -2.2368 C   0  0  0  0  0  0  0  0  0  0  0  0
   -3.9183    3.6576   -2.6583 C   0  0  0  0  0  0  0  0  0  0  0  0
   -3.8161    4.0130   -3.9968 C   0  0  0  0  0  0  0  0  0  0  0  0
   -4.3045    5.5812   -4.6400 S   0  0  0  0  0  0  0  0  0  0  0  0
   -4.6946    6.5571   -3.1614 C   0  0  0  0  0  0  0  0  0  0  0  0
   -3.2874    3.0962   -4.9045 C   0  0  0  0  0  0  0  0  0  0  0  0
   -2.8320    1.8670   -4.4787 C   0  0  0  0  0  0  0  0  0  0  0  0
   -3.1360   -0.5449   -1.8129 C   0  0  0  0  0  0  0  0  0  0  0  0
   -4.4993   -0.3330   -1.6025 C   0  0  0  0  0  0  0  0  0  0  0  0
   -5.2255   -1.1381   -0.7471 C   0  0  0  0  0  0  0  0  0  0  0  0
   -4.6172   -2.2052   -0.1024 C   0  0  0  0  0  0  0  0  0  0  0  0
   -5.4338   -3.2607    1.0589 S   0  0  0  0  0  0  0  0  0  0  0  0
   -7.1953   -2.9766    0.7205 C   0  0  0  0  0  0  0  0  0  0  0  0
   -3.2764   -2.4685   -0.3603 C   0  0  0  0  0  0  0  0  0  0  0  0
   -2.5479   -1.6537   -1.1974 C   0  0  0  0  0  0  0  0  0  0  0  0
   -0.6602   -0.7161   -4.1664 C   0  0  0  0  0  0  0  0  0  0  0  0
   -1.3927   -1.1409   -5.6681 S   0  0  0  0  0  0  0  0  0  0  0  0
   -0.0678    0.5618   -0.7311 C   0  0  0  0  0  0  0  0  0  0  0  0
   -0.1150    1.8859   -0.3339 C   0  0  0  0  0  0  0  0  0  0  0  0
   -0.2106    2.9772   -1.1804 N   0  0  0  0  0  0  0  0  0  0  0  0
    0.3766    2.9213   -2.4542 C   0  0  0  0  0  0  0  0  0  0  0  0
   -0.2908    3.4489   -3.5576 C   0  0  0  0  0  0  0  0  0  0  0  0
    0.2512    3.3411   -4.8192 C   0  0  0  0  0  0  0  0  0  0  0  0
    1.4696    2.7018   -4.9991 C   0  0  0  0  0  0  0  0  0  0  0  0
    2.1617    2.5153   -6.6233 S   0  0  0  0  0  0  0  0  0  0  0  0
    0.7747    1.6973   -7.4701 C   0  0  0  0  0  0  0  0  0  0  0  0
    2.1727    2.2287   -3.9010 C   0  0  0  0  0  0  0  0  0  0  0  0
    1.6321    2.3435   -2.6350 C   0  0  0  0  0  0  0  0  0  0  0  0
   -0.9285    4.1139   -0.7862 C   0  0  0  0  0  0  0  0  0  0  0  0
   -2.0067    4.0205    0.0900 C   0  0  0  0  0  0  0  0  0  0  0  0
   -2.7303    5.1412    0.4501 C   0  0  0  0  0  0  0  0  0  0  0  0
   -2.3911    6.3838   -0.0638 C   0  0  0  0  0  0  0  0  0  0  0  0
   -3.2790    7.8742    0.2750 S   0  0  0  0  0  0  0  0  0  0  0  0
   -4.3368    7.4347    1.6830 C   0  0  0  0  0  0  0  0  0  0  0  0
   -1.3013    6.4875   -0.9271 C   0  0  0  0  0  0  0  0  0  0  0  0
   -0.5741    5.3728   -1.2757 C   0  0  0  0  0  0  0  0  0  0  0  0
   -0.0119    1.9857    1.0793 C   0  0  0  0  0  0  0  0  0  0  0  0
    0.0897    3.3131    2.1831 S   0  0  0  0  0  0  0  0  0  0  0  0
    0.2516    2.2037    3.5417 C   0  0  0  0  0  0  0  0  0  0  0  0
    0.2969    0.8669    3.1333 C   0  0  0  0  0  0  0  0  0  0  0  0
    0.5470   -0.2221    3.9209 N   0  0  0  0  0  0  0  0  0  0  0  0
    1.3979   -0.1622    5.0321 C   0  0  0  0  0  0  0  0  0  0  0  0
    2.5361    0.6452    5.0164 C   0  0  0  0  0  0  0  0  0  0  0  0
    3.3450    0.7209    6.1259 C   0  0  0  0  0  0  0  0  0  0  0  0
    3.0477   -0.0176    7.2713 C   0  0  0  0  0  0  0  0  0  0  0  0
    4.1291    0.1927    8.6423 S   0  0  0  0  0  0  0  0  0  0  0  0
    3.3623   -0.8044    9.9475 C   0  0  0  0  0  0  0  0  0  0  0  0
    1.9448   -0.8628    7.2707 C   0  0  0  0  0  0  0  0  0  0  0  0
    1.1301   -0.9326    6.1602 C   0  0  0  0  0  0  0  0  0  0  0  0
   -0.0335   -1.4497    3.5566 C   0  0  0  0  0  0  0  0  0  0  0  0
    0.7221   -2.6179    3.5470 C   0  0  0  0  0  0  0  0  0  0  0  0
    0.1582   -3.8139    3.1495 C   0  0  0  0  0  0  0  0  0  0  0  0
   -1.1771   -3.8614    2.7652 C   0  0  0  0  0  0  0  0  0  0  0  0
   -1.9968   -5.3128    2.2017 S   0  0  0  0  0  0  0  0  0  0  0  0
   -0.7155   -6.5981    2.2611 C   0  0  0  0  0  0  0  0  0  0  0  0
   -1.9467   -2.6976    2.8099 C   0  0  0  0  0  0  0  0  0  0  0  0
   -1.3803   -1.5046    3.1933 C   0  0  0  0  0  0  0  0  0  0  0  0
    0.1204    0.7710    1.7277 C   0  0  0  0  0  0  0  0  0  0  0  0
    0.1462   -0.5477    0.6158 S   0  0  0  0  0  0  0  0  0  0  0  0
    0.2530    2.7133    4.8703 C   0  0  0  0  0  0  0  0  0  0  0  0
    0.4809    4.0755    5.1496 C   0  0  0  0  0  0  0  0  0  0  0  0
    0.5617    4.4745    6.4541 C   0  0  0  0  0  0  0  0  0  0  0  0
    0.3922    3.5369    7.5029 C   0  0  0  0  0  0  0  0  0  0  0  0
    0.0622    2.2247    7.1026 C   0  0  0  0  0  0  0  0  0  0  0  0
    0.0023    1.8373    5.8582 N   0  0  0  0  0  0  0  0  0  0  0  0
    0.4910    4.0194    8.8336 C   0  0  0  0  0  0  0  0  0  0  0  0
    0.5148    3.4168   10.0671 C   0  0  0  0  0  0  0  0  0  0  0  0
    0.6479    1.9875   10.4059 C   0  0  0  0  0  0  0  0  0  0  0  0
    0.6668    1.0188    9.6769 O   0  0  0  0  0  0  0  0  0  0  0  0
    0.8048    1.9441   11.8829 C   0  0  0  0  0  0  0  0  0  0  0  0
    0.7520    3.2452   12.4084 C   0  0  0  0  0  0  0  0  0  0  0  0
    0.8911    3.4600   13.7696 C   0  0  0  0  0  0  0  0  0  0  0  0
    1.0771    2.3572   14.5906 C   0  0  0  0  0  0  0  0  0  0  0  0
    1.2174    2.5422   15.9053 F   0  0  0  0  0  0  0  0  0  0  0  0
    1.1207    1.0595   14.0866 C   0  0  0  0  0  0  0  0  0  0  0  0
    1.2953    0.0205   14.9084 F   0  0  0  0  0  0  0  0  0  0  0  0
    0.9819    0.8524   12.7134 C   0  0  0  0  0  0  0  0  0  0  0  0
    1.0202   -0.3919   12.2361 F   0  0  0  0  0  0  0  0  0  0  0  0
    0.5315    4.1782   11.3041 C   0  0  0  0  0  0  0  0  0  0  0  0
    0.3110    5.5236   11.4608 C   0  0  0  0  0  0  0  0  0  0  0  0
    0.3331    6.1913   12.7039 C   0  0  0  0  0  0  0  0  0  0  0  0
    0.3385    6.8007   13.6768 N   0  0  0  0  0  0  0  0  0  0  0  0
   -0.0015    6.4488   10.4411 C   0  0  0  0  0  0  0  0  0  0  0  0
   -0.2829    7.2786    9.6977 N   0  0  0  0  0  0  0  0  0  0  0  0
   -0.5385   -1.8733   -8.2158 H   0  0  0  0  0  0  0  0  0  0  0  0
    0.8617   -3.6895   -3.4363 H   0  0  0  0  0  0  0  0  0  0  0  0
    1.5034   -5.6933   -2.2030 H   0  0  0  0  0  0  0  0  0  0  0  0
    4.7111   -9.3274   -3.1454 H   0  0  0  0  0  0  0  0  0  0  0  0
    4.1891   -8.2167   -4.4389 H   0  0  0  0  0  0  0  0  0  0  0  0
    5.7351   -7.9389   -3.5671 H   0  0  0  0  0  0  0  0  0  0  0  0
    5.2691   -5.7508   -4.2223 H   0  0  0  0  0  0  0  0  0  0  0  0
    4.6307   -3.7491   -5.4703 H   0  0  0  0  0  0  0  0  0  0  0  0
    4.2618   -1.5782   -3.6973 H   0  0  0  0  0  0  0  0  0  0  0  0
    5.8936    0.2023   -4.2099 H   0  0  0  0  0  0  0  0  0  0  0  0
    5.9597    1.9803   -8.8162 H   0  0  0  0  0  0  0  0  0  0  0  0
    4.7510    2.8933   -7.8487 H   0  0  0  0  0  0  0  0  0  0  0  0
    6.4077    3.5151   -8.0435 H   0  0  0  0  0  0  0  0  0  0  0  0
    4.2347    0.5800   -8.1344 H   0  0  0  0  0  0  0  0  0  0  0  0
    2.6154   -1.1694   -7.6188 H   0  0  0  0  0  0  0  0  0  0  0  0
   -3.5492    2.1545   -1.1953 H   0  0  0  0  0  0  0  0  0  0  0  0
   -4.3312    4.3367   -1.9305 H   0  0  0  0  0  0  0  0  0  0  0  0
   -4.9095    7.5583   -3.5215 H   0  0  0  0  0  0  0  0  0  0  0  0
   -5.5713    6.1513   -2.6648 H   0  0  0  0  0  0  0  0  0  0  0  0
   -3.8361    6.5821   -2.4963 H   0  0  0  0  0  0  0  0  0  0  0  0
   -3.2339    3.3663   -5.9479 H   0  0  0  0  0  0  0  0  0  0  0  0
   -2.4204    1.1734   -5.1943 H   0  0  0  0  0  0  0  0  0  0  0  0
   -5.0074    0.4650   -2.1215 H   0  0  0  0  0  0  0  0  0  0  0  0
   -6.2719   -0.9222   -0.6004 H   0  0  0  0  0  0  0  0  0  0  0  0
   -7.3819   -3.0860   -0.3435 H   0  0  0  0  0  0  0  0  0  0  0  0
   -7.7283   -3.7444    1.2724 H   0  0  0  0  0  0  0  0  0  0  0  0
   -7.4965   -1.9950    1.0752 H   0  0  0  0  0  0  0  0  0  0  0  0
   -2.8073   -3.3242    0.0989 H   0  0  0  0  0  0  0  0  0  0  0  0
   -1.5154   -1.9052   -1.3796 H   0  0  0  0  0  0  0  0  0  0  0  0
   -1.2366    3.9457   -3.4196 H   0  0  0  0  0  0  0  0  0  0  0  0
   -0.2803    3.7543   -5.6621 H   0  0  0  0  0  0  0  0  0  0  0  0
    1.1346    1.4191   -8.4550 H   0  0  0  0  0  0  0  0  0  0  0  0
   -0.0673    2.3755   -7.5614 H   0  0  0  0  0  0  0  0  0  0  0  0
    0.4969    0.8103   -6.9090 H   0  0  0  0  0  0  0  0  0  0  0  0
    3.1379    1.7670   -4.0441 H   0  0  0  0  0  0  0  0  0  0  0  0
    2.1821    1.9781   -1.7802 H   0  0  0  0  0  0  0  0  0  0  0  0
   -2.2991    3.0615    0.4889 H   0  0  0  0  0  0  0  0  0  0  0  0
   -3.5641    5.0251    1.1238 H   0  0  0  0  0  0  0  0  0  0  0  0
   -5.1170    6.7462    1.3711 H   0  0  0  0  0  0  0  0  0  0  0  0
   -4.7834    8.3669    2.0146 H   0  0  0  0  0  0  0  0  0  0  0  0
   -3.7296    7.0114    2.4774 H   0  0  0  0  0  0  0  0  0  0  0  0
   -1.0287    7.4574   -1.3140 H   0  0  0  0  0  0  0  0  0  0  0  0
    0.2775    5.4726   -1.9308 H   0  0  0  0  0  0  0  0  0  0  0  0
    2.7768    1.2205    4.1344 H   0  0  0  0  0  0  0  0  0  0  0  0
    4.2193    1.3541    6.1219 H   0  0  0  0  0  0  0  0  0  0  0  0
    3.9306   -0.6021   10.8501 H   0  0  0  0  0  0  0  0  0  0  0  0
    3.4308   -1.8595    9.6993 H   0  0  0  0  0  0  0  0  0  0  0  0
    2.3303   -0.4922   10.0714 H   0  0  0  0  0  0  0  0  0  0  0  0
    1.6959   -1.4534    8.1357 H   0  0  0  0  0  0  0  0  0  0  0  0
    0.2576   -1.5675    6.1745 H   0  0  0  0  0  0  0  0  0  0  0  0
    1.7611   -2.5822    3.8392 H   0  0  0  0  0  0  0  0  0  0  0  0
    0.7735   -4.6986    3.1357 H   0  0  0  0  0  0  0  0  0  0  0  0
    0.1075   -6.3367    1.6026 H   0  0  0  0  0  0  0  0  0  0  0  0
   -0.3771   -6.7402    3.2832 H   0  0  0  0  0  0  0  0  0  0  0  0
   -1.1971   -7.5034    1.9045 H   0  0  0  0  0  0  0  0  0  0  0  0
   -2.9910   -2.7484    2.5436 H   0  0  0  0  0  0  0  0  0  0  0  0
   -1.9771   -0.6054    3.2277 H   0  0  0  0  0  0  0  0  0  0  0  0
    0.6158    4.7746    4.3378 H   0  0  0  0  0  0  0  0  0  0  0  0
    0.7679    5.5077    6.6959 H   0  0  0  0  0  0  0  0  0  0  0  0
   -0.1691    1.4615    7.8287 H   0  0  0  0  0  0  0  0  0  0  0  0
    0.5725    5.1003    8.8670 H   0  0  0  0  0  0  0  0  0  0  0  0
    0.8649    4.4391   14.2178 H   0  0  0  0  0  0  0  0  0  0  0  0
  1  2  2  0  0  0  0
  2  3  1  0  0  0  0
  3  4  2  0  0  0  0
  3  5  1  0  0  0  0
  5  6  2  0  0  0  0
  6  7  1  0  0  0  0
  6  8  1  0  0  0  0
  8  9  1  0  0  0  0
  8 10  2  0  0  0  0
 10 11  1  0  0  0  0
 10 12  1  0  0  0  0
 12 13  1  0  0  0  0
 12 14  2  0  0  0  0
 14 15  1  0  0  0  0
 15 16  2  0  0  0  0
 16 17  1  0  0  0  0
 17 18  3  0  0  0  0
 16 19  1  0  0  0  0
 19 20  3  0  0  0  0
  1 21  1  0  0  0  0
 21 22  2  0  0  0  0
 22 23  1  0  0  0  0
 23 24  1  0  0  0  0
 24 25  2  0  0  0  0
 25 26  1  0  0  0  0
 26 27  2  0  0  0  0
 27 28  1  0  0  0  0
 28 29  1  0  0  0  0
 27 30  1  0  0  0  0
 30 31  2  0  0  0  0
 23 32  1  0  0  0  0
 32 33  2  0  0  0  0
 33 34  1  0  0  0  0
 34 35  2  0  0  0  0
 35 36  1  0  0  0  0
 36 37  1  0  0  0  0
 35 38  1  0  0  0  0
 38 39  2  0  0  0  0
 22 40  1  0  0  0  0
 40 41  1  0  0  0  0
 41 42  1  0  0  0  0
 42 43  2  0  0  0  0
 43 44  1  0  0  0  0
 44 45  1  0  0  0  0
 45 46  2  0  0  0  0
 46 47  1  0  0  0  0
 47 48  2  0  0  0  0
 48 49  1  0  0  0  0
 49 50  1  0  0  0  0
 48 51  1  0  0  0  0
 51 52  2  0  0  0  0
 44 53  1  0  0  0  0
 53 54  2  0  0  0  0
 54 55  1  0  0  0  0
 55 56  2  0  0  0  0
 56 57  1  0  0  0  0
 57 58  1  0  0  0  0
 56 59  1  0  0  0  0
 59 60  2  0  0  0  0
 43 61  1  0  0  0  0
 61 62  1  0  0  0  0
 42 63  1  0  0  0  0
 63 64  2  0  0  0  0
 64 65  1  0  0  0  0
 65 66  1  0  0  0  0
 66 67  2  0  0  0  0
 67 68  1  0  0  0  0
 68 69  2  0  0  0  0
 69 70  1  0  0  0  0
 70 71  1  0  0  0  0
 69 72  1  0  0  0  0
 72 73  2  0  0  0  0
 65 74  1  0  0  0  0
 74 75  2  0  0  0  0
 75 76  1  0  0  0  0
 76 77  2  0  0  0  0
 77 78  1  0  0  0  0
 78 79  1  0  0  0  0
 77 80  1  0  0  0  0
 80 81  2  0  0  0  0
 64 82  1  0  0  0  0
 82 83  1  0  0  0  0
 83 84  1  0  0  0  0
 84 85  2  0  0  0  0
 85 86  1  0  0  0  0
 86 87  1  0  0  0  0
 87 88  2  0  0  0  0
 88 89  1  0  0  0  0
 89 90  2  0  0  0  0
 90 91  1  0  0  0  0
 91 92  1  0  0  0  0
 90 93  1  0  0  0  0
 93 94  2  0  0  0  0
 86 95  1  0  0  0  0
 95 96  2  0  0  0  0
 96 97  1  0  0  0  0
 97 98  2  0  0  0  0
 98 99  1  0  0  0  0
 99100  1  0  0  0  0
 98101  1  0  0  0  0
101102  2  0  0  0  0
 85103  1  0  0  0  0
103104  1  0  0  0  0
 84105  1  0  0  0  0
105106  2  0  0  0  0
106107  1  0  0  0  0
107108  2  0  0  0  0
108109  1  0  0  0  0
109110  2  0  0  0  0
108111  1  0  0  0  0
111112  2  0  0  0  0
112113  1  0  0  0  0
113114  2  0  0  0  0
113115  1  0  0  0  0
115116  2  0  0  0  0
116117  1  0  0  0  0
117118  2  0  0  0  0
118119  1  0  0  0  0
118120  1  0  0  0  0
120121  1  0  0  0  0
120122  2  0  0  0  0
122123  1  0  0  0  0
116124  1  0  0  0  0
124125  2  0  0  0  0
125126  1  0  0  0  0
126127  3  0  0  0  0
125128  1  0  0  0  0
128129  3  0  0  0  0
 15  2  1  0  0  0  0
 62 21  1  0  0  0  0
104 63  1  0  0  0  0
110105  1  0  0  0  0
124112  1  0  0  0  0
 14  5  1  0  0  0  0
 31 24  1  0  0  0  0
 39 32  1  0  0  0  0
 61 40  2  0  0  0  0
 73 66  1  0  0  0  0
 81 74  1  0  0  0  0
103 82  2  0  0  0  0
122115  1  0  0  0  0
 52 45  1  0  0  0  0
 60 53  1  0  0  0  0
 94 87  1  0  0  0  0
102 95  1  0  0  0  0
  1130  1  0  0  0  0
 25131  1  0  0  0  0
 26132  1  0  0  0  0
 29133  1  0  0  0  0
 29134  1  0  0  0  0
 29135  1  0  0  0  0
 30136  1  0  0  0  0
 31137  1  0  0  0  0
 33138  1  0  0  0  0
 34139  1  0  0  0  0
 37140  1  0  0  0  0
 37141  1  0  0  0  0
 37142  1  0  0  0  0
 38143  1  0  0  0  0
 39144  1  0  0  0  0
 46145  1  0  0  0  0
 47146  1  0  0  0  0
 50147  1  0  0  0  0
 50148  1  0  0  0  0
 50149  1  0  0  0  0
 51150  1  0  0  0  0
 52151  1  0  0  0  0
 54152  1  0  0  0  0
 55153  1  0  0  0  0
 58154  1  0  0  0  0
 58155  1  0  0  0  0
 58156  1  0  0  0  0
 59157  1  0  0  0  0
 60158  1  0  0  0  0
 67159  1  0  0  0  0
 68160  1  0  0  0  0
 71161  1  0  0  0  0
 71162  1  0  0  0  0
 71163  1  0  0  0  0
 72164  1  0  0  0  0
 73165  1  0  0  0  0
 75166  1  0  0  0  0
 76167  1  0  0  0  0
 79168  1  0  0  0  0
 79169  1  0  0  0  0
 79170  1  0  0  0  0
 80171  1  0  0  0  0
 81172  1  0  0  0  0
 88173  1  0  0  0  0
 89174  1  0  0  0  0
 92175  1  0  0  0  0
 92176  1  0  0  0  0
 92177  1  0  0  0  0
 93178  1  0  0  0  0
 94179  1  0  0  0  0
 96180  1  0  0  0  0
 97181  1  0  0  0  0
100182  1  0  0  0  0
100183  1  0  0  0  0
100184  1  0  0  0  0
101185  1  0  0  0  0
102186  1  0  0  0  0
106187  1  0  0  0  0
107188  1  0  0  0  0
109189  1  0  0  0  0
111190  1  0  0  0  0
117191  1  0  0  0  0
M  END
