135

C         -0.76340        7.56000        2.22090
C         -1.85350        8.12420        2.81740
C         -2.75210        7.42730        3.76250
O         -2.57290        6.36370        4.30910
C         -3.85960        8.38110        4.01920
C         -5.04480        8.15990        4.69530
Cl        -5.35590        6.67540        5.47680
C         -6.00480        9.18100        4.70500
Cl        -7.47470        8.96430        5.55030
C         -5.77960       10.35500        3.98820
Cl        -7.00330       11.54980        3.93760
C         -4.57780       10.56930        3.29380
Cl        -4.45950       11.95620        2.29230
C         -3.58230        9.60180        3.37210
C         -2.24360        9.52220        2.78890
C         -1.45380       10.57750        2.41360
C         -1.67380       11.92870        2.76170
N         -1.69680       13.02610        3.09680
C         -0.21380       10.46910        1.74940
N          0.78030       10.49930        1.17440
C         -0.53730        6.16790        2.06500
C          0.77570        5.65890        1.95610
C          1.06340        4.25570        1.74310
N          2.37600        4.02330        1.67010
S          3.16410        5.40680        1.85730
N          1.89580        6.37980        2.02800
C          0.04510        3.31870        1.49200
C         -1.26650        3.81620        1.61900
N         -2.38250        3.09060        1.49370
S         -3.64850        4.05650        1.67000
N         -2.87000        5.43470        1.90320
C         -1.55630        5.20560        1.90220
C          0.30910        2.00170        1.00740
C         -0.32970        1.38370       -0.06840
N         -1.19570        2.00190       -0.94440
C         -2.23180        1.25340       -1.51010
C         -2.86020        0.25300       -0.76500
C         -3.85260       -0.51170       -1.33140
C         -4.25160       -0.29060       -2.64950
S         -5.52010       -1.34720       -3.26570
C         -5.81670       -0.74970       -4.95360
C         -3.64740        0.72190       -3.38480
C         -2.64410        1.48410       -2.81970
C         -1.06260        3.37360       -1.20650
C          0.20420        3.94460       -1.31250
C          0.35890        5.31280       -1.39370
C         -0.75670        6.14300       -1.37570
S         -0.67330        7.90080       -1.33450
C          1.09180        8.24660       -1.09340
C         -2.02730        5.56810       -1.38190
C         -2.18120        4.20130       -1.30580
C          0.15300        0.06480       -0.24180
S         -0.18240       -1.21110       -1.35650
C          1.04900       -2.21560       -0.62370
C          1.67770       -1.59000        0.44220
N          2.58570       -2.17960        1.30770
C          3.73870       -2.78590        0.77890
C          4.54490       -2.06370       -0.09800
C          5.64730       -2.65990       -0.66300
C          5.94710       -3.99360       -0.38190
S          7.25680       -4.69770       -1.32220
C          7.46610       -6.36590       -0.65000
C          5.16750       -4.70420        0.52360
C          4.07420       -4.09520        1.10740
C          2.36970       -2.12400        2.68050
C          3.44540       -2.19750        3.57010
C          3.23020       -2.12830        4.92620
C          1.94050       -1.97630        5.43590
S          1.79480       -1.88830        7.18990
C          0.04850       -1.47640        7.46540
C          0.86650       -1.91630        4.55710
C          1.07980       -1.99490        3.19610
C          1.15890       -0.28530        0.64280
S          1.56710        1.01140        1.71480
C          1.13460       -3.58540       -1.07270
C          0.00120       -4.41110       -0.95250
C          0.00190       -5.82480       -1.28410
N         -1.19450       -6.37020       -1.05290
S         -2.19870       -5.24720       -0.48440
N         -1.18380       -4.01050       -0.48330
C          1.16760       -6.47710       -1.73730
C          2.24740       -5.60160       -2.01450
N          3.34130       -5.93460       -2.70200
S          4.24350       -4.63280       -2.93780
N          3.31850       -3.56810       -2.17820
C          2.23340       -4.18840       -1.70120
C          1.33750       -7.87020       -1.97220
C          2.55150       -8.52210       -1.94240
C          3.72840       -8.05190       -1.35170
N          4.62810       -7.69070       -0.73520
C          2.35520       -9.85380       -2.45600
C          3.30660      -10.82080       -2.65400
C          4.66410      -10.60060       -2.36240
N          5.78180      -10.45380       -2.14640
C          2.96980      -12.07970       -3.18780
N          2.70390      -13.10910       -3.61830
O          1.07060      -10.03640       -2.77550
C          0.29680       -8.88490       -2.38780
C         -0.53060       -8.42030       -3.58190
C         -0.59340       -9.32610       -1.22120
H          0.01060        8.19780        1.81530
H         -2.57470        0.09870        0.26370
H         -4.33820       -1.28690       -0.75930
H         -6.14360        0.28570       -4.92900
H         -4.91960       -0.86880       -5.55400
H         -6.60990       -1.37640       -5.34920
H         -3.93920        0.92150       -4.40300
H         -2.16730        2.25920       -3.40110
H          1.07800        3.30950       -1.30400
H          1.35390        5.72150       -1.46510
H          1.64630        8.00640       -1.99590
H          1.15430        9.31110       -0.88780
H          1.46270        7.69400       -0.23520
H         -2.89230        6.21250       -1.41420
H         -3.16950        3.76620       -1.27850
H          4.29040       -1.04260       -0.33590
H          6.27430       -2.11520       -1.35130
H          7.71420       -6.30260        0.40530
H          8.29510       -6.80000       -1.20020
H          6.56550       -6.95330       -0.81430
H          5.37780       -5.73650        0.74770
H          3.45370       -4.64700        1.79850
H          4.44940       -2.29510        3.18680
H          4.06160       -2.17820        5.61220
H         -0.20150       -0.56110        6.93720
H         -0.05000       -1.32400        8.53560
H         -0.58570       -2.30100        7.15290
H         -0.14450       -1.81940        4.91820
H          0.23320       -1.96920        2.52610
H         -1.15540       -9.23920       -3.92740
H          0.12160       -8.10800       -4.39480
H         -1.15820       -7.58770       -3.28050
H         -1.22840      -10.14220       -1.55480
H          0.02330       -9.67640       -0.39550
H         -1.20350       -8.49270       -0.89080
