
  xtb     02042205473D
 energy: -273.130801924743 gnorm: 0.000965188475 xtb: 6.4.1 (unknown)
133148  0     0  0            999 V2000
   -2.0066    3.4096   -6.6611 C   0  0  0  0  0  0  0  0  0  0  0  0
   -3.2399    3.6603   -7.1998 C   0  0  0  0  0  0  0  0  0  0  0  0
   -3.5460    5.0121   -7.7155 C   0  0  0  0  0  0  0  0  0  0  0  0
   -2.7623    5.9092   -7.9274 O   0  0  0  0  0  0  0  0  0  0  0  0
   -5.0271    5.0556   -7.8157 C   0  0  0  0  0  0  0  0  0  0  0  0
   -5.8526    6.1419   -8.0392 C   0  0  0  0  0  0  0  0  0  0  0  0
   -5.2147    7.6791   -8.4209 Cl  0  0  0  0  0  0  0  0  0  0  0  0
   -7.2382    5.9594   -7.9282 C   0  0  0  0  0  0  0  0  0  0  0  0
   -8.2968    7.2712   -8.2207 Cl  0  0  0  0  0  0  0  0  0  0  0  0
   -7.7530    4.7243   -7.5399 C   0  0  0  0  0  0  0  0  0  0  0  0
   -9.4402    4.5491   -7.3222 Cl  0  0  0  0  0  0  0  0  0  0  0  0
   -6.9096    3.6265   -7.3065 C   0  0  0  0  0  0  0  0  0  0  0  0
   -7.5823    2.1821   -6.6746 Cl  0  0  0  0  0  0  0  0  0  0  0  0
   -5.5471    3.7834   -7.5025 C   0  0  0  0  0  0  0  0  0  0  0  0
   -4.4268    2.8571   -7.3499 C   0  0  0  0  0  0  0  0  0  0  0  0
   -4.4124    1.5168   -7.6315 C   0  0  0  0  0  0  0  0  0  0  0  0
   -3.2183    0.7632   -7.6035 C   0  0  0  0  0  0  0  0  0  0  0  0
   -2.2703    0.1164   -7.6085 N   0  0  0  0  0  0  0  0  0  0  0  0
   -5.4930    0.7546   -8.1162 C   0  0  0  0  0  0  0  0  0  0  0  0
   -6.2953    0.0726   -8.5734 N   0  0  0  0  0  0  0  0  0  0  0  0
   -1.6067    2.4700   -5.6910 C   0  0  0  0  0  0  0  0  0  0  0  0
   -2.4560    1.6847   -4.8714 C   0  0  0  0  0  0  0  0  0  0  0  0
   -1.9803    1.0462   -3.6616 C   0  0  0  0  0  0  0  0  0  0  0  0
   -2.9435    0.3616   -3.0459 N   0  0  0  0  0  0  0  0  0  0  0  0
   -4.3052    0.5000   -3.8834 S   0  0  0  0  0  4  0  0  0  0  0  0
   -3.7569    1.4647   -5.0457 N   0  0  0  0  0  0  0  0  0  0  0  0
   -0.6425    1.1512   -3.2183 C   0  0  0  0  0  0  0  0  0  0  0  0
    0.2463    1.6778   -4.1821 C   0  0  0  0  0  0  0  0  0  0  0  0
    1.5714    1.7376   -4.0667 N   0  0  0  0  0  0  0  0  0  0  0  0
    2.1668    2.5675   -5.3095 S   0  0  0  0  0  0  0  0  0  0  0  0
    0.7752    2.9143   -6.0372 N   0  0  0  0  0  0  0  0  0  0  0  0
   -0.2306    2.3708   -5.3550 C   0  0  0  0  0  0  0  0  0  0  0  0
   -0.2018    0.8636   -1.9077 C   0  0  0  0  0  0  0  0  0  0  0  0
   -0.9030    0.9760   -0.6946 C   0  0  0  0  0  0  0  0  0  0  0  0
   -2.1384    1.5475   -0.5056 N   0  0  0  0  0  0  0  0  0  0  0  0
   -2.8842    1.0819    0.5942 C   0  0  0  0  0  0  0  0  0  0  0  0
   -3.0266   -0.2918    0.7931 C   0  0  0  0  0  0  0  0  0  0  0  0
   -3.6335   -0.7645    1.9334 C   0  0  0  0  0  0  0  0  0  0  0  0
   -4.1076    0.1244    2.8974 C   0  0  0  0  0  0  0  0  0  0  0  0
   -4.7790   -0.5892    4.3601 S   0  0  0  0  0  0  0  0  0  0  0  0
   -4.8716    0.8104    5.5135 C   0  0  0  0  0  0  0  0  0  0  0  0
   -4.0310    1.4927    2.6658 C   0  0  0  0  0  0  0  0  0  0  0  0
   -3.4236    1.9680    1.5201 C   0  0  0  0  0  0  0  0  0  0  0  0
   -2.6269    2.5729   -1.3153 C   0  0  0  0  0  0  0  0  0  0  0  0
   -3.9966    2.6736   -1.5704 C   0  0  0  0  0  0  0  0  0  0  0  0
   -4.4681    3.5856   -2.4871 C   0  0  0  0  0  0  0  0  0  0  0  0
   -3.5912    4.4360   -3.1628 C   0  0  0  0  0  0  0  0  0  0  0  0
   -4.2886    5.4576   -4.4150 S   0  0  0  0  0  0  0  0  0  0  0  0
   -2.9561    6.6133   -4.8348 C   0  0  0  0  0  0  0  0  0  0  0  0
   -2.2393    4.4085   -2.8359 C   0  0  0  0  0  0  0  0  0  0  0  0
   -1.7685    3.4951   -1.9152 C   0  0  0  0  0  0  0  0  0  0  0  0
   -0.0953    0.5474    0.3828 C   0  0  0  0  0  0  0  0  0  0  0  0
   -0.3724    0.3417    2.0818 S   0  0  0  0  0  0  0  0  0  0  0  0
    1.3011   -0.1291    2.3125 C   0  0  0  0  0  0  0  0  0  0  0  0
    2.0020   -0.2384    1.0983 C   0  0  0  0  0  0  0  0  0  0  0  0
    3.2320   -0.8195    0.9225 N   0  0  0  0  0  0  0  0  0  0  0  0
    4.0048   -0.3782   -0.1634 C   0  0  0  0  0  0  0  0  0  0  0  0
    4.1346    0.9912   -0.4016 C   0  0  0  0  0  0  0  0  0  0  0  0
    4.7866    1.4380   -1.5269 C   0  0  0  0  0  0  0  0  0  0  0  0
    5.3218    0.5281   -2.4382 C   0  0  0  0  0  0  0  0  0  0  0  0
    6.0591    1.2111   -3.8834 S   0  0  0  0  0  0  0  0  0  0  0  0
    6.2951   -0.2255   -4.9680 C   0  0  0  0  0  0  0  0  0  0  0  0
    5.2506   -0.8337   -2.1687 C   0  0  0  0  0  0  0  0  0  0  0  0
    4.5971   -1.2829   -1.0383 C   0  0  0  0  0  0  0  0  0  0  0  0
    3.6650   -1.8655    1.7401 C   0  0  0  0  0  0  0  0  0  0  0  0
    5.0191   -2.0150    2.0457 C   0  0  0  0  0  0  0  0  0  0  0  0
    5.4231   -2.9737    2.9472 C   0  0  0  0  0  0  0  0  0  0  0  0
    4.4911   -3.8140    3.5596 C   0  0  0  0  0  0  0  0  0  0  0  0
    5.1025   -4.9401    4.7594 S   0  0  0  0  0  0  0  0  0  0  0  0
    3.6552   -5.9334    5.2115 C   0  0  0  0  0  0  0  0  0  0  0  0
    3.1502   -3.7170    3.2004 C   0  0  0  0  0  0  0  0  0  0  0  0
    2.7493   -2.7606    2.2934 C   0  0  0  0  0  0  0  0  0  0  0  0
    1.1965    0.1929    0.0204 C   0  0  0  0  0  0  0  0  0  0  0  0
    1.4706    0.3888   -1.6795 S   0  0  0  0  0  0  0  0  0  0  0  0
    1.7487   -0.3526    3.6340 C   0  0  0  0  0  0  0  0  0  0  0  0
    3.0792   -0.1924    4.0826 C   0  0  0  0  0  0  0  0  0  0  0  0
    3.4880   -0.5568    5.4216 C   0  0  0  0  0  0  0  0  0  0  0  0
    4.7735   -0.2857    5.6350 N   0  0  0  0  0  0  0  0  0  0  0  0
    5.3960    0.3927    4.3193 S   0  0  0  0  0  4  0  0  0  0  0  0
    4.0836    0.3494    3.3919 N   0  0  0  0  0  0  0  0  0  0  0  0
    2.6151   -1.1717    6.3497 C   0  0  0  0  0  0  0  0  0  0  0  0
    1.2588   -1.2013    5.9466 C   0  0  0  0  0  0  0  0  0  0  0  0
    0.2169   -1.5538    6.6966 N   0  0  0  0  0  0  0  0  0  0  0  0
   -1.1359   -1.3729    5.8520 S   0  0  0  0  0  0  0  0  0  0  0  0
   -0.4839   -0.8165    4.4902 N   0  0  0  0  0  0  0  0  0  0  0  0
    0.8378   -0.7503    4.6405 C   0  0  0  0  0  0  0  0  0  0  0  0
    3.0749   -1.6176    7.6069 C   0  0  0  0  0  0  0  0  0  0  0  0
    2.5363   -2.6682    8.3066 C   0  0  0  0  0  0  0  0  0  0  0  0
    1.7876   -3.7736    7.6676 C   0  0  0  0  0  0  0  0  0  0  0  0
    1.5349   -3.9215    6.4863 O   0  0  0  0  0  0  0  0  0  0  0  0
    1.5712   -4.7524    8.7417 C   0  0  0  0  0  0  0  0  0  0  0  0
    2.1787   -4.2833    9.9508 C   0  0  0  0  0  0  0  0  0  0  0  0
    2.0364   -5.1435   10.9924 C   0  0  0  0  0  0  0  0  0  0  0  0
    1.1566   -6.5549   10.5219 S   0  0  0  0  0  0  0  0  0  0  0  0
    0.9841   -5.9713    8.8811 C   0  0  0  0  0  0  0  0  0  0  0  0
    0.1659   -6.8808    7.7051 Cl  0  0  0  0  0  0  0  0  0  0  0  0
    2.7808   -2.9880    9.6944 C   0  0  0  0  0  0  0  0  0  0  0  0
    3.3892   -2.2040   10.6419 C   0  0  0  0  0  0  0  0  0  0  0  0
    3.5346   -2.6437   11.9722 C   0  0  0  0  0  0  0  0  0  0  0  0
    3.6628   -2.9957   13.0573 N   0  0  0  0  0  0  0  0  0  0  0  0
    3.8913   -0.9079   10.4176 C   0  0  0  0  0  0  0  0  0  0  0  0
    4.3016    0.1594   10.3094 N   0  0  0  0  0  0  0  0  0  0  0  0
   -1.2354    4.1264   -6.9284 H   0  0  0  0  0  0  0  0  0  0  0  0
   -2.6443   -0.9737    0.0489 H   0  0  0  0  0  0  0  0  0  0  0  0
   -3.7326   -1.8251    2.1031 H   0  0  0  0  0  0  0  0  0  0  0  0
   -5.1150    0.3796    6.4796 H   0  0  0  0  0  0  0  0  0  0  0  0
   -5.6565    1.4984    5.2131 H   0  0  0  0  0  0  0  0  0  0  0  0
   -3.9062    1.3051    5.5595 H   0  0  0  0  0  0  0  0  0  0  0  0
   -4.4251    2.1995    3.3776 H   0  0  0  0  0  0  0  0  0  0  0  0
   -3.3408    3.0317    1.3530 H   0  0  0  0  0  0  0  0  0  0  0  0
   -4.6777    1.9945   -1.0800 H   0  0  0  0  0  0  0  0  0  0  0  0
   -5.5215    3.6343   -2.7153 H   0  0  0  0  0  0  0  0  0  0  0  0
   -3.3913    7.3188   -5.5357 H   0  0  0  0  0  0  0  0  0  0  0  0
   -2.6272    7.1324   -3.9397 H   0  0  0  0  0  0  0  0  0  0  0  0
   -2.1385    6.0879   -5.3193 H   0  0  0  0  0  0  0  0  0  0  0  0
   -1.5422    5.0854   -3.3026 H   0  0  0  0  0  0  0  0  0  0  0  0
   -0.7159    3.4824   -1.6742 H   0  0  0  0  0  0  0  0  0  0  0  0
    3.7129    1.6905    0.3040 H   0  0  0  0  0  0  0  0  0  0  0  0
    4.8793    2.4944   -1.7245 H   0  0  0  0  0  0  0  0  0  0  0  0
    7.0773   -0.8701   -4.5776 H   0  0  0  0  0  0  0  0  0  0  0  0
    6.6010    0.1788   -5.9279 H   0  0  0  0  0  0  0  0  0  0  0  0
    5.3558   -0.7598   -5.0732 H   0  0  0  0  0  0  0  0  0  0  0  0
    5.6860   -1.5562   -2.8396 H   0  0  0  0  0  0  0  0  0  0  0  0
    4.5207   -2.3424   -0.8438 H   0  0  0  0  0  0  0  0  0  0  0  0
    5.7405   -1.3465    1.6008 H   0  0  0  0  0  0  0  0  0  0  0  0
    6.4656   -3.0718    3.2080 H   0  0  0  0  0  0  0  0  0  0  0  0
    3.3116   -6.4941    4.3470 H   0  0  0  0  0  0  0  0  0  0  0  0
    3.9990   -6.6165    5.9824 H   0  0  0  0  0  0  0  0  0  0  0  0
    2.8698   -5.2930    5.6046 H   0  0  0  0  0  0  0  0  0  0  0  0
    2.4089   -4.3686    3.6311 H   0  0  0  0  0  0  0  0  0  0  0  0
    1.7068   -2.6999    2.0192 H   0  0  0  0  0  0  0  0  0  0  0  0
    3.9414   -1.1005    8.0002 H   0  0  0  0  0  0  0  0  0  0  0  0
    2.3882   -5.0571   12.0011 H   0  0  0  0  0  0  0  0  0  0  0  0
  1  2  2  0  0  0  0
  2  3  1  0  0  0  0
  3  4  2  0  0  0  0
  3  5  1  0  0  0  0
  5  6  2  0  0  0  0
  6  7  1  0  0  0  0
  6  8  1  0  0  0  0
  8  9  1  0  0  0  0
  8 10  2  0  0  0  0
 10 11  1  0  0  0  0
 10 12  1  0  0  0  0
 12 13  1  0  0  0  0
 12 14  2  0  0  0  0
 14 15  1  0  0  0  0
 15 16  2  0  0  0  0
 16 17  1  0  0  0  0
 17 18  3  0  0  0  0
 16 19  1  0  0  0  0
 19 20  3  0  0  0  0
  1 21  1  0  0  0  0
 21 22  2  0  0  0  0
 22 23  1  0  0  0  0
 23 24  1  0  0  0  0
 24 25  2  0  0  0  0
 25 26  2  0  0  0  0
 23 27  2  0  0  0  0
 27 28  1  0  0  0  0
 28 29  2  0  0  0  0
 29 30  1  0  0  0  0
 30 31  1  0  0  0  0
 31 32  2  0  0  0  0
 27 33  1  0  0  0  0
 33 34  2  0  0  0  0
 34 35  1  0  0  0  0
 35 36  1  0  0  0  0
 36 37  2  0  0  0  0
 37 38  1  0  0  0  0
 38 39  2  0  0  0  0
 39 40  1  0  0  0  0
 40 41  1  0  0  0  0
 39 42  1  0  0  0  0
 42 43  2  0  0  0  0
 35 44  1  0  0  0  0
 44 45  2  0  0  0  0
 45 46  1  0  0  0  0
 46 47  2  0  0  0  0
 47 48  1  0  0  0  0
 48 49  1  0  0  0  0
 47 50  1  0  0  0  0
 50 51  2  0  0  0  0
 34 52  1  0  0  0  0
 52 53  1  0  0  0  0
 53 54  1  0  0  0  0
 54 55  2  0  0  0  0
 55 56  1  0  0  0  0
 56 57  1  0  0  0  0
 57 58  2  0  0  0  0
 58 59  1  0  0  0  0
 59 60  2  0  0  0  0
 60 61  1  0  0  0  0
 61 62  1  0  0  0  0
 60 63  1  0  0  0  0
 63 64  2  0  0  0  0
 56 65  1  0  0  0  0
 65 66  2  0  0  0  0
 66 67  1  0  0  0  0
 67 68  2  0  0  0  0
 68 69  1  0  0  0  0
 69 70  1  0  0  0  0
 68 71  1  0  0  0  0
 71 72  2  0  0  0  0
 55 73  1  0  0  0  0
 73 74  1  0  0  0  0
 54 75  1  0  0  0  0
 75 76  2  0  0  0  0
 76 77  1  0  0  0  0
 77 78  1  0  0  0  0
 78 79  2  0  0  0  0
 79 80  2  0  0  0  0
 77 81  2  0  0  0  0
 81 82  1  0  0  0  0
 82 83  2  0  0  0  0
 83 84  1  0  0  0  0
 84 85  1  0  0  0  0
 85 86  2  0  0  0  0
 81 87  1  0  0  0  0
 87 88  2  0  0  0  0
 88 89  1  0  0  0  0
 89 90  2  0  0  0  0
 89 91  1  0  0  0  0
 91 92  1  0  0  0  0
 92 93  2  0  0  0  0
 93 94  1  0  0  0  0
 94 95  1  0  0  0  0
 95 96  1  0  0  0  0
 92 97  1  0  0  0  0
 97 98  2  0  0  0  0
 98 99  1  0  0  0  0
 99100  3  0  0  0  0
 98101  1  0  0  0  0
101102  3  0  0  0  0
 15  2  1  0  0  0  0
 32 21  1  0  0  0  0
 74 33  1  0  0  0  0
 86 75  1  0  0  0  0
 97 88  1  0  0  0  0
 14  5  1  0  0  0  0
 26 22  1  0  0  0  0
 32 28  1  0  0  0  0
 43 36  1  0  0  0  0
 51 44  1  0  0  0  0
 73 52  2  0  0  0  0
 80 76  1  0  0  0  0
 86 82  1  0  0  0  0
 95 91  2  0  0  0  0
 64 57  1  0  0  0  0
 72 65  1  0  0  0  0
  1103  1  0  0  0  0
 37104  1  0  0  0  0
 38105  1  0  0  0  0
 41106  1  0  0  0  0
 41107  1  0  0  0  0
 41108  1  0  0  0  0
 42109  1  0  0  0  0
 43110  1  0  0  0  0
 45111  1  0  0  0  0
 46112  1  0  0  0  0
 49113  1  0  0  0  0
 49114  1  0  0  0  0
 49115  1  0  0  0  0
 50116  1  0  0  0  0
 51117  1  0  0  0  0
 58118  1  0  0  0  0
 59119  1  0  0  0  0
 62120  1  0  0  0  0
 62121  1  0  0  0  0
 62122  1  0  0  0  0
 63123  1  0  0  0  0
 64124  1  0  0  0  0
 66125  1  0  0  0  0
 67126  1  0  0  0  0
 70127  1  0  0  0  0
 70128  1  0  0  0  0
 70129  1  0  0  0  0
 71130  1  0  0  0  0
 72131  1  0  0  0  0
 87132  1  0  0  0  0
 93133  1  0  0  0  0
M  END
