168

C          2.70980        9.32030       -2.18230
C          2.35130       10.06880       -3.27020
C          1.64070        9.65910       -4.50030
O          0.98920        8.66120       -4.71110
C          1.88470       10.74850       -5.47540
C          1.56900       10.77550       -6.82290
Cl         0.68760        9.51310       -7.55920
C          2.01060       11.86970       -7.58090
Cl         1.62030       11.96710       -9.24190
C          2.80210       12.85570       -6.99350
Cl         3.40690       14.12920       -7.96140
C          3.12550       12.81590       -5.62720
Cl         4.24490       13.96340       -5.01790
C          2.60290       11.78800       -4.85310
C          2.70600       11.47410       -3.43120
C          2.86300       12.36970       -2.40870
C          2.88510       12.02390       -1.03770
N          2.91560       11.83450        0.09400
C          2.83900       13.77650       -2.53510
N          2.73130       14.91860       -2.51710
C          2.45090        7.97220       -1.86050
C          1.67340        7.01640       -2.47130
C          1.67300        5.77440       -1.81780
C          0.99890        4.59420       -2.22150
C          0.37200        4.47060       -3.51150
C         -0.70040        3.69460       -3.87580
C         -0.98890        3.73180       -5.24640
C         -0.11740        4.52210       -5.94880
S         -0.04780        4.91690       -7.64480
C         -1.14270        3.65800       -8.39260
C         -0.54410        2.26650       -8.33560
S          1.05770        5.25240       -4.91720
C          1.06630        3.52650       -1.33160
C          1.85650        3.53060       -0.15420
C          2.58870        4.68510        0.20660
C          3.46070        4.72800        1.35920
C          3.66800        5.75880        2.23560
C          4.58640        5.46080        3.25620
C          5.10540        4.20200        3.15540
S          6.28510        3.48560        4.22210
C          5.87140        1.71180        4.03670
C          4.50170        1.38520        4.59740
S          4.47590        3.36950        1.76620
C          2.44410        5.79200       -0.62410
S          3.20350        7.33850       -0.39690
C          1.82560        2.27650        0.49810
C          1.09520        1.32550       -0.15790
S          0.29250        1.98720       -1.56630
C          0.93700       -0.04210        0.20970
C          0.70330       -1.14630       -0.60480
N          0.64360       -1.18090       -1.98480
C          1.42640       -0.37380       -2.80820
C          0.94370        0.01450       -4.06000
C          1.63310        0.93990       -4.81050
C          2.81200        1.50080       -4.33030
S          3.56880        2.77460       -5.29290
C          4.34810        3.80020       -4.01090
C          3.34600        1.04510       -3.13170
C          2.66530        0.10670       -2.38430
C         -0.23130       -2.13930       -2.54120
C         -1.55410       -2.19920       -2.10330
C         -2.37530       -3.22380       -2.51740
C         -1.89000       -4.20320       -3.37980
S         -2.98400       -5.53020       -3.77590
C         -1.85110       -6.84000       -4.32510
C         -0.59910       -4.09890       -3.88200
C          0.22610       -3.07330       -3.46340
C          0.51690       -2.31380        0.17630
S          0.05890       -3.93390       -0.21930
C          0.01540       -4.34970        1.47640
C          0.28390       -3.25790        2.31140
N          0.05550       -3.23070        3.67460
C          0.99030       -2.61140        4.51040
C          0.57950       -1.90360        5.64110
C          1.51370       -1.35370        6.48810
C          2.87700       -1.49430        6.22820
S          3.97710       -0.78340        7.40890
C          5.60720       -1.42650        6.93270
C          3.28720       -2.16710        5.08380
C          2.35020       -2.71890        4.23290
C         -1.05140       -3.90320        4.20270
C         -0.98890       -4.53210        5.44540
C         -2.03740       -5.30900        5.89660
C         -3.17720       -5.46340        5.11790
S         -4.53540       -6.49120        5.58210
C         -3.76220       -7.69730        6.70170
C         -3.28610       -4.76180        3.91860
C         -2.23750       -3.99360        3.46840
C          0.61470       -2.11720        1.54600
S          1.01260       -0.47300        1.91890
C         -0.39870       -5.65650        1.83550
C         -0.02970       -6.32180        3.02520
C         -0.74070       -7.48910        3.49970
N         -0.24040       -7.93450        4.65110
S          1.03060       -7.03460        5.05600
N          0.98060       -5.99570        3.83170
C         -1.87670       -8.00080        2.83060
C         -2.05680       -7.50230        1.52270
N         -2.88230       -7.98290        0.59480
S         -2.77290       -7.08870       -0.72870
N         -1.64710       -6.05810       -0.22560
C         -1.30420       -6.37250        1.02390
C         -2.73770       -8.91770        3.47900
C         -4.10010       -8.94010        3.36770
C         -4.92790       -7.84430        2.82560
O         -4.57910       -6.86310        2.20670
C         -6.30430       -8.12710        3.30540
C         -7.42990       -7.33280        3.18970
Cl        -7.41780       -5.90450        2.25920
C         -8.59220       -7.72040        3.87020
Cl       -10.01830       -6.78860        3.72420
C         -8.57340       -8.83760        4.70240
Cl        -9.97170       -9.23360        5.60550
C         -7.42260       -9.63150        4.82850
Cl        -7.41530      -10.87750        6.00890
C         -6.30570       -9.31140        4.06890
C         -4.98540       -9.92350        3.95850
C         -4.64970      -11.23740        4.14990
C         -3.33870      -11.73300        3.96440
N         -2.30300      -12.21180        3.84100
C         -5.54100      -12.30680        4.38010
N         -6.18300      -13.25320        4.47710
H          3.33660        9.81850       -1.45150
H          1.09890        7.23190       -3.35130
H         -1.30500        3.15000       -3.17360
H         -1.81310        3.19930       -5.68390
H         -2.11080        3.71410       -7.89680
H         -1.25490        3.99280       -9.42350
H         -0.42930        1.93710       -7.30540
H         -1.19380        1.56400       -8.85380
H          0.43320        2.25600       -8.81260
H          3.13180        6.68900        2.18710
H          4.84800        6.13690        4.04870
H          6.66240        1.19430        4.57870
H          5.94600        1.46970        2.97610
H          4.47380        1.56220        5.66970
H          3.73490        1.99880        4.12990
H          4.25590        0.34320        4.40260
H          2.34990        2.05270        1.40870
H          0.00280       -0.37970       -4.41250
H          1.24990        1.26690       -5.76420
H          3.67220        3.88860       -3.16530
H          5.30050        3.37490       -3.70750
H          4.50640        4.77450       -4.46240
H          4.29000        1.42200       -2.77080
H          3.08240       -0.23470       -1.44860
H         -1.91720       -1.45340       -1.41150
H         -3.39120       -3.29150       -2.16110
H         -1.47570       -6.62560       -5.32140
H         -2.43960       -7.75180       -4.34660
H         -1.04090       -6.93420       -3.60860
H         -0.21780       -4.82240       -4.58420
H          1.23960       -3.00760       -3.83040
H         -0.47410       -1.79580        5.84990
H          1.20180       -0.81140        7.36720
H          6.28770       -1.09870        7.71230
H          5.57790       -2.51140        6.89990
H          5.91540       -1.00970        5.97850
H          4.33380       -2.28700        4.85300
H          2.67090       -3.26930        3.36150
H         -0.09620       -4.44010        6.04630
H         -1.94840       -5.80320        6.85080
H         -4.46900       -8.51710        6.78820
H         -2.83120       -8.04670        6.26450
H         -3.59810       -7.25440        7.67960
H         -4.18690       -4.84840        3.33290
H         -2.32710       -3.46920        2.52900
H         -2.25980       -9.55990        4.20950
