
  xtb     02042205123D
 energy: -362.671869518707 gnorm: 0.000278050032 xtb: 6.4.1 (unknown)
195211  0     0  0            999 V2000
    6.3798   -5.9815    7.0988 C   0  0  0  0  0  0  0  0  0  0  0  0
    6.1519   -5.9725    8.4416 C   0  0  0  0  0  0  0  0  0  0  0  0
    4.9849   -5.3894    9.1589 C   0  0  0  0  0  0  0  0  0  0  0  0
    3.9053   -5.0859    8.7169 O   0  0  0  0  0  0  0  0  0  0  0  0
    5.4047   -5.3297   10.5819 C   0  0  0  0  0  0  0  0  0  0  0  0
    4.7599   -4.7152   11.6409 C   0  0  0  0  0  0  0  0  0  0  0  0
    3.2250   -4.0071   11.4539 Cl  0  0  0  0  0  0  0  0  0  0  0  0
    5.4138   -4.6753   12.8811 C   0  0  0  0  0  0  0  0  0  0  0  0
    4.6497   -3.9449   14.2235 Cl  0  0  0  0  0  0  0  0  0  0  0  0
    6.7019   -5.1943   13.0094 C   0  0  0  0  0  0  0  0  0  0  0  0
    7.5152   -5.0509   14.5071 Cl  0  0  0  0  0  0  0  0  0  0  0  0
    7.3483   -5.8209   11.9319 C   0  0  0  0  0  0  0  0  0  0  0  0
    8.9881   -6.2864   12.1202 Cl  0  0  0  0  0  0  0  0  0  0  0  0
    6.6629   -5.9460   10.7294 C   0  0  0  0  0  0  0  0  0  0  0  0
    7.0249   -6.5561    9.4531 C   0  0  0  0  0  0  0  0  0  0  0  0
    7.8710   -7.6141    9.2653 C   0  0  0  0  0  0  0  0  0  0  0  0
    8.1732   -8.1817    8.0068 C   0  0  0  0  0  0  0  0  0  0  0  0
    8.4826   -8.6861    7.0234 N   0  0  0  0  0  0  0  0  0  0  0  0
    8.4336   -8.4069   10.2909 C   0  0  0  0  0  0  0  0  0  0  0  0
    8.8497   -9.1681   11.0415 N   0  0  0  0  0  0  0  0  0  0  0  0
    5.6361   -5.3169    6.0927 C   0  0  0  0  0  0  0  0  0  0  0  0
    5.7777   -5.4296    4.7210 C   0  0  0  0  0  0  0  0  0  0  0  0
    4.8183   -4.5704    4.1408 C   0  0  0  0  0  0  0  0  0  0  0  0
    4.4715   -4.2446    2.8139 C   0  0  0  0  0  0  0  0  0  0  0  0
    5.0672   -4.8907    1.6452 C   0  0  0  0  0  0  0  0  0  0  0  0
    5.3476   -4.1551    0.4960 C   0  0  0  0  0  0  0  0  0  0  0  0
    5.8939   -4.7917   -0.5980 C   0  0  0  0  0  0  0  0  0  0  0  0
    6.1741   -4.0517   -1.6891 F   0  0  0  0  0  0  0  0  0  0  0  0
    6.1817   -6.1520   -0.6336 C   0  0  0  0  0  0  0  0  0  0  0  0
    6.7320   -6.8178   -1.8592 C   0  0  0  0  0  0  0  0  0  0  0  0
    5.5985   -7.2122   -2.8097 C   0  0  0  0  0  0  0  0  0  0  0  0
    5.8726   -6.8531    0.5267 C   0  0  0  0  0  0  0  0  0  0  0  0
    6.1106   -8.1796    0.5617 F   0  0  0  0  0  0  0  0  0  0  0  0
    5.3352   -6.2582    1.6503 C   0  0  0  0  0  0  0  0  0  0  0  0
    3.4896   -3.2707    2.7070 C   0  0  0  0  0  0  0  0  0  0  0  0
    2.8151   -2.6821    3.8163 C   0  0  0  0  0  0  0  0  0  0  0  0
    3.1431   -3.0193    5.1383 C   0  0  0  0  0  0  0  0  0  0  0  0
    2.4740   -2.4694    6.3184 C   0  0  0  0  0  0  0  0  0  0  0  0
    1.0935   -2.2874    6.3374 C   0  0  0  0  0  0  0  0  0  0  0  0
    0.4899   -1.7856    7.4719 C   0  0  0  0  0  0  0  0  0  0  0  0
    1.1890   -1.4356    8.6222 C   0  0  0  0  0  0  0  0  0  0  0  0
    0.4951   -0.9203    9.8479 C   0  0  0  0  0  0  0  0  0  0  0  0
   -0.1128   -2.0737   10.6494 C   0  0  0  0  0  0  0  0  0  0  0  0
    2.5634   -1.6372    8.5637 C   0  0  0  0  0  0  0  0  0  0  0  0
    3.2096   -2.1395    7.4533 C   0  0  0  0  0  0  0  0  0  0  0  0
    3.3112   -1.3056    9.6365 F   0  0  0  0  0  0  0  0  0  0  0  0
   -0.8499   -1.6155    7.4563 F   0  0  0  0  0  0  0  0  0  0  0  0
    4.1673   -3.9501    5.2465 C   0  0  0  0  0  0  0  0  0  0  0  0
    4.6698   -4.4188    6.4006 O   0  0  0  0  0  0  0  0  0  0  0  0
    1.8815   -1.7828    3.2460 C   0  0  0  0  0  0  0  0  0  0  0  0
    2.0278   -1.8777    1.8850 C   0  0  0  0  0  0  0  0  0  0  0  0
    2.9947   -2.7699    1.5512 O   0  0  0  0  0  0  0  0  0  0  0  0
    1.2929   -1.1963    0.8658 C   0  0  0  0  0  0  0  0  0  0  0  0
    0.1491   -0.4531    1.0110 C   0  0  0  0  0  0  0  0  0  0  0  0
   -0.2211   -0.0182   -0.2841 C   0  0  0  0  0  0  0  0  0  0  0  0
   -1.2891    0.7550   -0.7829 C   0  0  0  0  0  0  0  0  0  0  0  0
   -2.4282    1.2209   -0.0408 C   0  0  0  0  0  0  0  0  0  0  0  0
   -2.9174    0.8050    1.1760 C   0  0  0  0  0  0  0  0  0  0  0  0
   -4.1223    1.4269    1.5292 C   0  0  0  0  0  0  0  0  0  0  0  0
   -4.5790    2.3288    0.6059 C   0  0  0  0  0  0  0  0  0  0  0  0
   -6.1688    3.3442    0.6137 Si  0  0  0  0  0  4  0  0  0  0  0  0
   -7.5876    2.1867    1.1738 C   0  0  0  0  0  0  0  0  0  0  0  0
   -8.9892    2.7170    0.8935 C   0  0  0  0  0  0  0  0  0  0  0  0
   -6.3455    4.0102   -1.1720 C   0  0  0  0  0  0  0  0  0  0  0  0
   -7.3878    5.1005   -1.3853 C   0  0  0  0  0  0  0  0  0  0  0  0
   -5.9675    4.7896    1.8566 C   0  0  0  0  0  0  0  0  0  0  0  0
   -4.7879    5.7001    1.5275 C   0  0  0  0  0  0  0  0  0  0  0  0
   -3.4959    2.4071   -0.7398 S   0  0  0  0  0  0  0  0  0  0  0  0
   -1.1843    1.0080   -2.1505 C   0  0  0  0  0  0  0  0  0  0  0  0
   -0.1997    0.4834   -3.0170 C   0  0  0  0  0  0  0  0  0  0  0  0
    0.8326   -0.3386   -2.5256 C   0  0  0  0  0  0  0  0  0  0  0  0
    1.8520   -0.8899   -3.3824 C   0  0  0  0  0  0  0  0  0  0  0  0
    1.7238   -1.2721   -4.6946 C   0  0  0  0  0  0  0  0  0  0  0  0
    2.9386   -1.6760   -5.2653 C   0  0  0  0  0  0  0  0  0  0  0  0
    4.0090   -1.6070   -4.4142 C   0  0  0  0  0  0  0  0  0  0  0  0
    5.8249   -1.8968   -4.8493 Si  0  0  0  0  0  4  0  0  0  0  0  0
    6.1688   -0.9851   -6.5048 C   0  0  0  0  0  0  0  0  0  0  0  0
    5.4705    0.3632   -6.6555 C   0  0  0  0  0  0  0  0  0  0  0  0
    6.1521   -3.7655   -5.1038 C   0  0  0  0  0  0  0  0  0  0  0  0
    5.0882   -4.4709   -5.9368 C   0  0  0  0  0  0  0  0  0  0  0  0
    6.9163   -1.2546   -3.4201 C   0  0  0  0  0  0  0  0  0  0  0  0
    6.9424    0.2626   -3.2745 C   0  0  0  0  0  0  0  0  0  0  0  0
    3.4953   -1.0689   -2.8503 S   0  0  0  0  0  0  0  0  0  0  0  0
    0.7868   -0.5326   -1.1459 C   0  0  0  0  0  0  0  0  0  0  0  0
    1.6818   -1.2578   -0.4325 O   0  0  0  0  0  0  0  0  0  0  0  0
   -0.5316    0.9957   -4.3058 C   0  0  0  0  0  0  0  0  0  0  0  0
   -1.6389    1.7726   -4.1408 C   0  0  0  0  0  0  0  0  0  0  0  0
   -2.0402    1.7756   -2.8399 O   0  0  0  0  0  0  0  0  0  0  0  0
   -2.5721    2.5223   -4.9712 C   0  0  0  0  0  0  0  0  0  0  0  0
   -3.2041    1.9757   -6.0861 C   0  0  0  0  0  0  0  0  0  0  0  0
   -2.5156    0.5567   -6.8946 S   0  0  0  0  0  0  0  0  0  0  0  0
   -1.1311    1.4048   -7.7551 C   0  0  0  0  0  0  0  0  0  0  0  0
   -1.6290    2.2348   -8.9214 C   0  0  0  0  0  0  0  0  0  0  0  0
   -4.4327    2.4716   -6.5412 C   0  0  0  0  0  0  0  0  0  0  0  0
   -5.1436    1.6184   -7.9009 S   0  0  0  0  0  0  0  0  0  0  0  0
   -6.1397    2.8785   -8.7970 C   0  0  0  0  0  0  0  0  0  0  0  0
   -7.6289    2.6037   -8.7186 C   0  0  0  0  0  0  0  0  0  0  0  0
   -5.0487    3.5064   -5.8237 C   0  0  0  0  0  0  0  0  0  0  0  0
   -4.2966    4.2015   -4.8665 C   0  0  0  0  0  0  0  0  0  0  0  0
   -3.0415    3.7438   -4.4539 C   0  0  0  0  0  0  0  0  0  0  0  0
   -2.2074    4.5072   -3.5001 C   0  0  0  0  0  0  0  0  0  0  0  0
   -1.0321    4.2681   -3.3017 O   0  0  0  0  0  0  0  0  0  0  0  0
   -2.8963    5.6413   -2.8702 C   0  0  0  0  0  0  0  0  0  0  0  0
   -4.2115    6.0542   -3.2405 C   0  0  0  0  0  0  0  0  0  0  0  0
   -4.9780    5.3440   -4.2473 C   0  0  0  0  0  0  0  0  0  0  0  0
   -6.1250    5.6333   -4.5687 O   0  0  0  0  0  0  0  0  0  0  0  0
   -4.6299    7.1503   -2.5331 C   0  0  0  0  0  0  0  0  0  0  0  0
   -3.4505    7.6774   -1.4146 S   0  0  0  0  0  0  0  0  0  0  0  0
   -2.3712    6.4328   -1.8908 C   0  0  0  0  0  0  0  0  0  0  0  0
   -6.4792    3.8311   -5.8836 C   0  0  0  0  0  0  0  0  0  0  0  0
   -7.3324    3.1180   -5.0997 C   0  0  0  0  0  0  0  0  0  0  0  0
   -6.8418    2.1080   -4.1386 C   0  0  0  0  0  0  0  0  0  0  0  0
   -5.7103    1.6957   -4.0139 O   0  0  0  0  0  0  0  0  0  0  0  0
   -8.0319    1.6877   -3.3680 C   0  0  0  0  0  0  0  0  0  0  0  0
   -8.1001    0.7363   -2.3650 C   0  0  0  0  0  0  0  0  0  0  0  0
   -6.6906   -0.0262   -1.7738 Cl  0  0  0  0  0  0  0  0  0  0  0  0
   -9.3605    0.4217   -1.8406 C   0  0  0  0  0  0  0  0  0  0  0  0
   -9.4986   -0.7125   -0.5728 Cl  0  0  0  0  0  0  0  0  0  0  0  0
  -10.5052    1.0061   -2.3832 C   0  0  0  0  0  0  0  0  0  0  0  0
  -12.0387    0.5373   -1.7887 Cl  0  0  0  0  0  0  0  0  0  0  0  0
  -10.4271    1.9610   -3.4101 C   0  0  0  0  0  0  0  0  0  0  0  0
  -11.8888    2.4895   -4.1335 Cl  0  0  0  0  0  0  0  0  0  0  0  0
   -9.1706    2.3631   -3.8543 C   0  0  0  0  0  0  0  0  0  0  0  0
   -8.7473    3.3455   -4.8491 C   0  0  0  0  0  0  0  0  0  0  0  0
   -9.4637    4.4084   -5.3309 C   0  0  0  0  0  0  0  0  0  0  0  0
   -9.0344    5.2146   -6.4083 C   0  0  0  0  0  0  0  0  0  0  0  0
   -8.7823    5.8538   -7.3281 N   0  0  0  0  0  0  0  0  0  0  0  0
  -10.6485    4.9412   -4.7790 C   0  0  0  0  0  0  0  0  0  0  0  0
  -11.5318    5.5276   -4.3401 N   0  0  0  0  0  0  0  0  0  0  0  0
    7.2449   -6.5092    6.7217 H   0  0  0  0  0  0  0  0  0  0  0  0
    6.4912   -6.0497    4.2181 H   0  0  0  0  0  0  0  0  0  0  0  0
    5.1516   -3.0970    0.4467 H   0  0  0  0  0  0  0  0  0  0  0  0
    7.2895   -7.7094   -1.5686 H   0  0  0  0  0  0  0  0  0  0  0  0
    7.4091   -6.1306   -2.3701 H   0  0  0  0  0  0  0  0  0  0  0  0
    4.9227   -7.9122   -2.3237 H   0  0  0  0  0  0  0  0  0  0  0  0
    5.0321   -6.3348   -3.1131 H   0  0  0  0  0  0  0  0  0  0  0  0
    6.0075   -7.6854   -3.6985 H   0  0  0  0  0  0  0  0  0  0  0  0
    5.0951   -6.8699    2.5045 H   0  0  0  0  0  0  0  0  0  0  0  0
    0.4836   -2.5646    5.4932 H   0  0  0  0  0  0  0  0  0  0  0  0
    1.2106   -0.3807   10.4697 H   0  0  0  0  0  0  0  0  0  0  0  0
   -0.2996   -0.2332    9.5496 H   0  0  0  0  0  0  0  0  0  0  0  0
   -0.5997   -1.6904   11.5425 H   0  0  0  0  0  0  0  0  0  0  0  0
    0.6606   -2.7765   10.9497 H   0  0  0  0  0  0  0  0  0  0  0  0
   -0.8502   -2.6043   10.0520 H   0  0  0  0  0  0  0  0  0  0  0  0
    4.2791   -2.2624    7.4794 H   0  0  0  0  0  0  0  0  0  0  0  0
    1.2124   -1.1300    3.7646 H   0  0  0  0  0  0  0  0  0  0  0  0
   -0.3413   -0.2410    1.9365 H   0  0  0  0  0  0  0  0  0  0  0  0
   -2.4520    0.0447    1.7746 H   0  0  0  0  0  0  0  0  0  0  0  0
   -4.6532    1.2119    2.4396 H   0  0  0  0  0  0  0  0  0  0  0  0
   -7.4907    2.0113    2.2460 H   0  0  0  0  0  0  0  0  0  0  0  0
   -7.4764    1.2137    0.6959 H   0  0  0  0  0  0  0  0  0  0  0  0
   -9.7434    2.0305    1.2743 H   0  0  0  0  0  0  0  0  0  0  0  0
   -9.1384    3.6823    1.3705 H   0  0  0  0  0  0  0  0  0  0  0  0
   -9.1506    2.8328   -0.1760 H   0  0  0  0  0  0  0  0  0  0  0  0
   -5.3694    4.3900   -1.4804 H   0  0  0  0  0  0  0  0  0  0  0  0
   -6.5600    3.1782   -1.8418 H   0  0  0  0  0  0  0  0  0  0  0  0
   -7.3742    5.4471   -2.4186 H   0  0  0  0  0  0  0  0  0  0  0  0
   -7.1924    5.9519   -0.7379 H   0  0  0  0  0  0  0  0  0  0  0  0
   -8.3875    4.7346   -1.1675 H   0  0  0  0  0  0  0  0  0  0  0  0
   -5.8305    4.3849    2.8603 H   0  0  0  0  0  0  0  0  0  0  0  0
   -6.8799    5.3861    1.8880 H   0  0  0  0  0  0  0  0  0  0  0  0
   -4.6813    6.4850    2.2739 H   0  0  0  0  0  0  0  0  0  0  0  0
   -4.9284    6.1707    0.5579 H   0  0  0  0  0  0  0  0  0  0  0  0
   -3.8633    5.1285    1.4960 H   0  0  0  0  0  0  0  0  0  0  0  0
    0.7813   -1.2941   -5.2117 H   0  0  0  0  0  0  0  0  0  0  0  0
    3.0316   -2.0064   -6.2849 H   0  0  0  0  0  0  0  0  0  0  0  0
    7.2448   -0.8381   -6.6112 H   0  0  0  0  0  0  0  0  0  0  0  0
    5.8680   -1.6254   -7.3355 H   0  0  0  0  0  0  0  0  0  0  0  0
    5.7052    0.8122   -7.6196 H   0  0  0  0  0  0  0  0  0  0  0  0
    4.3919    0.2459   -6.5867 H   0  0  0  0  0  0  0  0  0  0  0  0
    5.7821    1.0519   -5.8753 H   0  0  0  0  0  0  0  0  0  0  0  0
    7.1220   -3.8952   -5.5855 H   0  0  0  0  0  0  0  0  0  0  0  0
    6.2215   -4.2537   -4.1344 H   0  0  0  0  0  0  0  0  0  0  0  0
    5.3268   -5.5263   -6.0584 H   0  0  0  0  0  0  0  0  0  0  0  0
    5.0141   -4.0261   -6.9263 H   0  0  0  0  0  0  0  0  0  0  0  0
    4.1157   -4.3936   -5.4569 H   0  0  0  0  0  0  0  0  0  0  0  0
    6.5596   -1.6895   -2.4874 H   0  0  0  0  0  0  0  0  0  0  0  0
    7.9372   -1.6138   -3.5546 H   0  0  0  0  0  0  0  0  0  0  0  0
    7.3785    0.7266   -4.1556 H   0  0  0  0  0  0  0  0  0  0  0  0
    7.5367    0.5565   -2.4106 H   0  0  0  0  0  0  0  0  0  0  0  0
    5.9362    0.6525   -3.1410 H   0  0  0  0  0  0  0  0  0  0  0  0
    0.0169    0.8376   -5.2092 H   0  0  0  0  0  0  0  0  0  0  0  0
   -0.6076    2.0190   -7.0241 H   0  0  0  0  0  0  0  0  0  0  0  0
   -0.4825    0.5990   -8.0950 H   0  0  0  0  0  0  0  0  0  0  0  0
   -0.7840    2.6635   -9.4565 H   0  0  0  0  0  0  0  0  0  0  0  0
   -2.2634    3.0467   -8.5713 H   0  0  0  0  0  0  0  0  0  0  0  0
   -2.2027    1.6170   -9.6075 H   0  0  0  0  0  0  0  0  0  0  0  0
   -5.8713    3.8574   -8.4103 H   0  0  0  0  0  0  0  0  0  0  0  0
   -5.7963    2.8065   -9.8293 H   0  0  0  0  0  0  0  0  0  0  0  0
   -8.1777    3.4111   -9.1989 H   0  0  0  0  0  0  0  0  0  0  0  0
   -7.9610    2.5259   -7.6866 H   0  0  0  0  0  0  0  0  0  0  0  0
   -7.8651    1.6704   -9.2239 H   0  0  0  0  0  0  0  0  0  0  0  0
   -5.5697    7.6586   -2.6234 H   0  0  0  0  0  0  0  0  0  0  0  0
   -1.4081    6.3374   -1.4298 H   0  0  0  0  0  0  0  0  0  0  0  0
   -6.8366    4.5724   -6.5823 H   0  0  0  0  0  0  0  0  0  0  0  0
  1  2  2  0  0  0  0
  2  3  1  0  0  0  0
  3  4  2  0  0  0  0
  3  5  1  0  0  0  0
  5  6  2  0  0  0  0
  6  7  1  0  0  0  0
  6  8  1  0  0  0  0
  8  9  1  0  0  0  0
  8 10  2  0  0  0  0
 10 11  1  0  0  0  0
 10 12  1  0  0  0  0
 12 13  1  0  0  0  0
 12 14  2  0  0  0  0
 14 15  1  0  0  0  0
 15 16  2  0  0  0  0
 16 17  1  0  0  0  0
 17 18  3  0  0  0  0
 16 19  1  0  0  0  0
 19 20  3  0  0  0  0
  1 21  1  0  0  0  0
 21 22  2  0  0  0  0
 22 23  1  0  0  0  0
 23 24  2  0  0  0  0
 24 25  1  0  0  0  0
 25 26  2  0  0  0  0
 26 27  1  0  0  0  0
 27 28  1  0  0  0  0
 27 29  2  0  0  0  0
 29 30  1  0  0  0  0
 30 31  1  0  0  0  0
 29 32  1  0  0  0  0
 32 33  1  0  0  0  0
 32 34  2  0  0  0  0
 24 35  1  0  0  0  0
 35 36  2  0  0  0  0
 36 37  1  0  0  0  0
 37 38  1  0  0  0  0
 38 39  2  0  0  0  0
 39 40  1  0  0  0  0
 40 41  2  0  0  0  0
 41 42  1  0  0  0  0
 42 43  1  0  0  0  0
 41 44  1  0  0  0  0
 44 45  2  0  0  0  0
 44 46  1  0  0  0  0
 40 47  1  0  0  0  0
 37 48  2  0  0  0  0
 48 49  1  0  0  0  0
 36 50  1  0  0  0  0
 50 51  2  0  0  0  0
 51 52  1  0  0  0  0
 51 53  1  0  0  0  0
 53 54  2  0  0  0  0
 54 55  1  0  0  0  0
 55 56  2  0  0  0  0
 56 57  1  0  0  0  0
 57 58  2  0  0  0  0
 58 59  1  0  0  0  0
 59 60  2  0  0  0  0
 60 61  1  0  0  0  0
 61 62  1  0  0  0  0
 62 63  1  0  0  0  0
 61 64  1  0  0  0  0
 64 65  1  0  0  0  0
 61 66  1  0  0  0  0
 66 67  1  0  0  0  0
 60 68  1  0  0  0  0
 56 69  1  0  0  0  0
 69 70  2  0  0  0  0
 70 71  1  0  0  0  0
 71 72  1  0  0  0  0
 72 73  2  0  0  0  0
 73 74  1  0  0  0  0
 74 75  2  0  0  0  0
 75 76  1  0  0  0  0
 76 77  1  0  0  0  0
 77 78  1  0  0  0  0
 76 79  1  0  0  0  0
 79 80  1  0  0  0  0
 76 81  1  0  0  0  0
 81 82  1  0  0  0  0
 75 83  1  0  0  0  0
 71 84  2  0  0  0  0
 84 85  1  0  0  0  0
 70 86  1  0  0  0  0
 86 87  2  0  0  0  0
 87 88  1  0  0  0  0
 87 89  1  0  0  0  0
 89 90  2  0  0  0  0
 90 91  1  0  0  0  0
 91 92  1  0  0  0  0
 92 93  1  0  0  0  0
 90 94  1  0  0  0  0
 94 95  1  0  0  0  0
 95 96  1  0  0  0  0
 96 97  1  0  0  0  0
 94 98  2  0  0  0  0
 98 99  1  0  0  0  0
 99100  2  0  0  0  0
100101  1  0  0  0  0
101102  2  0  0  0  0
101103  1  0  0  0  0
103104  1  0  0  0  0
104105  1  0  0  0  0
105106  2  0  0  0  0
104107  2  0  0  0  0
107108  1  0  0  0  0
108109  1  0  0  0  0
 98110  1  0  0  0  0
110111  2  0  0  0  0
111112  1  0  0  0  0
112113  2  0  0  0  0
112114  1  0  0  0  0
114115  2  0  0  0  0
115116  1  0  0  0  0
115117  1  0  0  0  0
117118  1  0  0  0  0
117119  2  0  0  0  0
119120  1  0  0  0  0
119121  1  0  0  0  0
121122  1  0  0  0  0
121123  2  0  0  0  0
123124  1  0  0  0  0
124125  2  0  0  0  0
125126  1  0  0  0  0
126127  3  0  0  0  0
125128  1  0  0  0  0
128129  3  0  0  0  0
 15  2  1  0  0  0  0
 49 21  1  0  0  0  0
 85 53  1  0  0  0  0
100 89  1  0  0  0  0
109103  2  0  0  0  0
124111  1  0  0  0  0
 14  5  1  0  0  0  0
 48 23  1  0  0  0  0
 84 55  1  0  0  0  0
105 99  1  0  0  0  0
123114  1  0  0  0  0
 34 25  1  0  0  0  0
 52 35  1  0  0  0  0
 68 57  1  0  0  0  0
 88 69  1  0  0  0  0
 45 38  1  0  0  0  0
 83 72  1  0  0  0  0
  1130  1  0  0  0  0
 22131  1  0  0  0  0
 26132  1  0  0  0  0
 30133  1  0  0  0  0
 30134  1  0  0  0  0
 31135  1  0  0  0  0
 31136  1  0  0  0  0
 31137  1  0  0  0  0
 34138  1  0  0  0  0
 39139  1  0  0  0  0
 42140  1  0  0  0  0
 42141  1  0  0  0  0
 43142  1  0  0  0  0
 43143  1  0  0  0  0
 43144  1  0  0  0  0
 45145  1  0  0  0  0
 50146  1  0  0  0  0
 54147  1  0  0  0  0
 58148  1  0  0  0  0
 59149  1  0  0  0  0
 62150  1  0  0  0  0
 62151  1  0  0  0  0
 63152  1  0  0  0  0
 63153  1  0  0  0  0
 63154  1  0  0  0  0
 64155  1  0  0  0  0
 64156  1  0  0  0  0
 65157  1  0  0  0  0
 65158  1  0  0  0  0
 65159  1  0  0  0  0
 66160  1  0  0  0  0
 66161  1  0  0  0  0
 67162  1  0  0  0  0
 67163  1  0  0  0  0
 67164  1  0  0  0  0
 73165  1  0  0  0  0
 74166  1  0  0  0  0
 77167  1  0  0  0  0
 77168  1  0  0  0  0
 78169  1  0  0  0  0
 78170  1  0  0  0  0
 78171  1  0  0  0  0
 79172  1  0  0  0  0
 79173  1  0  0  0  0
 80174  1  0  0  0  0
 80175  1  0  0  0  0
 80176  1  0  0  0  0
 81177  1  0  0  0  0
 81178  1  0  0  0  0
 82179  1  0  0  0  0
 82180  1  0  0  0  0
 82181  1  0  0  0  0
 86182  1  0  0  0  0
 92183  1  0  0  0  0
 92184  1  0  0  0  0
 93185  1  0  0  0  0
 93186  1  0  0  0  0
 93187  1  0  0  0  0
 96188  1  0  0  0  0
 96189  1  0  0  0  0
 97190  1  0  0  0  0
 97191  1  0  0  0  0
 97192  1  0  0  0  0
107193  1  0  0  0  0
109194  1  0  0  0  0
110195  1  0  0  0  0
M  END
