
  xtb     02102221143D
 energy: -220.896490685645 gnorm: 0.000564590420 xtb: 6.4.1 (unknown)
108119  0     0  0            999 V2000
    3.3189    6.3042    7.8674 C   0  0  0  0  0  0  0  0  0  0  0  0
    4.4766    6.5610    8.5223 C   0  0  0  0  0  0  0  0  0  0  0  0
    5.6858    5.6934    8.5390 C   0  0  0  0  0  0  0  0  0  0  0  0
    5.7741    4.5237    8.2577 O   0  0  0  0  0  0  0  0  0  0  0  0
    6.8000    6.6026    8.8996 C   0  0  0  0  0  0  0  0  0  0  0  0
    8.1577    6.3280    8.9090 C   0  0  0  0  0  0  0  0  0  0  0  0
    8.7519    4.7594    8.6021 Cl  0  0  0  0  0  0  0  0  0  0  0  0
    9.0451    7.3819    9.1713 C   0  0  0  0  0  0  0  0  0  0  0  0
   10.7269    7.0854    9.2239 Cl  0  0  0  0  0  0  0  0  0  0  0  0
    8.5613    8.6782    9.3499 C   0  0  0  0  0  0  0  0  0  0  0  0
    9.6690    9.9604    9.5747 Cl  0  0  0  0  0  0  0  0  0  0  0  0
    7.1841    8.9516    9.3338 C   0  0  0  0  0  0  0  0  0  0  0  0
    6.6726   10.5867    9.3969 Cl  0  0  0  0  0  0  0  0  0  0  0  0
    6.2985    7.8929    9.1707 C   0  0  0  0  0  0  0  0  0  0  0  0
    4.8431    7.8325    9.1398 C   0  0  0  0  0  0  0  0  0  0  0  0
    3.9523    8.6568    9.7659 C   0  0  0  0  0  0  0  0  0  0  0  0
    2.5524    8.4507    9.7221 C   0  0  0  0  0  0  0  0  0  0  0  0
    1.4108    8.3406    9.7305 N   0  0  0  0  0  0  0  0  0  0  0  0
    4.2611    9.6999   10.6676 C   0  0  0  0  0  0  0  0  0  0  0  0
    4.3987   10.4986   11.4789 N   0  0  0  0  0  0  0  0  0  0  0  0
    2.9110    5.0538    7.2740 C   0  0  0  0  0  0  0  0  0  0  0  0
    2.2290    5.0927    6.0437 C   0  0  0  0  0  0  0  0  0  0  0  0
    1.8880    3.9089    5.4390 C   0  0  0  0  0  0  0  0  0  0  0  0
    1.2324    3.6780    4.1211 C   0  0  0  0  0  0  0  0  0  0  0  0
    0.8400    4.5070    3.3362 O   0  0  0  0  0  0  0  0  0  0  0  0
    1.1786    2.1978    3.9940 C   0  0  0  0  0  0  0  0  0  0  0  0
    1.7216    1.6060    5.1517 C   0  0  0  0  0  0  0  0  0  0  0  0
    2.1661    2.6670    6.0477 C   0  0  0  0  0  0  0  0  0  0  0  0
    2.7736    2.6269    7.2885 C   0  0  0  0  0  0  0  0  0  0  0  0
    3.1466    3.8199    7.8892 C   0  0  0  0  0  0  0  0  0  0  0  0
    1.7826    0.2304    5.2570 C   0  0  0  0  0  0  0  0  0  0  0  0
    1.3281   -0.5403    4.1946 C   0  0  0  0  0  0  0  0  0  0  0  0
    0.8155    0.0414    3.0360 C   0  0  0  0  0  0  0  0  0  0  0  0
    0.7259    1.4366    2.9422 C   0  0  0  0  0  0  0  0  0  0  0  0
    0.4078   -0.7818    1.8925 C   0  0  0  0  0  0  0  0  0  0  0  0
    1.1688   -1.8394    1.4434 C   0  0  0  0  0  0  0  0  0  0  0  0
    2.3079   -2.1786    2.0740 F   0  0  0  0  0  0  0  0  0  0  0  0
    0.8436   -2.5617    0.2838 C   0  0  0  0  0  0  0  0  0  0  0  0
    1.7026   -3.5250   -0.0963 F   0  0  0  0  0  0  0  0  0  0  0  0
   -0.2635   -2.2676   -0.4824 C   0  0  0  0  0  0  0  0  0  0  0  0
   -1.1023   -1.2197   -0.0136 C   0  0  0  0  0  0  0  0  0  0  0  0
   -2.2337   -0.9337   -0.6829 N   0  0  0  0  0  0  0  0  0  0  0  0
   -3.0043    0.0398   -0.2709 C   0  0  0  0  0  0  0  0  0  0  0  0
   -4.2126    0.3215   -1.1091 C   0  0  0  0  0  0  0  0  0  0  0  0
   -3.8758    1.3584   -2.1852 C   0  0  0  0  0  0  0  0  0  0  0  0
   -2.6613    0.7895    0.8936 C   0  0  0  0  0  0  0  0  0  0  0  0
   -1.5790    0.5054    1.5713 N   0  0  0  0  0  0  0  0  0  0  0  0
   -0.7684   -0.4833    1.1518 C   0  0  0  0  0  0  0  0  0  0  0  0
   -3.5199    1.8812    1.4542 C   0  0  0  0  0  0  0  0  0  0  0  0
   -4.5516    1.2942    2.4215 C   0  0  0  0  0  0  0  0  0  0  0  0
   -0.5346   -2.9412   -1.7564 C   0  0  0  0  0  0  0  0  0  0  0  0
   -0.9317   -2.1762   -2.8613 C   0  0  0  0  0  0  0  0  0  0  0  0
   -1.1176   -2.8075   -4.0683 C   0  0  0  0  0  0  0  0  0  0  0  0
   -1.4952   -2.2211   -5.3806 C   0  0  0  0  0  0  0  0  0  0  0  0
   -1.7596   -1.0710   -5.6323 O   0  0  0  0  0  0  0  0  0  0  0  0
   -1.4601   -3.3774   -6.3220 C   0  0  0  0  0  0  0  0  0  0  0  0
   -1.1164   -4.5458   -5.6122 C   0  0  0  0  0  0  0  0  0  0  0  0
   -0.9118   -4.1937   -4.2129 C   0  0  0  0  0  0  0  0  0  0  0  0
   -0.5481   -4.9532   -3.1183 C   0  0  0  0  0  0  0  0  0  0  0  0
   -0.3641   -4.3176   -1.8969 C   0  0  0  0  0  0  0  0  0  0  0  0
   -0.9804   -5.7472   -6.2833 C   0  0  0  0  0  0  0  0  0  0  0  0
   -1.2098   -5.7751   -7.6487 C   0  0  0  0  0  0  0  0  0  0  0  0
   -1.5655   -4.6234   -8.3612 C   0  0  0  0  0  0  0  0  0  0  0  0
   -1.6701   -3.3989   -7.6779 C   0  0  0  0  0  0  0  0  0  0  0  0
   -1.7445   -4.6402   -9.7901 C   0  0  0  0  0  0  0  0  0  0  0  0
   -2.1432   -5.6470  -10.6022 C   0  0  0  0  0  0  0  0  0  0  0  0
   -1.8636   -5.5522  -12.0656 C   0  0  0  0  0  0  0  0  0  0  0  0
   -1.5269   -4.5680  -12.6761 O   0  0  0  0  0  0  0  0  0  0  0  0
   -2.0299   -6.9308  -12.5769 C   0  0  0  0  0  0  0  0  0  0  0  0
   -1.7574   -7.4174  -13.8400 C   0  0  0  0  0  0  0  0  0  0  0  0
   -1.9652   -8.7694  -14.0857 C   0  0  0  0  0  0  0  0  0  0  0  0
   -1.6433   -9.4408  -15.6345 Cl  0  0  0  0  0  0  0  0  0  0  0  0
   -2.4396   -9.5886  -13.0562 C   0  0  0  0  0  0  0  0  0  0  0  0
   -2.6229  -10.8907  -13.2968 F   0  0  0  0  0  0  0  0  0  0  0  0
   -2.7247   -9.1067  -11.7888 C   0  0  0  0  0  0  0  0  0  0  0  0
   -2.5172   -7.7574  -11.5477 C   0  0  0  0  0  0  0  0  0  0  0  0
   -2.7387   -6.9490  -10.3519 C   0  0  0  0  0  0  0  0  0  0  0  0
   -3.5593   -7.2836   -9.3107 C   0  0  0  0  0  0  0  0  0  0  0  0
   -4.1815   -8.5434   -9.1767 C   0  0  0  0  0  0  0  0  0  0  0  0
   -4.6922   -9.5575   -9.0135 N   0  0  0  0  0  0  0  0  0  0  0  0
   -3.9407   -6.3883   -8.2879 C   0  0  0  0  0  0  0  0  0  0  0  0
   -4.3182   -5.6946   -7.4561 N   0  0  0  0  0  0  0  0  0  0  0  0
    2.6442    7.1343    7.6900 H   0  0  0  0  0  0  0  0  0  0  0  0
    2.0129    6.0350    5.5626 H   0  0  0  0  0  0  0  0  0  0  0  0
    2.9671    1.6883    7.7842 H   0  0  0  0  0  0  0  0  0  0  0  0
    3.6023    3.7979    8.8653 H   0  0  0  0  0  0  0  0  0  0  0  0
    2.1839   -0.2454    6.1387 H   0  0  0  0  0  0  0  0  0  0  0  0
    1.3729   -1.6159    4.2731 H   0  0  0  0  0  0  0  0  0  0  0  0
    0.3339    1.9063    2.0552 H   0  0  0  0  0  0  0  0  0  0  0  0
   -5.0359    0.6799   -0.4919 H   0  0  0  0  0  0  0  0  0  0  0  0
   -4.5105   -0.6075   -1.5963 H   0  0  0  0  0  0  0  0  0  0  0  0
   -4.7615    1.5825   -2.7736 H   0  0  0  0  0  0  0  0  0  0  0  0
   -3.5124    2.2820   -1.7388 H   0  0  0  0  0  0  0  0  0  0  0  0
   -3.1095    0.9712   -2.8517 H   0  0  0  0  0  0  0  0  0  0  0  0
   -4.0246    2.4239    0.6555 H   0  0  0  0  0  0  0  0  0  0  0  0
   -2.8759    2.5707    2.0012 H   0  0  0  0  0  0  0  0  0  0  0  0
   -4.0458    0.7867    3.2392 H   0  0  0  0  0  0  0  0  0  0  0  0
   -5.1695    2.0879    2.8333 H   0  0  0  0  0  0  0  0  0  0  0  0
   -5.1971    0.5771    1.9183 H   0  0  0  0  0  0  0  0  0  0  0  0
   -1.0670   -1.1109   -2.7746 H   0  0  0  0  0  0  0  0  0  0  0  0
   -0.3993   -6.0189   -3.2016 H   0  0  0  0  0  0  0  0  0  0  0  0
   -0.0839   -4.9082   -1.0381 H   0  0  0  0  0  0  0  0  0  0  0  0
   -0.6952   -6.6479   -5.7618 H   0  0  0  0  0  0  0  0  0  0  0  0
   -1.0674   -6.7012   -8.1871 H   0  0  0  0  0  0  0  0  0  0  0  0
   -1.9294   -2.4950   -8.2081 H   0  0  0  0  0  0  0  0  0  0  0  0
   -1.4555   -3.7303  -10.3086 H   0  0  0  0  0  0  0  0  0  0  0  0
   -1.3920   -6.7620  -14.6143 H   0  0  0  0  0  0  0  0  0  0  0  0
   -3.0844   -9.7902  -11.0366 H   0  0  0  0  0  0  0  0  0  0  0  0
  1  2  2  0  0  0  0
  2  3  1  0  0  0  0
  3  4  2  0  0  0  0
  3  5  1  0  0  0  0
  5  6  2  0  0  0  0
  6  7  1  0  0  0  0
  6  8  1  0  0  0  0
  8  9  1  0  0  0  0
  8 10  2  0  0  0  0
 10 11  1  0  0  0  0
 10 12  1  0  0  0  0
 12 13  1  0  0  0  0
 12 14  2  0  0  0  0
 14 15  1  0  0  0  0
 15 16  2  0  0  0  0
 16 17  1  0  0  0  0
 17 18  3  0  0  0  0
 16 19  1  0  0  0  0
 19 20  3  0  0  0  0
  1 21  1  0  0  0  0
 21 22  2  0  0  0  0
 22 23  1  0  0  0  0
 23 24  1  0  0  0  0
 24 25  2  0  0  0  0
 24 26  1  0  0  0  0
 26 27  2  0  0  0  0
 27 28  1  0  0  0  0
 28 29  1  0  0  0  0
 29 30  2  0  0  0  0
 27 31  1  0  0  0  0
 31 32  2  0  0  0  0
 32 33  1  0  0  0  0
 33 34  2  0  0  0  0
 33 35  1  0  0  0  0
 35 36  2  0  0  0  0
 36 37  1  0  0  0  0
 36 38  1  0  0  0  0
 38 39  1  0  0  0  0
 38 40  2  0  0  0  0
 40 41  1  0  0  0  0
 41 42  2  0  0  0  0
 42 43  1  0  0  0  0
 43 44  1  0  0  0  0
 44 45  1  0  0  0  0
 43 46  2  0  0  0  0
 46 47  1  0  0  0  0
 47 48  2  0  0  0  0
 46 49  1  0  0  0  0
 49 50  1  0  0  0  0
 40 51  1  0  0  0  0
 51 52  2  0  0  0  0
 52 53  1  0  0  0  0
 53 54  1  0  0  0  0
 54 55  2  0  0  0  0
 54 56  1  0  0  0  0
 56 57  2  0  0  0  0
 57 58  1  0  0  0  0
 58 59  1  0  0  0  0
 59 60  2  0  0  0  0
 57 61  1  0  0  0  0
 61 62  2  0  0  0  0
 62 63  1  0  0  0  0
 63 64  2  0  0  0  0
 63 65  1  0  0  0  0
 65 66  2  0  0  0  0
 66 67  1  0  0  0  0
 67 68  2  0  0  0  0
 67 69  1  0  0  0  0
 69 70  2  0  0  0  0
 70 71  1  0  0  0  0
 71 72  1  0  0  0  0
 71 73  2  0  0  0  0
 73 74  1  0  0  0  0
 73 75  1  0  0  0  0
 75 76  2  0  0  0  0
 76 77  1  0  0  0  0
 77 78  2  0  0  0  0
 78 79  1  0  0  0  0
 79 80  3  0  0  0  0
 78 81  1  0  0  0  0
 81 82  3  0  0  0  0
 15  2  1  0  0  0  0
 30 21  1  0  0  0  0
 48 35  1  0  0  0  0
 60 51  1  0  0  0  0
 77 66  1  0  0  0  0
 14  5  1  0  0  0  0
 28 23  2  0  0  0  0
 48 41  1  0  0  0  0
 58 53  2  0  0  0  0
 76 69  1  0  0  0  0
 34 26  1  0  0  0  0
 64 56  1  0  0  0  0
  1 83  1  0  0  0  0
 22 84  1  0  0  0  0
 29 85  1  0  0  0  0
 30 86  1  0  0  0  0
 31 87  1  0  0  0  0
 32 88  1  0  0  0  0
 34 89  1  0  0  0  0
 44 90  1  0  0  0  0
 44 91  1  0  0  0  0
 45 92  1  0  0  0  0
 45 93  1  0  0  0  0
 45 94  1  0  0  0  0
 49 95  1  0  0  0  0
 49 96  1  0  0  0  0
 50 97  1  0  0  0  0
 50 98  1  0  0  0  0
 50 99  1  0  0  0  0
 52100  1  0  0  0  0
 59101  1  0  0  0  0
 60102  1  0  0  0  0
 61103  1  0  0  0  0
 62104  1  0  0  0  0
 64105  1  0  0  0  0
 65106  1  0  0  0  0
 70107  1  0  0  0  0
 75108  1  0  0  0  0
M  END
