
  xtb     02112202433D
 energy: -205.797392710870 gnorm: 0.000304872939 xtb: 6.4.1 (unknown)
 89101  0     0  0            999 V2000
    6.6795   -1.5906   -7.1023 C   0  0  0  0  0  0  0  0  0  0  0  0
    7.6624   -0.9335   -6.4294 C   0  0  0  0  0  0  0  0  0  0  0  0
    7.4594    0.0035   -5.2981 C   0  0  0  0  0  0  0  0  0  0  0  0
    6.4433    0.5777   -4.9856 O   0  0  0  0  0  0  0  0  0  0  0  0
    8.8066    0.1885   -4.7069 C   0  0  0  0  0  0  0  0  0  0  0  0
    9.1467    0.7880   -3.5080 C   0  0  0  0  0  0  0  0  0  0  0  0
    7.9716    1.5508   -2.5346 Cl  0  0  0  0  0  0  0  0  0  0  0  0
   10.4845    0.7307   -3.0934 C   0  0  0  0  0  0  0  0  0  0  0  0
   10.9562    1.4730   -1.6279 Cl  0  0  0  0  0  0  0  0  0  0  0  0
   11.4220    0.0321   -3.8538 C   0  0  0  0  0  0  0  0  0  0  0  0
   13.0288   -0.0998   -3.2832 Cl  0  0  0  0  0  0  0  0  0  0  0  0
   11.0692   -0.5801   -5.0674 C   0  0  0  0  0  0  0  0  0  0  0  0
   12.2336   -1.5630   -5.8535 Cl  0  0  0  0  0  0  0  0  0  0  0  0
    9.7641   -0.4436   -5.5253 C   0  0  0  0  0  0  0  0  0  0  0  0
    9.0893   -0.9408   -6.7232 C   0  0  0  0  0  0  0  0  0  0  0  0
    9.6604   -1.1933   -7.9392 C   0  0  0  0  0  0  0  0  0  0  0  0
   10.9788   -0.8446   -8.3105 C   0  0  0  0  0  0  0  0  0  0  0  0
   11.9879   -0.5027   -8.7356 N   0  0  0  0  0  0  0  0  0  0  0  0
    8.9644   -1.6899   -9.0652 C   0  0  0  0  0  0  0  0  0  0  0  0
    8.4872   -2.1130  -10.0191 N   0  0  0  0  0  0  0  0  0  0  0  0
    5.3306   -1.7220   -6.6666 C   0  0  0  0  0  0  0  0  0  0  0  0
    4.9181   -1.7661   -5.3199 C   0  0  0  0  0  0  0  0  0  0  0  0
    3.5235   -1.8207   -4.9469 C   0  0  0  0  0  0  0  0  0  0  0  0
    3.3667   -1.8456   -3.6207 N   0  0  0  0  0  0  0  0  0  0  0  0
    4.8094   -1.8363   -2.9240 S   0  0  0  0  0  4  0  0  0  0  0  0
    5.7087   -1.8040   -4.2439 N   0  0  0  0  0  0  0  0  0  0  0  0
    2.4690   -1.8631   -5.8821 C   0  0  0  0  0  0  0  0  0  0  0  0
    2.8848   -1.9200   -7.2297 C   0  0  0  0  0  0  0  0  0  0  0  0
    2.0978   -2.0095   -8.3059 N   0  0  0  0  0  0  0  0  0  0  0  0
    3.0053   -2.0311   -9.6246 S   0  0  0  0  0  0  0  0  0  0  0  0
    4.4407   -1.9199   -8.9278 N   0  0  0  0  0  0  0  0  0  0  0  0
    4.2850   -1.8697   -7.6029 C   0  0  0  0  0  0  0  0  0  0  0  0
    1.1122   -1.8428   -5.4646 C   0  0  0  0  0  0  0  0  0  0  0  0
    0.7283   -1.7201   -3.7603 S   0  0  0  0  0  0  0  0  0  0  0  0
   -0.9558   -1.7211   -4.1249 C   0  0  0  0  0  0  0  0  0  0  0  0
   -2.0497   -1.6187   -3.2556 C   0  0  0  0  0  0  0  0  0  0  0  0
   -3.3352   -1.6288   -3.7971 C   0  0  0  0  0  0  0  0  0  0  0  0
   -3.5779   -1.7505   -5.1137 O   0  0  0  0  0  0  0  0  0  0  0  0
   -2.5585   -1.8521   -6.0369 C   0  0  0  0  0  0  0  0  0  0  0  0
   -2.8539   -1.9523   -7.1973 O   0  0  0  0  0  0  0  0  0  0  0  0
   -1.2038   -1.8266   -5.5006 C   0  0  0  0  0  0  0  0  0  0  0  0
   -0.0225   -1.8927   -6.2488 C   0  0  0  0  0  0  0  0  0  0  0  0
   -4.3407   -1.4888   -2.8295 C   0  0  0  0  0  0  0  0  0  0  0  0
   -3.8396   -1.3704   -1.5532 C   0  0  0  0  0  0  0  0  0  0  0  0
   -2.0952   -1.4428   -1.5406 S   0  0  0  0  0  0  0  0  0  0  0  0
   -4.5555   -1.1750   -0.3147 C   0  0  0  0  0  0  0  0  0  0  0  0
   -3.8527   -1.1634    0.9025 C   0  0  0  0  0  0  0  0  0  0  0  0
   -4.5396   -0.9376    2.0685 C   0  0  0  0  0  0  0  0  0  0  0  0
   -4.0204   -0.8639    3.4632 C   0  0  0  0  0  0  0  0  0  0  0  0
   -2.8903   -1.0468    3.8407 O   0  0  0  0  0  0  0  0  0  0  0  0
   -5.2194   -0.5310    4.2796 C   0  0  0  0  0  0  0  0  0  0  0  0
   -6.3542   -0.4683    3.4442 C   0  0  0  0  0  0  0  0  0  0  0  0
   -5.9315   -0.7162    2.0726 C   0  0  0  0  0  0  0  0  0  0  0  0
   -6.6322   -0.7422    0.8805 C   0  0  0  0  0  0  0  0  0  0  0  0
   -5.9406   -0.9704   -0.2991 C   0  0  0  0  0  0  0  0  0  0  0  0
   -7.5987   -0.2096    3.9900 C   0  0  0  0  0  0  0  0  0  0  0  0
   -7.6903    0.0091    5.3556 C   0  0  0  0  0  0  0  0  0  0  0  0
   -6.5590    0.0130    6.1800 C   0  0  0  0  0  0  0  0  0  0  0  0
   -5.3031   -0.2913    5.6287 C   0  0  0  0  0  0  0  0  0  0  0  0
   -6.7189    0.2848    7.5897 C   0  0  0  0  0  0  0  0  0  0  0  0
   -5.8682    0.9980    8.3674 C   0  0  0  0  0  0  0  0  0  0  0  0
   -4.7870    1.8919    7.8573 C   0  0  0  0  0  0  0  0  0  0  0  0
   -4.4227    2.0500    6.7166 O   0  0  0  0  0  0  0  0  0  0  0  0
   -4.3085    2.6366    9.0418 C   0  0  0  0  0  0  0  0  0  0  0  0
   -3.3270    3.6069    9.0900 C   0  0  0  0  0  0  0  0  0  0  0  0
   -3.0345    4.1890   10.3170 C   0  0  0  0  0  0  0  0  0  0  0  0
   -1.8212    5.3974   10.4516 Cl  0  0  0  0  0  0  0  0  0  0  0  0
   -3.7423    3.7811   11.4528 C   0  0  0  0  0  0  0  0  0  0  0  0
   -3.4612    4.3504   12.6289 F   0  0  0  0  0  0  0  0  0  0  0  0
   -4.7291    2.8100   11.4116 C   0  0  0  0  0  0  0  0  0  0  0  0
   -5.0156    2.2267   10.1853 C   0  0  0  0  0  0  0  0  0  0  0  0
   -5.9737    1.1944    9.8087 C   0  0  0  0  0  0  0  0  0  0  0  0
   -6.7716    0.4932   10.6695 C   0  0  0  0  0  0  0  0  0  0  0  0
   -7.6524   -0.5472   10.2992 C   0  0  0  0  0  0  0  0  0  0  0  0
   -8.3822   -1.4052   10.0791 N   0  0  0  0  0  0  0  0  0  0  0  0
   -6.8076    0.7070   12.0656 C   0  0  0  0  0  0  0  0  0  0  0  0
   -6.8841    0.8367   13.2027 N   0  0  0  0  0  0  0  0  0  0  0  0
    6.8990   -2.0674   -8.0490 H   0  0  0  0  0  0  0  0  0  0  0  0
    0.0076   -1.9710   -7.3198 H   0  0  0  0  0  0  0  0  0  0  0  0
   -5.3832   -1.4807   -3.0839 H   0  0  0  0  0  0  0  0  0  0  0  0
   -2.7848   -1.3247    0.9235 H   0  0  0  0  0  0  0  0  0  0  0  0
   -7.6989   -0.5791    0.8580 H   0  0  0  0  0  0  0  0  0  0  0  0
   -6.4860   -0.9769   -1.2292 H   0  0  0  0  0  0  0  0  0  0  0  0
   -8.4837   -0.1782    3.3730 H   0  0  0  0  0  0  0  0  0  0  0  0
   -8.6548    0.2179    5.7959 H   0  0  0  0  0  0  0  0  0  0  0  0
   -4.4246   -0.3665    6.2485 H   0  0  0  0  0  0  0  0  0  0  0  0
   -7.6275   -0.1030    8.0343 H   0  0  0  0  0  0  0  0  0  0  0  0
   -2.8017    3.8992    8.1947 H   0  0  0  0  0  0  0  0  0  0  0  0
   -5.2387    2.5461   12.3238 H   0  0  0  0  0  0  0  0  0  0  0  0
  1  2  2  0  0  0  0
  2  3  1  0  0  0  0
  3  4  2  0  0  0  0
  3  5  1  0  0  0  0
  5  6  2  0  0  0  0
  6  7  1  0  0  0  0
  6  8  1  0  0  0  0
  8  9  1  0  0  0  0
  8 10  2  0  0  0  0
 10 11  1  0  0  0  0
 10 12  1  0  0  0  0
 12 13  1  0  0  0  0
 12 14  2  0  0  0  0
 14 15  1  0  0  0  0
 15 16  2  0  0  0  0
 16 17  1  0  0  0  0
 17 18  3  0  0  0  0
 16 19  1  0  0  0  0
 19 20  3  0  0  0  0
  1 21  1  0  0  0  0
 21 22  2  0  0  0  0
 22 23  1  0  0  0  0
 23 24  1  0  0  0  0
 24 25  2  0  0  0  0
 25 26  2  0  0  0  0
 23 27  2  0  0  0  0
 27 28  1  0  0  0  0
 28 29  2  0  0  0  0
 29 30  1  0  0  0  0
 30 31  1  0  0  0  0
 31 32  2  0  0  0  0
 27 33  1  0  0  0  0
 33 34  1  0  0  0  0
 34 35  1  0  0  0  0
 35 36  1  0  0  0  0
 36 37  2  0  0  0  0
 37 38  1  0  0  0  0
 38 39  1  0  0  0  0
 39 40  2  0  0  0  0
 39 41  1  0  0  0  0
 41 42  1  0  0  0  0
 37 43  1  0  0  0  0
 43 44  2  0  0  0  0
 44 45  1  0  0  0  0
 44 46  1  0  0  0  0
 46 47  2  0  0  0  0
 47 48  1  0  0  0  0
 48 49  1  0  0  0  0
 49 50  2  0  0  0  0
 49 51  1  0  0  0  0
 51 52  2  0  0  0  0
 52 53  1  0  0  0  0
 53 54  1  0  0  0  0
 54 55  2  0  0  0  0
 52 56  1  0  0  0  0
 56 57  2  0  0  0  0
 57 58  1  0  0  0  0
 58 59  2  0  0  0  0
 58 60  1  0  0  0  0
 60 61  2  0  0  0  0
 61 62  1  0  0  0  0
 62 63  2  0  0  0  0
 62 64  1  0  0  0  0
 64 65  2  0  0  0  0
 65 66  1  0  0  0  0
 66 67  1  0  0  0  0
 66 68  2  0  0  0  0
 68 69  1  0  0  0  0
 68 70  1  0  0  0  0
 70 71  2  0  0  0  0
 71 72  1  0  0  0  0
 72 73  2  0  0  0  0
 73 74  1  0  0  0  0
 74 75  3  0  0  0  0
 73 76  1  0  0  0  0
 76 77  3  0  0  0  0
 15  2  1  0  0  0  0
 32 21  1  0  0  0  0
 42 33  2  0  0  0  0
 55 46  1  0  0  0  0
 72 61  1  0  0  0  0
 14  5  1  0  0  0  0
 26 22  1  0  0  0  0
 32 28  1  0  0  0  0
 41 35  2  0  0  0  0
 53 48  2  0  0  0  0
 71 64  1  0  0  0  0
 45 36  1  0  0  0  0
 59 51  1  0  0  0  0
  1 78  1  0  0  0  0
 42 79  1  0  0  0  0
 43 80  1  0  0  0  0
 47 81  1  0  0  0  0
 54 82  1  0  0  0  0
 55 83  1  0  0  0  0
 56 84  1  0  0  0  0
 57 85  1  0  0  0  0
 59 86  1  0  0  0  0
 60 87  1  0  0  0  0
 65 88  1  0  0  0  0
 70 89  1  0  0  0  0
M  END
