
  xtb     02112202573D
 energy: -299.819374005117 gnorm: 0.000728690410 xtb: 6.4.1 (unknown)
153167  0     0  0            999 V2000
   -3.4968    0.3436  -10.4246 C   0  0  0  0  0  0  0  0  0  0  0  0
   -2.8378   -0.1961  -11.4733 C   0  0  0  0  0  0  0  0  0  0  0  0
   -3.5424   -0.3816  -12.7739 C   0  0  0  0  0  0  0  0  0  0  0  0
   -4.7253   -0.2563  -12.9714 O   0  0  0  0  0  0  0  0  0  0  0  0
   -2.4758   -0.6877  -13.7529 C   0  0  0  0  0  0  0  0  0  0  0  0
   -2.5631   -0.7961  -15.1307 C   0  0  0  0  0  0  0  0  0  0  0  0
   -4.0660   -0.7155  -15.9333 Cl  0  0  0  0  0  0  0  0  0  0  0  0
   -1.3773   -0.9656  -15.8591 C   0  0  0  0  0  0  0  0  0  0  0  0
   -1.4382   -1.1347  -17.5597 Cl  0  0  0  0  0  0  0  0  0  0  0  0
   -0.1445   -0.9553  -15.2051 C   0  0  0  0  0  0  0  0  0  0  0  0
    1.2926   -1.0656  -16.1261 Cl  0  0  0  0  0  0  0  0  0  0  0  0
   -0.0626   -0.8424  -13.8100 C   0  0  0  0  0  0  0  0  0  0  0  0
    1.4837   -0.6643  -13.0865 Cl  0  0  0  0  0  0  0  0  0  0  0  0
   -1.2408   -0.7749  -13.0761 C   0  0  0  0  0  0  0  0  0  0  0  0
   -1.4813   -0.6944  -11.6391 C   0  0  0  0  0  0  0  0  0  0  0  0
   -0.7097   -1.2980  -10.6795 C   0  0  0  0  0  0  0  0  0  0  0  0
   -0.8988   -1.2764   -9.2852 C   0  0  0  0  0  0  0  0  0  0  0  0
   -0.8831   -1.3307   -8.1357 N   0  0  0  0  0  0  0  0  0  0  0  0
    0.3542   -2.1877  -10.9548 C   0  0  0  0  0  0  0  0  0  0  0  0
    1.1568   -3.0010  -11.0629 N   0  0  0  0  0  0  0  0  0  0  0  0
   -2.9355    0.7672   -9.1665 C   0  0  0  0  0  0  0  0  0  0  0  0
   -3.6464    0.4980   -7.9857 C   0  0  0  0  0  0  0  0  0  0  0  0
   -3.0337    0.7481   -6.7846 C   0  0  0  0  0  0  0  0  0  0  0  0
   -3.5053    0.4293   -5.4103 C   0  0  0  0  0  0  0  0  0  0  0  0
   -4.5688   -0.0362   -5.0788 O   0  0  0  0  0  0  0  0  0  0  0  0
   -2.3546    0.7857   -4.5424 C   0  0  0  0  0  0  0  0  0  0  0  0
   -1.3204    1.3327   -5.3277 C   0  0  0  0  0  0  0  0  0  0  0  0
   -1.7477    1.3248   -6.7179 C   0  0  0  0  0  0  0  0  0  0  0  0
   -1.1045    1.7139   -7.8787 C   0  0  0  0  0  0  0  0  0  0  0  0
   -1.6945    1.4092   -9.0948 C   0  0  0  0  0  0  0  0  0  0  0  0
   -0.1310    1.7066   -4.7298 C   0  0  0  0  0  0  0  0  0  0  0  0
    0.0440    1.4475   -3.3794 C   0  0  0  0  0  0  0  0  0  0  0  0
   -0.9509    0.8373   -2.6117 C   0  0  0  0  0  0  0  0  0  0  0  0
   -2.1994    0.5662   -3.1972 C   0  0  0  0  0  0  0  0  0  0  0  0
   -0.6919    0.4349   -1.2501 C   0  0  0  0  0  0  0  0  0  0  0  0
   -1.1868   -0.6773   -0.5880 C   0  0  0  0  0  0  0  0  0  0  0  0
   -1.9923   -1.6678   -1.1266 N   0  0  0  0  0  0  0  0  0  0  0  0
   -1.8426   -2.1146   -2.4453 C   0  0  0  0  0  0  0  0  0  0  0  0
   -0.5930   -2.1600   -3.0585 C   0  0  0  0  0  0  0  0  0  0  0  0
   -0.4614   -2.5931   -4.3630 C   0  0  0  0  0  0  0  0  0  0  0  0
   -1.5785   -3.0020   -5.0808 C   0  0  0  0  0  0  0  0  0  0  0  0
   -1.5284   -3.6095   -6.7341 S   0  0  0  0  0  0  0  0  0  0  0  0
    0.2366   -3.8990   -7.0305 C   0  0  0  0  0  0  0  0  0  0  0  0
   -2.8331   -2.9506   -4.4733 C   0  0  0  0  0  0  0  0  0  0  0  0
   -2.9650   -2.5135   -3.1766 C   0  0  0  0  0  0  0  0  0  0  0  0
   -2.9420   -2.2739   -0.2893 C   0  0  0  0  0  0  0  0  0  0  0  0
   -3.1623   -3.6509   -0.3403 C   0  0  0  0  0  0  0  0  0  0  0  0
   -4.0874   -4.2341    0.4936 C   0  0  0  0  0  0  0  0  0  0  0  0
   -4.8110   -3.4624    1.4030 C   0  0  0  0  0  0  0  0  0  0  0  0
   -5.9627   -4.3284    2.4196 S   0  0  0  0  0  0  0  0  0  0  0  0
   -6.6961   -3.0316    3.4573 C   0  0  0  0  0  0  0  0  0  0  0  0
   -4.5953   -2.0926    1.4567 C   0  0  0  0  0  0  0  0  0  0  0  0
   -3.6717   -1.5059    0.6135 C   0  0  0  0  0  0  0  0  0  0  0  0
   -0.7032   -0.7270    0.7461 C   0  0  0  0  0  0  0  0  0  0  0  0
   -0.8822   -1.8571    2.0374 S   0  0  0  0  0  0  0  0  0  0  0  0
    0.1875   -0.9021    3.0461 C   0  0  0  0  0  0  0  0  0  0  0  0
    0.6827    0.2171    2.3991 C   0  0  0  0  0  0  0  0  0  0  0  0
    1.6254    1.0996    2.9010 N   0  0  0  0  0  0  0  0  0  0  0  0
    1.5865    2.4337    2.4735 C   0  0  0  0  0  0  0  0  0  0  0  0
    0.3644    3.0685    2.2399 C   0  0  0  0  0  0  0  0  0  0  0  0
    0.3277    4.3755    1.8097 C   0  0  0  0  0  0  0  0  0  0  0  0
    1.5074    5.0874    1.6033 C   0  0  0  0  0  0  0  0  0  0  0  0
    1.3290    6.7559    1.0587 S   0  0  0  0  0  0  0  0  0  0  0  0
    3.0349    7.3590    0.9167 C   0  0  0  0  0  0  0  0  0  0  0  0
    2.7259    4.4610    1.8309 C   0  0  0  0  0  0  0  0  0  0  0  0
    2.7624    3.1477    2.2564 C   0  0  0  0  0  0  0  0  0  0  0  0
    2.6299    0.6687    3.7756 C   0  0  0  0  0  0  0  0  0  0  0  0
    3.0969    1.5014    4.7924 C   0  0  0  0  0  0  0  0  0  0  0  0
    4.0682    1.0643    5.6666 C   0  0  0  0  0  0  0  0  0  0  0  0
    4.5668   -0.2337    5.5734 C   0  0  0  0  0  0  0  0  0  0  0  0
    5.7030   -0.7364    6.8293 S   0  0  0  0  0  0  0  0  0  0  0  0
    6.0565   -2.4737    6.4352 C   0  0  0  0  0  0  0  0  0  0  0  0
    4.1385   -1.0550    4.5398 C   0  0  0  0  0  0  0  0  0  0  0  0
    3.1984   -0.5978    3.6391 C   0  0  0  0  0  0  0  0  0  0  0  0
    0.1563    0.3038    1.0824 C   0  0  0  0  0  0  0  0  0  0  0  0
    0.4185    1.3667   -0.2575 S   0  0  0  0  0  0  0  0  0  0  0  0
    0.5318   -1.3950    4.3638 C   0  0  0  0  0  0  0  0  0  0  0  0
    1.0189   -2.6836    4.5388 C   0  0  0  0  0  0  0  0  0  0  0  0
    1.0776   -3.5128    3.4772 F   0  0  0  0  0  0  0  0  0  0  0  0
    1.5918   -3.1263    5.7205 C   0  0  0  0  0  0  0  0  0  0  0  0
    1.6391   -2.2943    6.8299 C   0  0  0  0  0  0  0  0  0  0  0  0
    0.8967   -1.0847    6.7752 C   0  0  0  0  0  0  0  0  0  0  0  0
    0.5704   -0.4487    7.9195 N   0  0  0  0  0  0  0  0  0  0  0  0
   -0.0277    0.6953    7.8357 C   0  0  0  0  0  0  0  0  0  0  0  0
   -0.2952    1.2989    6.5699 C   0  0  0  0  0  0  0  0  0  0  0  0
   -0.7891    2.5291    6.5719 O   0  0  0  0  0  0  0  0  0  0  0  0
   -1.0371    3.1249    5.3017 C   0  0  0  0  0  0  0  0  0  0  0  0
   -1.5995    4.5160    5.5250 C   0  0  0  0  0  0  0  0  0  0  0  0
   -0.1191    0.6387    5.4509 N   0  0  0  0  0  0  0  0  0  0  0  0
    0.4358   -0.5906    5.5296 C   0  0  0  0  0  0  0  0  0  0  0  0
    2.4857   -2.6705    7.9288 C   0  0  0  0  0  0  0  0  0  0  0  0
    3.2556   -1.8573    8.6935 C   0  0  0  0  0  0  0  0  0  0  0  0
    3.3711   -0.3757    8.6326 C   0  0  0  0  0  0  0  0  0  0  0  0
    2.8931    0.3912    7.8271 O   0  0  0  0  0  0  0  0  0  0  0  0
    4.1715    0.0004    9.8218 C   0  0  0  0  0  0  0  0  0  0  0  0
    4.4558    1.2669   10.2996 C   0  0  0  0  0  0  0  0  0  0  0  0
    4.0137    2.6620    9.4254 Cl  0  0  0  0  0  0  0  0  0  0  0  0
    5.1088    1.3822   11.5338 C   0  0  0  0  0  0  0  0  0  0  0  0
    5.5049    2.9267   12.1487 Cl  0  0  0  0  0  0  0  0  0  0  0  0
    5.4000    0.2405   12.2808 C   0  0  0  0  0  0  0  0  0  0  0  0
    6.1072    0.4102   13.8291 Cl  0  0  0  0  0  0  0  0  0  0  0  0
    5.1136   -1.0421   11.7901 C   0  0  0  0  0  0  0  0  0  0  0  0
    5.3460   -2.3889   12.8256 Cl  0  0  0  0  0  0  0  0  0  0  0  0
    4.5572   -1.1585   10.5223 C   0  0  0  0  0  0  0  0  0  0  0  0
    4.2013   -2.3148    9.7100 C   0  0  0  0  0  0  0  0  0  0  0  0
    4.8336   -3.5269    9.7172 C   0  0  0  0  0  0  0  0  0  0  0  0
    6.0039   -3.8355   10.4476 C   0  0  0  0  0  0  0  0  0  0  0  0
    7.0074   -4.1485   10.9067 N   0  0  0  0  0  0  0  0  0  0  0  0
    4.5414   -4.5911    8.8344 C   0  0  0  0  0  0  0  0  0  0  0  0
    4.3864   -5.4932    8.1410 N   0  0  0  0  0  0  0  0  0  0  0  0
   -4.5674    0.4643  -10.5535 H   0  0  0  0  0  0  0  0  0  0  0  0
   -4.6199    0.0333   -8.0227 H   0  0  0  0  0  0  0  0  0  0  0  0
   -0.1424    2.2020   -7.8475 H   0  0  0  0  0  0  0  0  0  0  0  0
   -1.1907    1.6722  -10.0145 H   0  0  0  0  0  0  0  0  0  0  0  0
    0.6652    2.1560   -5.3036 H   0  0  0  0  0  0  0  0  0  0  0  0
    0.9855    1.6887   -2.9067 H   0  0  0  0  0  0  0  0  0  0  0  0
   -3.0225    0.1929   -2.6100 H   0  0  0  0  0  0  0  0  0  0  0  0
    0.2856   -1.8580   -2.5080 H   0  0  0  0  0  0  0  0  0  0  0  0
    0.5198   -2.6100   -4.8083 H   0  0  0  0  0  0  0  0  0  0  0  0
    0.6346   -4.5486   -6.2568 H   0  0  0  0  0  0  0  0  0  0  0  0
    0.7619   -2.9497   -7.0706 H   0  0  0  0  0  0  0  0  0  0  0  0
    0.2993   -4.3881   -7.9979 H   0  0  0  0  0  0  0  0  0  0  0  0
   -3.7031   -3.2507   -5.0356 H   0  0  0  0  0  0  0  0  0  0  0  0
   -3.9432   -2.4699   -2.7226 H   0  0  0  0  0  0  0  0  0  0  0  0
   -2.5980   -4.2558   -1.0334 H   0  0  0  0  0  0  0  0  0  0  0  0
   -4.2568   -5.2991    0.4598 H   0  0  0  0  0  0  0  0  0  0  0  0
   -7.2104   -2.3042    2.8360 H   0  0  0  0  0  0  0  0  0  0  0  0
   -5.9273   -2.5627    4.0647 H   0  0  0  0  0  0  0  0  0  0  0  0
   -7.4113   -3.5400    4.0963 H   0  0  0  0  0  0  0  0  0  0  0  0
   -5.1423   -1.4668    2.1430 H   0  0  0  0  0  0  0  0  0  0  0  0
   -3.5185   -0.4369    0.6525 H   0  0  0  0  0  0  0  0  0  0  0  0
   -0.5568    2.5310    2.4029 H   0  0  0  0  0  0  0  0  0  0  0  0
   -0.6177    4.8634    1.6289 H   0  0  0  0  0  0  0  0  0  0  0  0
    3.5713    6.7851    0.1666 H   0  0  0  0  0  0  0  0  0  0  0  0
    3.5287    7.3094    1.8827 H   0  0  0  0  0  0  0  0  0  0  0  0
    2.9521    8.3937    0.5986 H   0  0  0  0  0  0  0  0  0  0  0  0
    3.6576    4.9789    1.6715 H   0  0  0  0  0  0  0  0  0  0  0  0
    3.7159    2.6672    2.4175 H   0  0  0  0  0  0  0  0  0  0  0  0
    2.6889    2.4945    4.9024 H   0  0  0  0  0  0  0  0  0  0  0  0
    4.4391    1.7214    6.4358 H   0  0  0  0  0  0  0  0  0  0  0  0
    6.5401   -2.5420    5.4653 H   0  0  0  0  0  0  0  0  0  0  0  0
    5.1403   -3.0580    6.4625 H   0  0  0  0  0  0  0  0  0  0  0  0
    6.7400   -2.8184    7.2056 H   0  0  0  0  0  0  0  0  0  0  0  0
    4.5355   -2.0494    4.4143 H   0  0  0  0  0  0  0  0  0  0  0  0
    2.8998   -1.2341    2.8193 H   0  0  0  0  0  0  0  0  0  0  0  0
    2.0773   -4.0905    5.7303 H   0  0  0  0  0  0  0  0  0  0  0  0
   -0.3341    1.1814    8.7501 H   0  0  0  0  0  0  0  0  0  0  0  0
   -1.7387    2.4930    4.7453 H   0  0  0  0  0  0  0  0  0  0  0  0
   -0.0965    3.1667    4.7419 H   0  0  0  0  0  0  0  0  0  0  0  0
   -2.5456    4.4613    6.0565 H   0  0  0  0  0  0  0  0  0  0  0  0
   -1.7544    5.0031    4.5669 H   0  0  0  0  0  0  0  0  0  0  0  0
   -0.9044    5.1073    6.1144 H   0  0  0  0  0  0  0  0  0  0  0  0
    2.5665   -3.7388    8.0882 H   0  0  0  0  0  0  0  0  0  0  0  0
  1  2  2  0  0  0  0
  2  3  1  0  0  0  0
  3  4  2  0  0  0  0
  3  5  1  0  0  0  0
  5  6  2  0  0  0  0
  6  7  1  0  0  0  0
  6  8  1  0  0  0  0
  8  9  1  0  0  0  0
  8 10  2  0  0  0  0
 10 11  1  0  0  0  0
 10 12  1  0  0  0  0
 12 13  1  0  0  0  0
 12 14  2  0  0  0  0
 14 15  1  0  0  0  0
 15 16  2  0  0  0  0
 16 17  1  0  0  0  0
 17 18  3  0  0  0  0
 16 19  1  0  0  0  0
 19 20  3  0  0  0  0
  1 21  1  0  0  0  0
 21 22  2  0  0  0  0
 22 23  1  0  0  0  0
 23 24  1  0  0  0  0
 24 25  2  0  0  0  0
 24 26  1  0  0  0  0
 26 27  2  0  0  0  0
 27 28  1  0  0  0  0
 28 29  1  0  0  0  0
 29 30  2  0  0  0  0
 27 31  1  0  0  0  0
 31 32  2  0  0  0  0
 32 33  1  0  0  0  0
 33 34  2  0  0  0  0
 33 35  1  0  0  0  0
 35 36  2  0  0  0  0
 36 37  1  0  0  0  0
 37 38  1  0  0  0  0
 38 39  2  0  0  0  0
 39 40  1  0  0  0  0
 40 41  2  0  0  0  0
 41 42  1  0  0  0  0
 42 43  1  0  0  0  0
 41 44  1  0  0  0  0
 44 45  2  0  0  0  0
 37 46  1  0  0  0  0
 46 47  2  0  0  0  0
 47 48  1  0  0  0  0
 48 49  2  0  0  0  0
 49 50  1  0  0  0  0
 50 51  1  0  0  0  0
 49 52  1  0  0  0  0
 52 53  2  0  0  0  0
 36 54  1  0  0  0  0
 54 55  1  0  0  0  0
 55 56  1  0  0  0  0
 56 57  2  0  0  0  0
 57 58  1  0  0  0  0
 58 59  1  0  0  0  0
 59 60  2  0  0  0  0
 60 61  1  0  0  0  0
 61 62  2  0  0  0  0
 62 63  1  0  0  0  0
 63 64  1  0  0  0  0
 62 65  1  0  0  0  0
 65 66  2  0  0  0  0
 58 67  1  0  0  0  0
 67 68  2  0  0  0  0
 68 69  1  0  0  0  0
 69 70  2  0  0  0  0
 70 71  1  0  0  0  0
 71 72  1  0  0  0  0
 70 73  1  0  0  0  0
 73 74  2  0  0  0  0
 57 75  1  0  0  0  0
 75 76  1  0  0  0  0
 56 77  1  0  0  0  0
 77 78  2  0  0  0  0
 78 79  1  0  0  0  0
 78 80  1  0  0  0  0
 80 81  2  0  0  0  0
 81 82  1  0  0  0  0
 82 83  2  0  0  0  0
 83 84  1  0  0  0  0
 84 85  2  0  0  0  0
 85 86  1  0  0  0  0
 86 87  1  0  0  0  0
 87 88  1  0  0  0  0
 85 89  1  0  0  0  0
 89 90  2  0  0  0  0
 81 91  1  0  0  0  0
 91 92  2  0  0  0  0
 92 93  1  0  0  0  0
 93 94  2  0  0  0  0
 93 95  1  0  0  0  0
 95 96  2  0  0  0  0
 96 97  1  0  0  0  0
 96 98  1  0  0  0  0
 98 99  1  0  0  0  0
 98100  2  0  0  0  0
100101  1  0  0  0  0
100102  1  0  0  0  0
102103  1  0  0  0  0
102104  2  0  0  0  0
104105  1  0  0  0  0
105106  2  0  0  0  0
106107  1  0  0  0  0
107108  3  0  0  0  0
106109  1  0  0  0  0
109110  3  0  0  0  0
 15  2  1  0  0  0  0
 30 21  1  0  0  0  0
 76 35  1  0  0  0  0
 90 77  1  0  0  0  0
105 92  1  0  0  0  0
 14  5  1  0  0  0  0
 28 23  2  0  0  0  0
 45 38  1  0  0  0  0
 53 46  1  0  0  0  0
 75 54  2  0  0  0  0
 90 82  1  0  0  0  0
104 95  1  0  0  0  0
 34 26  1  0  0  0  0
 66 59  1  0  0  0  0
 74 67  1  0  0  0  0
  1111  1  0  0  0  0
 22112  1  0  0  0  0
 29113  1  0  0  0  0
 30114  1  0  0  0  0
 31115  1  0  0  0  0
 32116  1  0  0  0  0
 34117  1  0  0  0  0
 39118  1  0  0  0  0
 40119  1  0  0  0  0
 43120  1  0  0  0  0
 43121  1  0  0  0  0
 43122  1  0  0  0  0
 44123  1  0  0  0  0
 45124  1  0  0  0  0
 47125  1  0  0  0  0
 48126  1  0  0  0  0
 51127  1  0  0  0  0
 51128  1  0  0  0  0
 51129  1  0  0  0  0
 52130  1  0  0  0  0
 53131  1  0  0  0  0
 60132  1  0  0  0  0
 61133  1  0  0  0  0
 64134  1  0  0  0  0
 64135  1  0  0  0  0
 64136  1  0  0  0  0
 65137  1  0  0  0  0
 66138  1  0  0  0  0
 68139  1  0  0  0  0
 69140  1  0  0  0  0
 72141  1  0  0  0  0
 72142  1  0  0  0  0
 72143  1  0  0  0  0
 73144  1  0  0  0  0
 74145  1  0  0  0  0
 80146  1  0  0  0  0
 84147  1  0  0  0  0
 87148  1  0  0  0  0
 87149  1  0  0  0  0
 88150  1  0  0  0  0
 88151  1  0  0  0  0
 88152  1  0  0  0  0
 91153  1  0  0  0  0
M  END
