177

C          0.73700        4.35750      -12.76020
C         -0.21700        4.04730      -13.68300
C         -0.61530        5.04030      -14.71070
O         -0.01110        6.03160      -15.03790
C         -1.94950        4.58430      -15.18210
C         -2.85610        5.23590      -16.00040
Cl        -2.45950        6.70370      -16.77360
C         -4.12550        4.66260      -16.17330
Cl        -5.26820        5.42130      -17.19390
C         -4.47400        3.50080      -15.48520
Cl        -6.05900        2.87690      -15.63660
C         -3.54930        2.84270      -14.65960
Cl        -4.07600        1.51350      -13.71150
C         -2.26620        3.35860      -14.56140
C         -1.08300        2.89540      -13.83950
C         -0.69660        1.59360      -13.66930
C          0.57110        1.24180      -13.15320
N          1.58810        0.89440      -12.75130
C         -1.39830        0.44970      -14.10350
N         -1.86460       -0.53810      -14.45500
C          0.95980        3.73040      -11.51470
C          0.14030        2.85300      -10.84210
C          0.62950        2.46160       -9.58660
C          0.00380        1.59160       -8.66340
C         -1.16940        0.84080       -9.04680
C         -1.39770        0.21370      -10.24290
C         -2.63590       -0.45280      -10.29560
C         -3.36200       -0.33460       -9.14890
C         -4.69320       -0.91830       -8.82510
C         -4.58510       -1.96550       -7.71510
S         -2.50970        0.60060       -7.96380
C          0.60470        1.49090       -7.41870
C          1.81540        2.15190       -7.08110
C          2.47310        2.96930       -8.02560
C          3.71070        3.66220       -7.73220
C          4.77590        3.86410       -8.56560
C          5.81430        4.60900       -7.97340
C          5.54460        4.99980       -6.69780
C          6.40200        5.77010       -5.75410
C          6.85190        4.90650       -4.57370
S          3.98700        4.43450       -6.19470
C          1.85280        3.10300       -9.26290
S          2.38380        4.12430      -10.56870
C          2.22280        1.84290       -5.76360
C          1.36730        1.00920       -5.10250
S          0.01220        0.52460       -6.09530
C          1.46030        0.56920       -3.75260
C          0.58340       -0.22880       -3.07800
C          0.92840       -0.42710       -1.71920
C          0.20730       -1.13580       -0.74300
C         -0.99560       -1.89670       -1.10370
C         -0.95540       -2.80290       -2.16130
C         -2.08530       -3.50820       -2.52250
C         -3.28550       -3.32900       -1.84450
C         -4.52420       -4.04990       -2.29140
C         -5.17440       -3.31270       -3.46450
C         -3.31930       -2.43380       -0.78330
C         -2.19050       -1.72860       -0.41140
C          0.69500       -1.06970        0.55160
C          1.87780       -0.36950        0.90460
C          2.61430        0.31250       -0.07770
C          3.83110        1.07410        0.23420
C          4.99530        0.86640       -0.50080
C          6.12770        1.61250       -0.24380
C          6.13040        2.58840        0.74560
C          7.34630        3.44060        0.96710
C          7.39670        4.57100       -0.06320
C          4.96920        2.78970        1.48060
C          3.83350        2.04220        1.23390
C          2.11380        0.26520       -1.36880
S          2.78690        1.10840       -2.74080
C          2.16500       -0.48310        2.28760
C          1.24380       -1.21390        2.97810
S         -0.02710       -1.83590        1.94240
C          1.18950       -1.45650        4.38070
C          0.23520       -2.15850        5.05750
C          0.42090       -2.16780        6.45930
C         -0.40640       -2.75430        7.43980
C         -1.66050       -3.40190        7.11620
C         -2.20780       -4.51800        7.68580
C         -3.47410       -4.84750        7.16430
C         -3.91190       -3.97980        6.21140
C         -5.17450       -4.01910        5.42210
C         -4.90280       -4.34690        3.95240
S         -2.74500       -2.73290        5.92780
C          0.02830       -2.64230        8.75480
C          1.20560       -1.95070        9.13300
C          1.99560       -1.30730        8.15680
C          3.12400       -0.48500        8.53440
C          3.19590        0.41310        9.56380
C          4.43570        1.07670        9.63460
C          5.31680        0.68410        8.67340
C          6.69680        1.18280        8.41780
C          6.74180        2.06230        7.16640
S          4.61580       -0.51500        7.63750
C          1.59300       -1.46660        6.83690
S          2.39810       -0.78210        5.45000
C          1.42940       -2.01190       10.52590
C          0.43030       -2.63590       11.22210
S         -0.80780       -3.26810       10.14740
C          0.38710       -2.84250       12.62810
C         -0.70330       -3.03880       13.41030
C         -0.56840       -3.66070       14.75930
O          0.45430       -3.80990       15.38770
C         -1.93200       -4.09580       15.11240
C         -2.36440       -4.82890       16.20140
C         -3.71420       -5.12530       16.30310
C         -4.62590       -4.70710       15.33500
C         -6.07240       -5.06790       15.45420
C         -4.18490       -3.96470       14.24060
C         -2.84150       -3.65450       14.13180
C         -2.11660       -2.85630       13.14760
C         -2.66270       -1.90340       12.33010
C         -1.88830       -0.93630       11.65390
N         -1.29120       -0.09380       11.15220
C         -4.04850       -1.71410       12.16110
N         -5.16800       -1.53630       11.97900
H          1.32740        5.24160      -12.97360
H         -0.82930        2.56190      -11.20280
H         -0.66900        0.17910      -11.03320
H         -2.97210       -1.00170      -11.15750
H         -5.10400       -1.37450       -9.72790
H         -5.37350       -0.12570       -8.50210
H         -4.18710       -1.51290       -6.80940
H         -3.92150       -2.77150       -8.02000
H         -5.56380       -2.38400       -7.49450
H          4.83270        3.45670       -9.55880
H          6.73200        4.84840       -8.48070
H          5.84680        6.63150       -5.37310
H          7.27460        6.13950       -6.29660
H          7.48180        5.48550       -3.90280
H          5.98850        4.54790       -4.01720
H          7.41680        4.04690       -4.92760
H          3.11820        2.21620       -5.30210
H         -0.30240       -0.63350       -3.53480
H         -0.02560       -2.96570       -2.68720
H         -2.03680       -4.21020       -3.34300
H         -5.23540       -4.11430       -1.46580
H         -4.26930       -5.06510       -2.60330
H         -6.07250       -3.83260       -3.79000
H         -5.44530       -2.30080       -3.17110
H         -4.48520       -3.25210       -4.30380
H         -4.24260       -2.28360       -0.24220
H         -2.24100       -1.02370        0.40520
H          5.01410        0.10440       -1.26610
H          7.02480        1.43620       -0.82010
H          7.32420        3.86740        1.97160
H          8.24760        2.83060        0.87420
H          7.43320        4.16370       -1.07120
H          8.27660        5.19070        0.09420
H          6.51090        5.19700        0.01950
H          4.95170        3.54500        2.25360
H          2.93140        2.22820        1.79880
H          3.02600       -0.04140        2.75700
H         -0.57280       -2.65410        4.55120
H         -1.70300       -5.11120        8.42700
H         -4.04250       -5.70080        7.48970
H         -5.83410       -4.77450        5.85420
H         -5.67690       -3.05030        5.48510
H         -4.25750       -3.59100        3.51010
H         -4.41160       -5.31340        3.86430
H         -5.83560       -4.37870        3.39510
H          2.36670        0.62590       10.21470
H          4.66610        1.82160       10.37570
H          7.03020        1.75680        9.28480
H          7.37550        0.33680        8.28440
H          6.41930        1.49470        6.29630
H          7.75330        2.42120        6.99400
H          6.08250        2.91940        7.28360
H          2.29100       -1.58790       11.00880
H          1.34860       -2.91660       13.12680
H         -1.65890       -5.15280       16.95100
H         -4.07250       -5.69270       17.14970
H         -6.69790       -4.32740       14.96230
H         -6.25180       -6.03140       14.97560
H         -6.36890       -5.15130       16.49690
H         -4.89200       -3.64820       13.48970
