199

C          2.54900       10.95430       -4.81370
C          2.15190       10.93210       -6.11680
C          2.48280       12.05990       -7.02150
O          3.31470       12.91510       -6.84290
C          1.51490       11.94590       -8.14310
C          1.26470       12.83520       -9.17410
Cl         2.23530       14.21820       -9.40850
C          0.17940       12.57670      -10.02510
Cl        -0.14860       13.63260      -11.32890
C         -0.65830       11.48720       -9.78710
Cl        -2.03430       11.25310      -10.77480
C         -0.39770       10.58720       -8.74230
Cl        -1.54990        9.36590       -8.38830
C          0.73260       10.78640       -7.96360
C          1.30860       10.01270       -6.86490
C          1.33180        8.64740       -6.78110
C          0.73070        7.74190       -7.68060
N          0.32000        6.91540       -8.36320
C          2.08630        7.92900       -5.82350
N          2.69190        7.26870       -5.10730
C          2.04580       10.12440       -3.78610
C          0.89580        9.37810       -3.81740
C          0.75140        8.50930       -2.72600
C         -0.21190        7.48670       -2.62100
C         -1.15870        7.28200       -3.70380
C         -2.03610        8.16640       -4.25870
C         -2.67670        7.66330       -5.41020
C         -2.27190        6.41000       -5.75470
C         -2.66190        5.60850       -6.94750
C         -3.03810        4.17050       -6.59910
S         -1.10320        5.80480       -4.62560
C         -0.06450        6.62950       -1.55120
C          0.93990        6.77560       -0.55710
C          1.90110        7.80930       -0.65740
C          2.95480        7.98740        0.31840
C          4.21370        8.48900        0.12510
C          4.98410        8.55070        1.30170
C          4.32160        8.11980        2.40980
C          4.82090        8.00150        3.80810
C          5.01690        6.53650        4.20460
S          2.71640        7.61450        2.00560
C          1.80350        8.62780       -1.78360
S          2.92730        9.86010       -2.29300
C          0.89500        5.70430        0.36640
C         -0.05600        4.76510        0.08470
S         -1.03990        5.21570       -1.29400
C         -0.25270        3.46830        0.63950
C          0.67500        2.55860        1.13530
N          2.03370        2.74720        1.31160
C          2.81230        3.52590        0.44630
C          2.49570        3.65680       -0.90630
C          3.23790        4.48590       -1.71840
C          4.32570        5.18860       -1.20610
S          5.17740        6.25750       -2.31830
C          6.77960        6.51720       -1.49610
C          4.66640        5.03550        0.13210
C          3.91380        4.21650        0.94860
C          2.66290        1.99790        2.32170
C          2.07990        1.90120        3.58210
C          2.64860        1.11450        4.56490
C          3.81540        0.41180        4.29950
S          4.61120       -0.64760        5.46410
C          3.36220       -0.86690        6.76550
C          4.42350        0.53660        3.05130
C          3.85640        1.32020        2.07240
C          0.04950        1.31000        1.38820
S          0.62610       -0.22080        1.93790
C         -0.95820       -0.95450        1.67030
C         -1.89520       -0.02450        1.23510
N         -3.23820       -0.24120        0.96830
C         -4.05510       -0.98740        1.82180
C         -5.18000       -1.63890        1.30940
C         -5.97420       -2.40110        2.13220
C         -5.66460       -2.54490        3.48460
S         -6.73460       -3.58670        4.42710
C         -5.88120       -3.75790        6.01950
C         -4.56080       -1.88290        4.00310
C         -3.76880       -1.10650        3.17880
C         -3.81030        0.51770       -0.06740
C         -3.12750        0.65670       -1.27590
C         -3.61650        1.49040       -2.26060
C         -4.79670        2.18640       -2.05010
S         -5.37580        3.35250       -3.26880
C         -4.10840        4.63190       -3.00190
C         -5.51510        2.00380       -0.87840
C         -5.02470        1.17720        0.11190
C         -1.29360        1.25080        1.06550
S         -1.86020        2.77120        0.47360
C         -1.01820       -2.36130        1.87490
C          0.02470       -3.11310        2.35160
C         -0.23190       -4.49790        2.39830
C          0.65180       -5.52890        2.78280
C          1.96180       -5.22020        3.31660
C          2.30080       -4.22970        4.19750
C          3.67630       -4.19380        4.49490
C          4.39510       -5.14560        3.83940
C          5.85500       -5.42540        3.92690
C          6.12690       -6.68960        4.74500
S          3.37050       -6.12840        2.84690
C          0.19200       -6.82790        2.60660
C         -1.11420       -7.13840        2.13480
C         -2.01430       -6.10020        1.79550
C         -3.36650       -6.34350        1.34410
C         -4.48780       -5.63400        1.68380
C         -5.65560       -6.11020        1.06340
C         -5.43460       -7.17110        0.23690
C         -6.41320       -7.90680       -0.61130
C         -6.26520       -7.52540       -2.08590
S         -3.76260       -7.61060        0.21940
C         -1.52940       -4.80590        1.92180
S         -2.39040       -3.36170        1.45060
C         -1.35280       -8.52400        2.10340
C         -0.27840       -9.28390        2.49910
S          1.08600       -8.27030        2.97120
C         -0.07630      -10.67850        2.58560
C         -0.85870      -11.73560        2.21230
C         -2.17340      -11.73250        1.52160
O         -2.93190      -10.80520        1.32540
C         -2.40610      -13.12750        1.10950
C         -3.45020      -13.64650        0.36800
C         -3.44900      -15.00350        0.09060
C         -2.42350      -15.83310        0.54130
C         -2.43010      -17.28950        0.20050
C         -1.37710      -15.30140        1.29330
C         -1.36920      -13.94750        1.58280
C         -0.43380      -13.12220        2.34270
C          0.60700      -13.60470        3.09150
C          0.94430      -14.97200        3.18410
N          1.27830      -16.06400        3.30380
C          1.46650      -12.84680        3.91610
N          2.19970      -12.32470        4.62990
H          3.28670       11.70190       -4.54760
H          0.16430        9.44960       -4.60110
H         -2.23650        9.13700       -3.83870
H         -3.40600        8.22120       -5.97090
H         -3.50000        6.10650       -7.44040
H         -1.81930        5.60020       -7.64800
H         -2.20620        3.67450       -6.10360
H         -3.27910        3.61860       -7.50380
H         -3.90300        4.14560       -5.94020
H          4.59950        8.76360       -0.83860
H          5.99710        8.91400        1.32780
H          4.10750        8.46420        4.49460
H          5.76960        8.53620        3.88930
H          5.38490        6.46740        5.22510
H          5.73580        6.05680        3.54370
H          4.07290        5.99990        4.13770
H          1.55820        5.60460        1.20260
H          1.66760        3.10200       -1.32060
H          2.98210        4.60280       -2.76020
H          6.66120        7.14750       -0.61990
H          7.21240        5.55670       -1.23380
H          7.40570        7.01850       -2.22750
H          5.50170        5.56870        0.55640
H          4.17060        4.12070        1.99360
H          1.16880        2.44360        3.78970
H          2.17160        1.06120        5.53010
H          2.42780       -1.19540        6.32050
H          3.23210        0.05560        7.32390
H          3.75170       -1.63830        7.42280
H          5.33540       -0.00620        2.85570
H          4.31940        1.39690        1.10020
H         -5.41080       -1.55630        0.25870
H         -6.83730       -2.91200        1.73510
H         -5.87160       -2.80770        6.54600
H         -6.45870       -4.48350        6.58390
H         -4.87440       -4.13240        5.85850
H         -4.30530       -1.95760        5.04790
H         -2.91420       -0.59300        3.59430
H         -2.20360        0.11790       -1.42890
H         -3.07980        1.60840       -3.18950
H         -4.14290        4.95810       -1.96660
H         -3.12700        4.23400       -3.23910
H         -4.34950        5.45780       -3.66290
H         -6.44380        2.53440       -0.73580
H         -5.56380        1.06280        1.04040
H          0.96840       -2.67690        2.62560
H          1.57660       -3.57600        4.65100
H          4.12370       -3.47910        5.16220
H          6.34790       -4.56930        4.39280
H          6.26610       -5.55420        2.92260
H          7.19550       -6.88130        4.79900
H          5.64130       -7.54730        4.28530
H          5.74160       -6.57630        5.75570
H         -4.48240       -4.82050        2.38620
H         -6.62900       -5.68610        1.23430
H         -6.25440       -8.98220       -0.50180
H         -7.42330       -7.67100       -0.26950
H         -6.98910       -8.06610       -2.69040
H         -5.26550       -7.76890       -2.43840
H         -6.42790       -6.45810       -2.21870
H         -2.28280       -8.96880        1.80370
H          0.89840      -10.93150        2.98750
H         -4.23990      -12.99880        0.01930
H         -4.25480      -15.43230       -0.48720
H         -1.98650      -17.43840       -0.78460
H         -1.84950      -17.85990        0.92070
H         -3.44560      -17.67760        0.17150
H         -0.58800      -15.95280        1.63230
