
  xtb     02042201523D
 energy: -361.790608131086 gnorm: 0.000672140566 xtb: 6.4.1 (unknown)
196215  0     0  0            999 V2000
   -3.2576   -8.4003    6.8249 C   0  0  0  0  0  0  0  0  0  0  0  0
   -2.5841   -9.5903    6.9050 C   0  0  0  0  0  0  0  0  0  0  0  0
   -1.2785   -9.9243    6.3062 C   0  0  0  0  0  0  0  0  0  0  0  0
   -0.4445   -9.1815    5.8372 O   0  0  0  0  0  0  0  0  0  0  0  0
   -1.2134  -11.4065    6.3124 C   0  0  0  0  0  0  0  0  0  0  0  0
   -0.2496  -12.2244    5.7496 C   0  0  0  0  0  0  0  0  0  0  0  0
    1.1689  -11.5830    5.0532 Cl  0  0  0  0  0  0  0  0  0  0  0  0
   -0.4677  -13.6093    5.7563 C   0  0  0  0  0  0  0  0  0  0  0  0
    0.7102  -14.6621    5.1011 Cl  0  0  0  0  0  0  0  0  0  0  0  0
   -1.6616  -14.1258    6.2564 C   0  0  0  0  0  0  0  0  0  0  0  0
   -1.9498  -15.8091    6.1615 Cl  0  0  0  0  0  0  0  0  0  0  0  0
   -2.6384  -13.2900    6.8225 C   0  0  0  0  0  0  0  0  0  0  0  0
   -4.1480  -13.9781    7.2578 Cl  0  0  0  0  0  0  0  0  0  0  0  0
   -2.3769  -11.9289    6.9118 C   0  0  0  0  0  0  0  0  0  0  0  0
   -3.1411  -10.8128    7.4606 C   0  0  0  0  0  0  0  0  0  0  0  0
   -4.0476  -10.8544    8.4859 C   0  0  0  0  0  0  0  0  0  0  0  0
   -4.6886   -9.7087    9.0114 C   0  0  0  0  0  0  0  0  0  0  0  0
   -5.2472   -8.8308    9.4957 N   0  0  0  0  0  0  0  0  0  0  0  0
   -4.3468  -11.9750    9.2908 C   0  0  0  0  0  0  0  0  0  0  0  0
   -4.5931  -12.7910   10.0589 N   0  0  0  0  0  0  0  0  0  0  0  0
   -2.8016   -7.1447    6.3780 C   0  0  0  0  0  0  0  0  0  0  0  0
   -1.5311   -6.6266    6.2628 C   0  0  0  0  0  0  0  0  0  0  0  0
   -1.4920   -5.3159    5.7603 C   0  0  0  0  0  0  0  0  0  0  0  0
   -0.3435   -4.5409    5.4572 C   0  0  0  0  0  0  0  0  0  0  0  0
    0.9832   -5.1080    5.4465 C   0  0  0  0  0  0  0  0  0  0  0  0
    1.3595   -6.3844    5.1132 C   0  0  0  0  0  0  0  0  0  0  0  0
    2.7542   -6.5661    5.0677 C   0  0  0  0  0  0  0  0  0  0  0  0
    3.4638   -5.4416    5.3650 C   0  0  0  0  0  0  0  0  0  0  0  0
    4.9370   -5.2134    5.4038 C   0  0  0  0  0  0  0  0  0  0  0  0
    5.7474   -6.4320    4.9798 C   0  0  0  0  0  0  0  0  0  0  0  0
    2.3986   -4.1197    5.7192 S   0  0  0  0  0  0  0  0  0  0  0  0
   -0.5904   -3.2351    5.0485 C   0  0  0  0  0  0  0  0  0  0  0  0
   -1.8869   -2.7163    4.7978 C   0  0  0  0  0  0  0  0  0  0  0  0
   -3.0271   -3.5208    5.0088 C   0  0  0  0  0  0  0  0  0  0  0  0
   -4.3605   -3.0876    4.6440 C   0  0  0  0  0  0  0  0  0  0  0  0
   -5.5379   -3.3146    5.3000 C   0  0  0  0  0  0  0  0  0  0  0  0
   -6.6627   -2.8065    4.6210 C   0  0  0  0  0  0  0  0  0  0  0  0
   -6.3585   -2.2031    3.4396 C   0  0  0  0  0  0  0  0  0  0  0  0
   -7.2789   -1.5988    2.4364 C   0  0  0  0  0  0  0  0  0  0  0  0
   -7.4942   -2.5390    1.2486 C   0  0  0  0  0  0  0  0  0  0  0  0
   -4.6534   -2.2447    3.1438 S   0  0  0  0  0  0  0  0  0  0  0  0
   -2.7934   -4.7875    5.5317 C   0  0  0  0  0  0  0  0  0  0  0  0
   -4.0187   -5.9581    5.9155 S   0  0  0  0  0  0  0  0  0  0  0  0
   -1.8370   -1.4041    4.2783 C   0  0  0  0  0  0  0  0  0  0  0  0
   -0.5647   -0.9320    4.1029 C   0  0  0  0  0  0  0  0  0  0  0  0
    0.6392   -2.0741    4.6512 S   0  0  0  0  0  0  0  0  0  0  0  0
   -0.1575    0.1987    3.3484 C   0  0  0  0  0  0  0  0  0  0  0  0
    1.1518    0.5775    3.0735 C   0  0  0  0  0  0  0  0  0  0  0  0
    2.2401    0.1620    3.8438 N   0  0  0  0  0  0  0  0  0  0  0  0
    2.2332    0.5253    5.1985 C   0  0  0  0  0  0  0  0  0  0  0  0
    1.6646    1.7379    5.5805 C   0  0  0  0  0  0  0  0  0  0  0  0
    1.6155    2.1150    6.9087 C   0  0  0  0  0  0  0  0  0  0  0  0
    2.1399    1.2822    7.8865 C   0  0  0  0  0  0  0  0  0  0  0  0
    2.1451    1.6509    9.6126 S   0  0  0  0  0  0  0  0  0  0  0  0
    1.2931    3.2502    9.7239 C   0  0  0  0  0  0  0  0  0  0  0  0
    2.7092    0.0665    7.5103 C   0  0  0  0  0  0  0  0  0  0  0  0
    2.7541   -0.3113    6.1882 C   0  0  0  0  0  0  0  0  0  0  0  0
    3.2181   -0.6730    3.3008 C   0  0  0  0  0  0  0  0  0  0  0  0
    2.8949   -1.5545    2.2720 C   0  0  0  0  0  0  0  0  0  0  0  0
    3.8172   -2.4735    1.8132 C   0  0  0  0  0  0  0  0  0  0  0  0
    5.0829   -2.5284    2.3790 C   0  0  0  0  0  0  0  0  0  0  0  0
    6.3054   -3.7287    1.9406 S   0  0  0  0  0  0  0  0  0  0  0  0
    5.3386   -5.0181    1.1031 C   0  0  0  0  0  0  0  0  0  0  0  0
    5.4370   -1.5952    3.3511 C   0  0  0  0  0  0  0  0  0  0  0  0
    4.5212   -0.6710    3.8000 C   0  0  0  0  0  0  0  0  0  0  0  0
    1.2053    1.4564    1.9710 C   0  0  0  0  0  0  0  0  0  0  0  0
    2.4787    2.1944    1.0602 S   0  0  0  0  0  0  0  0  0  0  0  0
    1.3027    2.8982   -0.0344 C   0  0  0  0  0  0  0  0  0  0  0  0
   -0.0110    2.6628    0.3626 C   0  0  0  0  0  0  0  0  0  0  0  0
   -1.1384    3.2340   -0.2088 N   0  0  0  0  0  0  0  0  0  0  0  0
   -2.2652    2.4358   -0.4392 C   0  0  0  0  0  0  0  0  0  0  0  0
   -3.5430    2.9822   -0.3670 C   0  0  0  0  0  0  0  0  0  0  0  0
   -4.6586    2.2000   -0.5936 C   0  0  0  0  0  0  0  0  0  0  0  0
   -4.5146    0.8507   -0.8894 C   0  0  0  0  0  0  0  0  0  0  0  0
   -5.8592   -0.2519   -1.1968 S   0  0  0  0  0  0  0  0  0  0  0  0
   -7.3313    0.8037   -1.0792 C   0  0  0  0  0  0  0  0  0  0  0  0
   -3.2371    0.2994   -0.9631 C   0  0  0  0  0  0  0  0  0  0  0  0
   -2.1255    1.0815   -0.7474 C   0  0  0  0  0  0  0  0  0  0  0  0
   -1.0439    4.5294   -0.7408 C   0  0  0  0  0  0  0  0  0  0  0  0
   -0.2695    5.4899   -0.0873 C   0  0  0  0  0  0  0  0  0  0  0  0
    0.0098    6.6895   -0.6976 C   0  0  0  0  0  0  0  0  0  0  0  0
   -0.4901    6.9701   -1.9693 C   0  0  0  0  0  0  0  0  0  0  0  0
    0.0655    8.4616   -2.7256 S   0  0  0  0  0  0  0  0  0  0  0  0
   -0.4953    8.3043   -4.4400 C   0  0  0  0  0  0  0  0  0  0  0  0
   -1.3609    6.0699   -2.5670 C   0  0  0  0  0  0  0  0  0  0  0  0
   -1.6310    4.8589   -1.9589 C   0  0  0  0  0  0  0  0  0  0  0  0
   -0.0480    1.8027    1.4800 C   0  0  0  0  0  0  0  0  0  0  0  0
   -1.3295    1.0426    2.3558 S   0  0  0  0  0  0  0  0  0  0  0  0
    1.6354    3.5230   -1.2746 C   0  0  0  0  0  0  0  0  0  0  0  0
    0.8711    3.3537   -2.3944 C   0  0  0  0  0  0  0  0  0  0  0  0
    1.2503    4.1569   -3.4854 C   0  0  0  0  0  0  0  0  0  0  0  0
    0.6194    4.2554   -4.7453 C   0  0  0  0  0  0  0  0  0  0  0  0
   -0.6659    3.6491   -5.0306 C   0  0  0  0  0  0  0  0  0  0  0  0
   -1.6870    4.2130   -5.7494 C   0  0  0  0  0  0  0  0  0  0  0  0
   -2.8642    3.4416   -5.7612 C   0  0  0  0  0  0  0  0  0  0  0  0
   -2.7600    2.2773   -5.0631 C   0  0  0  0  0  0  0  0  0  0  0  0
   -3.8087    1.2540   -4.7923 C   0  0  0  0  0  0  0  0  0  0  0  0
   -3.3124   -0.1714   -5.0195 C   0  0  0  0  0  0  0  0  0  0  0  0
   -1.1746    2.1102   -4.3879 S   0  0  0  0  0  0  0  0  0  0  0  0
    1.2526    5.0780   -5.6684 C   0  0  0  0  0  0  0  0  0  0  0  0
    2.3955    5.8689   -5.3714 C   0  0  0  0  0  0  0  0  0  0  0  0
    2.9567    5.8436   -4.0721 C   0  0  0  0  0  0  0  0  0  0  0  0
    4.0655    6.6811   -3.6749 C   0  0  0  0  0  0  0  0  0  0  0  0
    4.2226    7.3318   -2.4810 C   0  0  0  0  0  0  0  0  0  0  0  0
    5.4309    8.0465   -2.3911 C   0  0  0  0  0  0  0  0  0  0  0  0
    6.2148    7.9331   -3.4992 C   0  0  0  0  0  0  0  0  0  0  0  0
    7.5358    8.5630   -3.7730 C   0  0  0  0  0  0  0  0  0  0  0  0
    7.4132    9.6829   -4.8088 C   0  0  0  0  0  0  0  0  0  0  0  0
    5.4500    6.9466   -4.6989 S   0  0  0  0  0  0  0  0  0  0  0  0
    2.3733    4.9611   -3.1710 C   0  0  0  0  0  0  0  0  0  0  0  0
    2.9200    4.6765   -1.5346 S   0  0  0  0  0  0  0  0  0  0  0  0
    2.8060    6.6263   -6.4848 C   0  0  0  0  0  0  0  0  0  0  0  0
    2.0508    6.4258   -7.6171 C   0  0  0  0  0  0  0  0  0  0  0  0
    0.7745    5.2557   -7.3326 S   0  0  0  0  0  0  0  0  0  0  0  0
    2.3157    6.9813   -8.8890 C   0  0  0  0  0  0  0  0  0  0  0  0
    1.5880    6.8655  -10.0329 C   0  0  0  0  0  0  0  0  0  0  0  0
    2.2267    7.0823  -11.3542 C   0  0  0  0  0  0  0  0  0  0  0  0
    3.2673    7.6506  -11.5757 O   0  0  0  0  0  0  0  0  0  0  0  0
    1.3441    6.3748  -12.3178 C   0  0  0  0  0  0  0  0  0  0  0  0
    1.5594    6.1031  -13.6580 C   0  0  0  0  0  0  0  0  0  0  0  0
    2.9169    6.7246  -14.4833 Cl  0  0  0  0  0  0  0  0  0  0  0  0
    0.6329    5.2897  -14.3280 C   0  0  0  0  0  0  0  0  0  0  0  0
    0.8493    4.9450  -15.9886 Cl  0  0  0  0  0  0  0  0  0  0  0  0
   -0.4429    4.7317  -13.6381 C   0  0  0  0  0  0  0  0  0  0  0  0
   -1.5085    3.6744  -14.4563 Cl  0  0  0  0  0  0  0  0  0  0  0  0
   -0.6594    5.0139  -12.2801 C   0  0  0  0  0  0  0  0  0  0  0  0
   -1.9096    4.1883  -11.4461 Cl  0  0  0  0  0  0  0  0  0  0  0  0
    0.2102    5.8821  -11.6379 C   0  0  0  0  0  0  0  0  0  0  0  0
    0.2325    6.4123  -10.2770 C   0  0  0  0  0  0  0  0  0  0  0  0
   -0.8471    6.7742   -9.5187 C   0  0  0  0  0  0  0  0  0  0  0  0
   -0.7134    7.5579   -8.3502 C   0  0  0  0  0  0  0  0  0  0  0  0
   -0.6732    8.2353   -7.4245 N   0  0  0  0  0  0  0  0  0  0  0  0
   -2.2074    6.6109   -9.8537 C   0  0  0  0  0  0  0  0  0  0  0  0
   -3.3379    6.5771  -10.0477 N   0  0  0  0  0  0  0  0  0  0  0  0
   -4.3130   -8.4229    7.0719 H   0  0  0  0  0  0  0  0  0  0  0  0
   -0.6590   -7.1627    6.5810 H   0  0  0  0  0  0  0  0  0  0  0  0
    0.6673   -7.1662    4.8606 H   0  0  0  0  0  0  0  0  0  0  0  0
    3.2051   -7.5075    4.8126 H   0  0  0  0  0  0  0  0  0  0  0  0
    5.2238   -4.9187    6.4183 H   0  0  0  0  0  0  0  0  0  0  0  0
    5.1784   -4.3688    4.7505 H   0  0  0  0  0  0  0  0  0  0  0  0
    5.4829   -6.7368    3.9703 H   0  0  0  0  0  0  0  0  0  0  0  0
    5.5712   -7.2664    5.6542 H   0  0  0  0  0  0  0  0  0  0  0  0
    6.8070   -6.1910    4.9968 H   0  0  0  0  0  0  0  0  0  0  0  0
   -5.5958   -3.7972    6.2590 H   0  0  0  0  0  0  0  0  0  0  0  0
   -7.6659   -2.8846    5.0009 H   0  0  0  0  0  0  0  0  0  0  0  0
   -8.2360   -1.3881    2.9188 H   0  0  0  0  0  0  0  0  0  0  0  0
   -6.8582   -0.6578    2.0741 H   0  0  0  0  0  0  0  0  0  0  0  0
   -7.8874   -3.4941    1.5890 H   0  0  0  0  0  0  0  0  0  0  0  0
   -8.1988   -2.1032    0.5451 H   0  0  0  0  0  0  0  0  0  0  0  0
   -6.5536   -2.7121    0.7313 H   0  0  0  0  0  0  0  0  0  0  0  0
   -2.7023   -0.8249    4.0133 H   0  0  0  0  0  0  0  0  0  0  0  0
    1.2589    2.4002    4.8297 H   0  0  0  0  0  0  0  0  0  0  0  0
    1.1705    3.0638    7.1613 H   0  0  0  0  0  0  0  0  0  0  0  0
    1.2618    3.4902   10.7821 H   0  0  0  0  0  0  0  0  0  0  0  0
    0.2825    3.1602    9.3363 H   0  0  0  0  0  0  0  0  0  0  0  0
    1.8563    4.0108    9.1909 H   0  0  0  0  0  0  0  0  0  0  0  0
    3.1064   -0.5848    8.2734 H   0  0  0  0  0  0  0  0  0  0  0  0
    3.1784   -1.2656    5.9186 H   0  0  0  0  0  0  0  0  0  0  0  0
    1.9010   -1.5418    1.8491 H   0  0  0  0  0  0  0  0  0  0  0  0
    3.5290   -3.1532    1.0274 H   0  0  0  0  0  0  0  0  0  0  0  0
    6.0057   -5.8690    1.0056 H   0  0  0  0  0  0  0  0  0  0  0  0
    4.4806   -5.2831    1.7141 H   0  0  0  0  0  0  0  0  0  0  0  0
    5.0310   -4.6808    0.1174 H   0  0  0  0  0  0  0  0  0  0  0  0
    6.4376   -1.6113    3.7554 H   0  0  0  0  0  0  0  0  0  0  0  0
    4.8049    0.0461    4.5547 H   0  0  0  0  0  0  0  0  0  0  0  0
   -3.6606    4.0288   -0.1286 H   0  0  0  0  0  0  0  0  0  0  0  0
   -5.6332    2.6561   -0.5279 H   0  0  0  0  0  0  0  0  0  0  0  0
   -7.4238    1.2074   -0.0751 H   0  0  0  0  0  0  0  0  0  0  0  0
   -8.1740    0.1538   -1.2933 H   0  0  0  0  0  0  0  0  0  0  0  0
   -7.2820    1.5959   -1.8204 H   0  0  0  0  0  0  0  0  0  0  0  0
   -3.1304   -0.7476   -1.2014 H   0  0  0  0  0  0  0  0  0  0  0  0
   -1.1395    0.6481   -0.8276 H   0  0  0  0  0  0  0  0  0  0  0  0
    0.1457    5.2704    0.8849 H   0  0  0  0  0  0  0  0  0  0  0  0
    0.6376    7.4183   -0.2085 H   0  0  0  0  0  0  0  0  0  0  0  0
   -0.0374    9.1225   -4.9850 H   0  0  0  0  0  0  0  0  0  0  0  0
   -1.5759    8.3913   -4.4965 H   0  0  0  0  0  0  0  0  0  0  0  0
   -0.1552    7.3579   -4.8486 H   0  0  0  0  0  0  0  0  0  0  0  0
   -1.8105    6.2807   -3.5235 H   0  0  0  0  0  0  0  0  0  0  0  0
   -2.2745    4.1485   -2.4559 H   0  0  0  0  0  0  0  0  0  0  0  0
    0.0729    2.6388   -2.4252 H   0  0  0  0  0  0  0  0  0  0  0  0
   -1.6209    5.1785   -6.2192 H   0  0  0  0  0  0  0  0  0  0  0  0
   -3.7631    3.7506   -6.2645 H   0  0  0  0  0  0  0  0  0  0  0  0
   -4.6680    1.4601   -5.4343 H   0  0  0  0  0  0  0  0  0  0  0  0
   -4.1355    1.3492   -3.7507 H   0  0  0  0  0  0  0  0  0  0  0  0
   -2.4689   -0.3837   -4.3661 H   0  0  0  0  0  0  0  0  0  0  0  0
   -4.1051   -0.8825   -4.8021 H   0  0  0  0  0  0  0  0  0  0  0  0
   -2.9952   -0.3048   -6.0512 H   0  0  0  0  0  0  0  0  0  0  0  0
    3.4716    7.3358   -1.7121 H   0  0  0  0  0  0  0  0  0  0  0  0
    5.7132    8.6238   -1.5289 H   0  0  0  0  0  0  0  0  0  0  0  0
    8.2345    7.8087   -4.1437 H   0  0  0  0  0  0  0  0  0  0  0  0
    7.9312    8.9666   -2.8387 H   0  0  0  0  0  0  0  0  0  0  0  0
    8.3830   10.1413   -4.9836 H   0  0  0  0  0  0  0  0  0  0  0  0
    6.7239   10.4482   -4.4591 H   0  0  0  0  0  0  0  0  0  0  0  0
    7.0414    9.2864   -5.7510 H   0  0  0  0  0  0  0  0  0  0  0  0
    3.6300    7.3157   -6.4691 H   0  0  0  0  0  0  0  0  0  0  0  0
    3.2811    7.4652   -8.9946 H   0  0  0  0  0  0  0  0  0  0  0  0
  1  2  2  0  0  0  0
  2  3  1  0  0  0  0
  3  4  2  0  0  0  0
  3  5  1  0  0  0  0
  5  6  2  0  0  0  0
  6  7  1  0  0  0  0
  6  8  1  0  0  0  0
  8  9  1  0  0  0  0
  8 10  2  0  0  0  0
 10 11  1  0  0  0  0
 10 12  1  0  0  0  0
 12 13  1  0  0  0  0
 12 14  2  0  0  0  0
 14 15  1  0  0  0  0
 15 16  2  0  0  0  0
 16 17  1  0  0  0  0
 17 18  3  0  0  0  0
 16 19  1  0  0  0  0
 19 20  3  0  0  0  0
  1 21  1  0  0  0  0
 21 22  2  0  0  0  0
 22 23  1  0  0  0  0
 23 24  2  0  0  0  0
 24 25  1  0  0  0  0
 25 26  2  0  0  0  0
 26 27  1  0  0  0  0
 27 28  2  0  0  0  0
 28 29  1  0  0  0  0
 29 30  1  0  0  0  0
 28 31  1  0  0  0  0
 24 32  1  0  0  0  0
 32 33  2  0  0  0  0
 33 34  1  0  0  0  0
 34 35  1  0  0  0  0
 35 36  2  0  0  0  0
 36 37  1  0  0  0  0
 37 38  2  0  0  0  0
 38 39  1  0  0  0  0
 39 40  1  0  0  0  0
 38 41  1  0  0  0  0
 34 42  2  0  0  0  0
 42 43  1  0  0  0  0
 33 44  1  0  0  0  0
 44 45  2  0  0  0  0
 45 46  1  0  0  0  0
 45 47  1  0  0  0  0
 47 48  2  0  0  0  0
 48 49  1  0  0  0  0
 49 50  1  0  0  0  0
 50 51  2  0  0  0  0
 51 52  1  0  0  0  0
 52 53  2  0  0  0  0
 53 54  1  0  0  0  0
 54 55  1  0  0  0  0
 53 56  1  0  0  0  0
 56 57  2  0  0  0  0
 49 58  1  0  0  0  0
 58 59  2  0  0  0  0
 59 60  1  0  0  0  0
 60 61  2  0  0  0  0
 61 62  1  0  0  0  0
 62 63  1  0  0  0  0
 61 64  1  0  0  0  0
 64 65  2  0  0  0  0
 48 66  1  0  0  0  0
 66 67  1  0  0  0  0
 67 68  1  0  0  0  0
 68 69  2  0  0  0  0
 69 70  1  0  0  0  0
 70 71  1  0  0  0  0
 71 72  2  0  0  0  0
 72 73  1  0  0  0  0
 73 74  2  0  0  0  0
 74 75  1  0  0  0  0
 75 76  1  0  0  0  0
 74 77  1  0  0  0  0
 77 78  2  0  0  0  0
 70 79  1  0  0  0  0
 79 80  2  0  0  0  0
 80 81  1  0  0  0  0
 81 82  2  0  0  0  0
 82 83  1  0  0  0  0
 83 84  1  0  0  0  0
 82 85  1  0  0  0  0
 85 86  2  0  0  0  0
 69 87  1  0  0  0  0
 87 88  1  0  0  0  0
 68 89  1  0  0  0  0
 89 90  2  0  0  0  0
 90 91  1  0  0  0  0
 91 92  2  0  0  0  0
 92 93  1  0  0  0  0
 93 94  2  0  0  0  0
 94 95  1  0  0  0  0
 95 96  2  0  0  0  0
 96 97  1  0  0  0  0
 97 98  1  0  0  0  0
 96 99  1  0  0  0  0
 92100  1  0  0  0  0
100101  2  0  0  0  0
101102  1  0  0  0  0
102103  1  0  0  0  0
103104  2  0  0  0  0
104105  1  0  0  0  0
105106  2  0  0  0  0
106107  1  0  0  0  0
107108  1  0  0  0  0
106109  1  0  0  0  0
102110  2  0  0  0  0
110111  1  0  0  0  0
101112  1  0  0  0  0
112113  2  0  0  0  0
113114  1  0  0  0  0
113115  1  0  0  0  0
115116  2  0  0  0  0
116117  1  0  0  0  0
117118  2  0  0  0  0
117119  1  0  0  0  0
119120  2  0  0  0  0
120121  1  0  0  0  0
120122  1  0  0  0  0
122123  1  0  0  0  0
122124  2  0  0  0  0
124125  1  0  0  0  0
124126  1  0  0  0  0
126127  1  0  0  0  0
126128  2  0  0  0  0
128129  1  0  0  0  0
129130  2  0  0  0  0
130131  1  0  0  0  0
131132  3  0  0  0  0
130133  1  0  0  0  0
133134  3  0  0  0  0
 15  2  1  0  0  0  0
 43 21  1  0  0  0  0
 88 47  1  0  0  0  0
111 89  1  0  0  0  0
129116  1  0  0  0  0
 14  5  1  0  0  0  0
 42 23  1  0  0  0  0
 57 50  1  0  0  0  0
 65 58  1  0  0  0  0
 87 66  2  0  0  0  0
110 91  1  0  0  0  0
128119  1  0  0  0  0
 31 25  1  0  0  0  0
 46 32  1  0  0  0  0
 78 71  1  0  0  0  0
 86 79  1  0  0  0  0
 99 93  1  0  0  0  0
114100  1  0  0  0  0
 41 35  1  0  0  0  0
109103  1  0  0  0  0
  1135  1  0  0  0  0
 22136  1  0  0  0  0
 26137  1  0  0  0  0
 27138  1  0  0  0  0
 29139  1  0  0  0  0
 29140  1  0  0  0  0
 30141  1  0  0  0  0
 30142  1  0  0  0  0
 30143  1  0  0  0  0
 36144  1  0  0  0  0
 37145  1  0  0  0  0
 39146  1  0  0  0  0
 39147  1  0  0  0  0
 40148  1  0  0  0  0
 40149  1  0  0  0  0
 40150  1  0  0  0  0
 44151  1  0  0  0  0
 51152  1  0  0  0  0
 52153  1  0  0  0  0
 55154  1  0  0  0  0
 55155  1  0  0  0  0
 55156  1  0  0  0  0
 56157  1  0  0  0  0
 57158  1  0  0  0  0
 59159  1  0  0  0  0
 60160  1  0  0  0  0
 63161  1  0  0  0  0
 63162  1  0  0  0  0
 63163  1  0  0  0  0
 64164  1  0  0  0  0
 65165  1  0  0  0  0
 72166  1  0  0  0  0
 73167  1  0  0  0  0
 76168  1  0  0  0  0
 76169  1  0  0  0  0
 76170  1  0  0  0  0
 77171  1  0  0  0  0
 78172  1  0  0  0  0
 80173  1  0  0  0  0
 81174  1  0  0  0  0
 84175  1  0  0  0  0
 84176  1  0  0  0  0
 84177  1  0  0  0  0
 85178  1  0  0  0  0
 86179  1  0  0  0  0
 90180  1  0  0  0  0
 94181  1  0  0  0  0
 95182  1  0  0  0  0
 97183  1  0  0  0  0
 97184  1  0  0  0  0
 98185  1  0  0  0  0
 98186  1  0  0  0  0
 98187  1  0  0  0  0
104188  1  0  0  0  0
105189  1  0  0  0  0
107190  1  0  0  0  0
107191  1  0  0  0  0
108192  1  0  0  0  0
108193  1  0  0  0  0
108194  1  0  0  0  0
112195  1  0  0  0  0
115196  1  0  0  0  0
M  END
