
  xtb     02142222503D
 energy: -362.686810722559 gnorm: 0.000594276980 xtb: 6.4.1 (unknown)
196213  0     0  0            999 V2000
   -5.8168   -0.6868   -6.1371 C   0  0  0  0  0  0  0  0  0  0  0  0
   -5.4713   -1.1652   -7.3938 C   0  0  0  0  0  0  0  0  0  0  0  0
   -4.8087   -2.4427   -7.6278 C   0  0  0  0  0  0  0  0  0  0  0  0
   -4.5108   -3.2849   -6.8011 O   0  0  0  0  0  0  0  0  0  0  0  0
   -4.7084   -2.5619   -9.1061 C   0  0  0  0  0  0  0  0  0  0  0  0
   -4.1476   -3.5762   -9.8551 C   0  0  0  0  0  0  0  0  0  0  0  0
   -3.3458   -4.8865   -9.1105 Cl  0  0  0  0  0  0  0  0  0  0  0  0
   -4.2265   -3.4982  -11.2522 C   0  0  0  0  0  0  0  0  0  0  0  0
   -3.4916   -4.7029  -12.2187 Cl  0  0  0  0  0  0  0  0  0  0  0  0
   -4.9261   -2.4549  -11.8513 C   0  0  0  0  0  0  0  0  0  0  0  0
   -5.0837   -2.4198  -13.5547 Cl  0  0  0  0  0  0  0  0  0  0  0  0
   -5.5088   -1.4334  -11.0830 C   0  0  0  0  0  0  0  0  0  0  0  0
   -6.4816   -0.2706  -11.8833 Cl  0  0  0  0  0  0  0  0  0  0  0  0
   -5.3394   -1.4536   -9.7068 C   0  0  0  0  0  0  0  0  0  0  0  0
   -5.7236   -0.5209   -8.6466 C   0  0  0  0  0  0  0  0  0  0  0  0
   -5.9769    0.8294   -8.7558 C   0  0  0  0  0  0  0  0  0  0  0  0
   -6.1624    1.6657   -7.6346 C   0  0  0  0  0  0  0  0  0  0  0  0
   -6.2812    2.4303   -6.7836 N   0  0  0  0  0  0  0  0  0  0  0  0
   -5.8417    1.6438   -9.8933 C   0  0  0  0  0  0  0  0  0  0  0  0
   -5.6434    2.4444  -10.6949 N   0  0  0  0  0  0  0  0  0  0  0  0
   -5.1544   -0.9253   -4.9449 C   0  0  0  0  0  0  0  0  0  0  0  0
   -3.8631   -1.4295   -4.6446 C   0  0  0  0  0  0  0  0  0  0  0  0
   -2.8492   -1.7195   -5.5063 N   0  0  0  0  0  0  0  0  0  0  0  0
   -2.6338   -1.0899   -6.7316 C   0  0  0  0  0  0  0  0  0  0  0  0
   -3.0096    0.2319   -6.9635 C   0  0  0  0  0  0  0  0  0  0  0  0
   -2.7987    0.8225   -8.1944 C   0  0  0  0  0  0  0  0  0  0  0  0
   -2.2124    0.0982   -9.2269 C   0  0  0  0  0  0  0  0  0  0  0  0
   -1.9593    0.7028  -10.8560 S   0  0  0  0  0  0  0  0  0  0  0  0
   -2.3070    2.4814  -10.7500 C   0  0  0  0  0  0  0  0  0  0  0  0
   -1.7991   -1.2138   -8.9862 C   0  0  0  0  0  0  0  0  0  0  0  0
   -2.0001   -1.7979   -7.7592 C   0  0  0  0  0  0  0  0  0  0  0  0
   -1.8621   -2.6261   -5.0533 C   0  0  0  0  0  0  0  0  0  0  0  0
   -2.2383   -3.8927   -4.6232 C   0  0  0  0  0  0  0  0  0  0  0  0
   -1.2902   -4.7764   -4.1465 C   0  0  0  0  0  0  0  0  0  0  0  0
    0.0451   -4.3960   -4.0905 C   0  0  0  0  0  0  0  0  0  0  0  0
    1.3388   -5.4176   -3.4716 S   0  0  0  0  0  0  0  0  0  0  0  0
    0.4975   -6.9506   -2.9832 C   0  0  0  0  0  0  0  0  0  0  0  0
    0.4225   -3.1307   -4.5426 C   0  0  0  0  0  0  0  0  0  0  0  0
   -0.5204   -2.2518   -5.0251 C   0  0  0  0  0  0  0  0  0  0  0  0
   -3.6694   -1.4632   -3.2443 C   0  0  0  0  0  0  0  0  0  0  0  0
   -2.3328   -1.9095   -2.2457 S   0  0  0  0  0  0  0  0  0  0  0  0
   -3.0911   -1.1616   -0.8485 C   0  0  0  0  0  0  0  0  0  0  0  0
   -4.3693   -0.6993   -1.1214 C   0  0  0  0  0  0  0  0  0  0  0  0
   -5.2684   -0.1433   -0.2348 N   0  0  0  0  0  0  0  0  0  0  0  0
   -5.2913   -0.4825    1.1161 C   0  0  0  0  0  0  0  0  0  0  0  0
   -5.7112    0.4407    2.0710 C   0  0  0  0  0  0  0  0  0  0  0  0
   -5.7149    0.1231    3.4150 C   0  0  0  0  0  0  0  0  0  0  0  0
   -5.2962   -1.1312    3.8356 C   0  0  0  0  0  0  0  0  0  0  0  0
   -5.2276   -1.6484    5.5218 S   0  0  0  0  0  0  0  0  0  0  0  0
   -5.7920   -0.1951    6.4514 C   0  0  0  0  0  0  0  0  0  0  0  0
   -4.9020   -2.0694    2.8830 C   0  0  0  0  0  0  0  0  0  0  0  0
   -4.9059   -1.7549    1.5439 C   0  0  0  0  0  0  0  0  0  0  0  0
   -6.0652    0.9026   -0.7392 C   0  0  0  0  0  0  0  0  0  0  0  0
   -5.4779    1.8782   -1.5405 C   0  0  0  0  0  0  0  0  0  0  0  0
   -6.2491    2.8361   -2.1661 C   0  0  0  0  0  0  0  0  0  0  0  0
   -7.6267    2.8365   -1.9877 C   0  0  0  0  0  0  0  0  0  0  0  0
   -8.7037    3.9725   -2.8000 S   0  0  0  0  0  0  0  0  0  0  0  0
   -7.7284    4.5201   -4.2325 C   0  0  0  0  0  0  0  0  0  0  0  0
   -8.2083    1.9068   -1.1271 C   0  0  0  0  0  0  0  0  0  0  0  0
   -7.4386    0.9446   -0.5102 C   0  0  0  0  0  0  0  0  0  0  0  0
   -4.6810   -0.8832   -2.4940 C   0  0  0  0  0  0  0  0  0  0  0  0
   -6.0098   -0.4053   -3.4816 S   0  0  0  0  0  0  0  0  0  0  0  0
   -2.2358   -0.9933    0.2987 C   0  0  0  0  0  0  0  0  0  0  0  0
   -1.2743   -1.9498    0.5858 C   0  0  0  0  0  0  0  0  0  0  0  0
   -0.2139   -1.6948    1.4445 C   0  0  0  0  0  0  0  0  0  0  0  0
   -0.0758   -0.4640    2.0567 C   0  0  0  0  0  0  0  0  0  0  0  0
   -1.1503    0.4621    1.9544 C   0  0  0  0  0  0  0  0  0  0  0  0
   -1.1580    1.5562    2.7358 N   0  0  0  0  0  0  0  0  0  0  0  0
   -2.0954    2.4433    2.5333 C   0  0  0  0  0  0  0  0  0  0  0  0
   -3.0337    2.2922    1.4990 C   0  0  0  0  0  0  0  0  0  0  0  0
   -3.1033    1.1972    0.7895 N   0  0  0  0  0  0  0  0  0  0  0  0
   -2.2056    0.2269    1.0302 C   0  0  0  0  0  0  0  0  0  0  0  0
    1.1677   -0.0494    2.6573 C   0  0  0  0  0  0  0  0  0  0  0  0
    1.8100    1.1602    2.4474 C   0  0  0  0  0  0  0  0  0  0  0  0
    1.3815    2.2085    1.6454 N   0  0  0  0  0  0  0  0  0  0  0  0
    0.6966    2.0134    0.4473 C   0  0  0  0  0  0  0  0  0  0  0  0
    0.9043    0.8768   -0.3393 C   0  0  0  0  0  0  0  0  0  0  0  0
    0.1722    0.6765   -1.4896 C   0  0  0  0  0  0  0  0  0  0  0  0
   -0.7721    1.6135   -1.8998 C   0  0  0  0  0  0  0  0  0  0  0  0
   -1.6958    1.2597   -3.3681 S   0  0  0  0  0  0  0  0  0  0  0  0
   -2.3057    2.8928   -3.8843 C   0  0  0  0  0  0  0  0  0  0  0  0
   -0.9594    2.7623   -1.1452 C   0  0  0  0  0  0  0  0  0  0  0  0
   -0.2317    2.9587    0.0107 C   0  0  0  0  0  0  0  0  0  0  0  0
    1.6431    3.5084    2.1153 C   0  0  0  0  0  0  0  0  0  0  0  0
    1.4418    3.8152    3.4609 C   0  0  0  0  0  0  0  0  0  0  0  0
    1.7322    5.0746    3.9343 C   0  0  0  0  0  0  0  0  0  0  0  0
    2.2218    6.0574    3.0754 C   0  0  0  0  0  0  0  0  0  0  0  0
    2.5524    7.6333    3.7968 S   0  0  0  0  0  0  0  0  0  0  0  0
    3.3187    8.5814    2.4517 C   0  0  0  0  0  0  0  0  0  0  0  0
    2.4097    5.7585    1.7323 C   0  0  0  0  0  0  0  0  0  0  0  0
    2.1276    4.4917    1.2593 C   0  0  0  0  0  0  0  0  0  0  0  0
    3.0569    1.1861    3.1187 C   0  0  0  0  0  0  0  0  0  0  0  0
    4.3335    2.3394    3.2287 S   0  0  0  0  0  0  0  0  0  0  0  0
    5.3578    1.1695    4.0690 C   0  0  0  0  0  0  0  0  0  0  0  0
    4.6781   -0.0296    4.3339 C   0  0  0  0  0  0  0  0  0  0  0  0
    5.0655   -1.0438    5.1682 N   0  0  0  0  0  0  0  0  0  0  0  0
    4.1454   -1.6113    6.0619 C   0  0  0  0  0  0  0  0  0  0  0  0
    3.1176   -0.8483    6.6212 C   0  0  0  0  0  0  0  0  0  0  0  0
    2.2390   -1.4150    7.5143 C   0  0  0  0  0  0  0  0  0  0  0  0
    2.3678   -2.7527    7.8871 C   0  0  0  0  0  0  0  0  0  0  0  0
    1.1836   -3.3611    9.0407 S   0  0  0  0  0  0  0  0  0  0  0  0
    1.7261   -5.0609    9.3742 C   0  0  0  0  0  0  0  0  0  0  0  0
    3.4001   -3.5095    7.3492 C   0  0  0  0  0  0  0  0  0  0  0  0
    4.2783   -2.9424    6.4467 C   0  0  0  0  0  0  0  0  0  0  0  0
    6.4013   -1.5198    5.2398 C   0  0  0  0  0  0  0  0  0  0  0  0
    6.8769   -2.3804    4.2596 C   0  0  0  0  0  0  0  0  0  0  0  0
    8.1835   -2.8298    4.2999 C   0  0  0  0  0  0  0  0  0  0  0  0
    9.0232   -2.4188    5.3268 C   0  0  0  0  0  0  0  0  0  0  0  0
   10.7399   -2.8078    5.4070 S   0  0  0  0  0  0  0  0  0  0  0  0
   10.9727   -4.0568    4.1090 C   0  0  0  0  0  0  0  0  0  0  0  0
    8.5197   -1.6172    6.3518 C   0  0  0  0  0  0  0  0  0  0  0  0
    7.2129   -1.1797    6.3170 C   0  0  0  0  0  0  0  0  0  0  0  0
    3.3756    0.0103    3.7746 C   0  0  0  0  0  0  0  0  0  0  0  0
    2.1222   -1.1703    3.6043 S   0  0  0  0  0  0  0  0  0  0  0  0
    6.6474    1.6061    4.4385 C   0  0  0  0  0  0  0  0  0  0  0  0
    7.8052    0.9173    4.1747 C   0  0  0  0  0  0  0  0  0  0  0  0
    7.9038   -0.0223    3.0510 C   0  0  0  0  0  0  0  0  0  0  0  0
    7.0113   -0.4036    2.3245 O   0  0  0  0  0  0  0  0  0  0  0  0
    9.3557   -0.2874    2.9006 C   0  0  0  0  0  0  0  0  0  0  0  0
    9.9907   -1.0814    1.9651 C   0  0  0  0  0  0  0  0  0  0  0  0
    9.1005   -2.0080    0.8371 Cl  0  0  0  0  0  0  0  0  0  0  0  0
   11.3914   -1.1328    1.9732 C   0  0  0  0  0  0  0  0  0  0  0  0
   12.2173   -2.1467    0.8660 Cl  0  0  0  0  0  0  0  0  0  0  0  0
   12.1120   -0.3415    2.8630 C   0  0  0  0  0  0  0  0  0  0  0  0
   13.8206   -0.3629    2.8081 Cl  0  0  0  0  0  0  0  0  0  0  0  0
   11.4616    0.4765    3.8027 C   0  0  0  0  0  0  0  0  0  0  0  0
   12.4156    1.5329    4.7558 Cl  0  0  0  0  0  0  0  0  0  0  0  0
   10.0754    0.4510    3.8631 C   0  0  0  0  0  0  0  0  0  0  0  0
    9.1125    1.1008    4.7495 C   0  0  0  0  0  0  0  0  0  0  0  0
    9.3003    1.5682    6.0266 C   0  0  0  0  0  0  0  0  0  0  0  0
    8.2211    2.0526    6.7990 C   0  0  0  0  0  0  0  0  0  0  0  0
    7.3816    2.4364    7.4821 N   0  0  0  0  0  0  0  0  0  0  0  0
   10.4540    1.4690    6.8289 C   0  0  0  0  0  0  0  0  0  0  0  0
   11.2905    1.3697    7.6090 N   0  0  0  0  0  0  0  0  0  0  0  0
   -6.7013   -0.0666   -6.0569 H   0  0  0  0  0  0  0  0  0  0  0  0
   -3.4665    0.8044   -6.1707 H   0  0  0  0  0  0  0  0  0  0  0  0
   -3.1084    1.8453   -8.3433 H   0  0  0  0  0  0  0  0  0  0  0  0
   -1.7400    2.9153   -9.9322 H   0  0  0  0  0  0  0  0  0  0  0  0
   -3.3745    2.6529  -10.6397 H   0  0  0  0  0  0  0  0  0  0  0  0
   -1.9684    2.8954  -11.6947 H   0  0  0  0  0  0  0  0  0  0  0  0
   -1.3288   -1.7674   -9.7839 H   0  0  0  0  0  0  0  0  0  0  0  0
   -1.6921   -2.8173   -7.5869 H   0  0  0  0  0  0  0  0  0  0  0  0
   -3.2758   -4.1809   -4.6897 H   0  0  0  0  0  0  0  0  0  0  0  0
   -1.6058   -5.7557   -3.8264 H   0  0  0  0  0  0  0  0  0  0  0  0
    1.2759   -7.5971   -2.5899 H   0  0  0  0  0  0  0  0  0  0  0  0
   -0.2347   -6.7422   -2.2087 H   0  0  0  0  0  0  0  0  0  0  0  0
    0.0376   -7.4148   -3.8504 H   0  0  0  0  0  0  0  0  0  0  0  0
    1.4633   -2.8487   -4.5010 H   0  0  0  0  0  0  0  0  0  0  0  0
   -0.2334   -1.2674   -5.3624 H   0  0  0  0  0  0  0  0  0  0  0  0
   -6.0242    1.4252    1.7585 H   0  0  0  0  0  0  0  0  0  0  0  0
   -6.0394    0.8694    4.1223 H   0  0  0  0  0  0  0  0  0  0  0  0
   -5.7499   -0.4841    7.4969 H   0  0  0  0  0  0  0  0  0  0  0  0
   -6.8144    0.0483    6.1772 H   0  0  0  0  0  0  0  0  0  0  0  0
   -5.1232    0.6420    6.2733 H   0  0  0  0  0  0  0  0  0  0  0  0
   -4.5971   -3.0515    3.2107 H   0  0  0  0  0  0  0  0  0  0  0  0
   -4.6146   -2.5012    0.8210 H   0  0  0  0  0  0  0  0  0  0  0  0
   -4.4061    1.8604   -1.6715 H   0  0  0  0  0  0  0  0  0  0  0  0
   -5.7764    3.5718   -2.7973 H   0  0  0  0  0  0  0  0  0  0  0  0
   -8.4313    5.0282   -4.8853 H   0  0  0  0  0  0  0  0  0  0  0  0
   -6.9557    5.2170   -3.9203 H   0  0  0  0  0  0  0  0  0  0  0  0
   -7.3057    3.6603   -4.7436 H   0  0  0  0  0  0  0  0  0  0  0  0
   -9.2762    1.9318   -0.9749 H   0  0  0  0  0  0  0  0  0  0  0  0
   -7.8974    0.2038    0.1273 H   0  0  0  0  0  0  0  0  0  0  0  0
   -1.3101   -2.8943    0.0627 H   0  0  0  0  0  0  0  0  0  0  0  0
    0.5619   -2.4361    1.5694 H   0  0  0  0  0  0  0  0  0  0  0  0
   -2.1061    3.2992    3.1946 H   0  0  0  0  0  0  0  0  0  0  0  0
   -3.7524    3.0657    1.2632 H   0  0  0  0  0  0  0  0  0  0  0  0
    1.6485    0.1517   -0.0486 H   0  0  0  0  0  0  0  0  0  0  0  0
    0.3288   -0.2106   -2.0847 H   0  0  0  0  0  0  0  0  0  0  0  0
   -3.0990    3.2287   -3.2230 H   0  0  0  0  0  0  0  0  0  0  0  0
   -1.4811    3.5990   -3.9000 H   0  0  0  0  0  0  0  0  0  0  0  0
   -2.7003    2.7609   -4.8871 H   0  0  0  0  0  0  0  0  0  0  0  0
   -1.6835    3.5072   -1.4345 H   0  0  0  0  0  0  0  0  0  0  0  0
   -0.4013    3.8489    0.5985 H   0  0  0  0  0  0  0  0  0  0  0  0
    1.0458    3.0586    4.1211 H   0  0  0  0  0  0  0  0  0  0  0  0
    1.5803    5.3169    4.9749 H   0  0  0  0  0  0  0  0  0  0  0  0
    3.5980    9.5344    2.8900 H   0  0  0  0  0  0  0  0  0  0  0  0
    2.6034    8.7418    1.6502 H   0  0  0  0  0  0  0  0  0  0  0  0
    4.2050    8.0651    2.0952 H   0  0  0  0  0  0  0  0  0  0  0  0
    2.7840    6.4984    1.0435 H   0  0  0  0  0  0  0  0  0  0  0  0
    2.2877    4.2592    0.2167 H   0  0  0  0  0  0  0  0  0  0  0  0
    3.0219    0.1968    6.3685 H   0  0  0  0  0  0  0  0  0  0  0  0
    1.4472   -0.8241    7.9478 H   0  0  0  0  0  0  0  0  0  0  0  0
    1.0388   -5.4445   10.1218 H   0  0  0  0  0  0  0  0  0  0  0  0
    2.7369   -5.0557    9.7711 H   0  0  0  0  0  0  0  0  0  0  0  0
    1.6572   -5.6590    8.4703 H   0  0  0  0  0  0  0  0  0  0  0  0
    3.5327   -4.5445    7.6192 H   0  0  0  0  0  0  0  0  0  0  0  0
    5.0753   -3.5420    6.0338 H   0  0  0  0  0  0  0  0  0  0  0  0
    6.2301   -2.6694    3.4455 H   0  0  0  0  0  0  0  0  0  0  0  0
    8.5352   -3.4844    3.5198 H   0  0  0  0  0  0  0  0  0  0  0  0
   12.0160   -4.3488    4.1747 H   0  0  0  0  0  0  0  0  0  0  0  0
   10.7723   -3.6317    3.1309 H   0  0  0  0  0  0  0  0  0  0  0  0
   10.3360   -4.9136    4.3076 H   0  0  0  0  0  0  0  0  0  0  0  0
    9.1715   -1.3353    7.1649 H   0  0  0  0  0  0  0  0  0  0  0  0
    6.8237   -0.5507    7.1037 H   0  0  0  0  0  0  0  0  0  0  0  0
    6.7113    2.6060    4.8530 H   0  0  0  0  0  0  0  0  0  0  0  0
  1  2  2  0  0  0  0
  2  3  1  0  0  0  0
  3  4  2  0  0  0  0
  3  5  1  0  0  0  0
  5  6  2  0  0  0  0
  6  7  1  0  0  0  0
  6  8  1  0  0  0  0
  8  9  1  0  0  0  0
  8 10  2  0  0  0  0
 10 11  1  0  0  0  0
 10 12  1  0  0  0  0
 12 13  1  0  0  0  0
 12 14  2  0  0  0  0
 14 15  1  0  0  0  0
 15 16  2  0  0  0  0
 16 17  1  0  0  0  0
 17 18  3  0  0  0  0
 16 19  1  0  0  0  0
 19 20  3  0  0  0  0
  1 21  1  0  0  0  0
 21 22  2  0  0  0  0
 22 23  1  0  0  0  0
 23 24  1  0  0  0  0
 24 25  2  0  0  0  0
 25 26  1  0  0  0  0
 26 27  2  0  0  0  0
 27 28  1  0  0  0  0
 28 29  1  0  0  0  0
 27 30  1  0  0  0  0
 30 31  2  0  0  0  0
 23 32  1  0  0  0  0
 32 33  2  0  0  0  0
 33 34  1  0  0  0  0
 34 35  2  0  0  0  0
 35 36  1  0  0  0  0
 36 37  1  0  0  0  0
 35 38  1  0  0  0  0
 38 39  2  0  0  0  0
 22 40  1  0  0  0  0
 40 41  1  0  0  0  0
 41 42  1  0  0  0  0
 42 43  2  0  0  0  0
 43 44  1  0  0  0  0
 44 45  1  0  0  0  0
 45 46  2  0  0  0  0
 46 47  1  0  0  0  0
 47 48  2  0  0  0  0
 48 49  1  0  0  0  0
 49 50  1  0  0  0  0
 48 51  1  0  0  0  0
 51 52  2  0  0  0  0
 44 53  1  0  0  0  0
 53 54  2  0  0  0  0
 54 55  1  0  0  0  0
 55 56  2  0  0  0  0
 56 57  1  0  0  0  0
 57 58  1  0  0  0  0
 56 59  1  0  0  0  0
 59 60  2  0  0  0  0
 43 61  1  0  0  0  0
 61 62  1  0  0  0  0
 42 63  1  0  0  0  0
 63 64  2  0  0  0  0
 64 65  1  0  0  0  0
 65 66  2  0  0  0  0
 66 67  1  0  0  0  0
 67 68  2  0  0  0  0
 68 69  1  0  0  0  0
 69 70  2  0  0  0  0
 70 71  1  0  0  0  0
 71 72  2  0  0  0  0
 66 73  1  0  0  0  0
 73 74  2  0  0  0  0
 74 75  1  0  0  0  0
 75 76  1  0  0  0  0
 76 77  2  0  0  0  0
 77 78  1  0  0  0  0
 78 79  2  0  0  0  0
 79 80  1  0  0  0  0
 80 81  1  0  0  0  0
 79 82  1  0  0  0  0
 82 83  2  0  0  0  0
 75 84  1  0  0  0  0
 84 85  2  0  0  0  0
 85 86  1  0  0  0  0
 86 87  2  0  0  0  0
 87 88  1  0  0  0  0
 88 89  1  0  0  0  0
 87 90  1  0  0  0  0
 90 91  2  0  0  0  0
 74 92  1  0  0  0  0
 92 93  1  0  0  0  0
 93 94  1  0  0  0  0
 94 95  2  0  0  0  0
 95 96  1  0  0  0  0
 96 97  1  0  0  0  0
 97 98  2  0  0  0  0
 98 99  1  0  0  0  0
 99100  2  0  0  0  0
100101  1  0  0  0  0
101102  1  0  0  0  0
100103  1  0  0  0  0
103104  2  0  0  0  0
 96105  1  0  0  0  0
105106  2  0  0  0  0
106107  1  0  0  0  0
107108  2  0  0  0  0
108109  1  0  0  0  0
109110  1  0  0  0  0
108111  1  0  0  0  0
111112  2  0  0  0  0
 95113  1  0  0  0  0
113114  1  0  0  0  0
 94115  1  0  0  0  0
115116  2  0  0  0  0
116117  1  0  0  0  0
117118  2  0  0  0  0
117119  1  0  0  0  0
119120  2  0  0  0  0
120121  1  0  0  0  0
120122  1  0  0  0  0
122123  1  0  0  0  0
122124  2  0  0  0  0
124125  1  0  0  0  0
124126  1  0  0  0  0
126127  1  0  0  0  0
126128  2  0  0  0  0
128129  1  0  0  0  0
129130  2  0  0  0  0
130131  1  0  0  0  0
131132  3  0  0  0  0
130133  1  0  0  0  0
133134  3  0  0  0  0
 15  2  1  0  0  0  0
 62 21  1  0  0  0  0
 72 63  1  0  0  0  0
114 73  1  0  0  0  0
129116  1  0  0  0  0
 14  5  1  0  0  0  0
 31 24  1  0  0  0  0
 39 32  1  0  0  0  0
 61 40  2  0  0  0  0
 72 67  1  0  0  0  0
 83 76  1  0  0  0  0
 91 84  1  0  0  0  0
113 92  2  0  0  0  0
128119  1  0  0  0  0
 52 45  1  0  0  0  0
 60 53  1  0  0  0  0
104 97  1  0  0  0  0
112105  1  0  0  0  0
  1135  1  0  0  0  0
 25136  1  0  0  0  0
 26137  1  0  0  0  0
 29138  1  0  0  0  0
 29139  1  0  0  0  0
 29140  1  0  0  0  0
 30141  1  0  0  0  0
 31142  1  0  0  0  0
 33143  1  0  0  0  0
 34144  1  0  0  0  0
 37145  1  0  0  0  0
 37146  1  0  0  0  0
 37147  1  0  0  0  0
 38148  1  0  0  0  0
 39149  1  0  0  0  0
 46150  1  0  0  0  0
 47151  1  0  0  0  0
 50152  1  0  0  0  0
 50153  1  0  0  0  0
 50154  1  0  0  0  0
 51155  1  0  0  0  0
 52156  1  0  0  0  0
 54157  1  0  0  0  0
 55158  1  0  0  0  0
 58159  1  0  0  0  0
 58160  1  0  0  0  0
 58161  1  0  0  0  0
 59162  1  0  0  0  0
 60163  1  0  0  0  0
 64164  1  0  0  0  0
 65165  1  0  0  0  0
 69166  1  0  0  0  0
 70167  1  0  0  0  0
 77168  1  0  0  0  0
 78169  1  0  0  0  0
 81170  1  0  0  0  0
 81171  1  0  0  0  0
 81172  1  0  0  0  0
 82173  1  0  0  0  0
 83174  1  0  0  0  0
 85175  1  0  0  0  0
 86176  1  0  0  0  0
 89177  1  0  0  0  0
 89178  1  0  0  0  0
 89179  1  0  0  0  0
 90180  1  0  0  0  0
 91181  1  0  0  0  0
 98182  1  0  0  0  0
 99183  1  0  0  0  0
102184  1  0  0  0  0
102185  1  0  0  0  0
102186  1  0  0  0  0
103187  1  0  0  0  0
104188  1  0  0  0  0
106189  1  0  0  0  0
107190  1  0  0  0  0
110191  1  0  0  0  0
110192  1  0  0  0  0
110193  1  0  0  0  0
111194  1  0  0  0  0
112195  1  0  0  0  0
115196  1  0  0  0  0
M  END
