
  xtb     02042200353D
 energy: -289.305861110794 gnorm: 0.000573418825 xtb: 6.4.1 (unknown)
157167  0     0  0            999 V2000
   -6.0549    2.2136   -6.4852 C   0  0  0  0  0  0  0  0  0  0  0  0
   -5.8293    2.7657   -7.6953 C   0  0  0  0  0  0  0  0  0  0  0  0
   -4.4861    2.9692   -8.3096 C   0  0  0  0  0  0  0  0  0  0  0  0
   -3.4432    2.4730   -7.9665 O   0  0  0  0  0  0  0  0  0  0  0  0
   -4.7314    3.8460   -9.4774 C   0  0  0  0  0  0  0  0  0  0  0  0
   -3.8019    4.4752  -10.2878 C   0  0  0  0  0  0  0  0  0  0  0  0
   -2.1310    4.1939  -10.1045 Cl  0  0  0  0  0  0  0  0  0  0  0  0
   -4.2707    5.3725  -11.2586 C   0  0  0  0  0  0  0  0  0  0  0  0
   -3.1648    6.1577  -12.2963 Cl  0  0  0  0  0  0  0  0  0  0  0  0
   -5.6336    5.6561  -11.3509 C   0  0  0  0  0  0  0  0  0  0  0  0
   -6.1695    6.8218  -12.4809 Cl  0  0  0  0  0  0  0  0  0  0  0  0
   -6.5710    5.0145  -10.5261 C   0  0  0  0  0  0  0  0  0  0  0  0
   -8.2031    5.5352  -10.5858 Cl  0  0  0  0  0  0  0  0  0  0  0  0
   -6.1189    4.0543   -9.6276 C   0  0  0  0  0  0  0  0  0  0  0  0
   -6.8233    3.2095   -8.6694 C   0  0  0  0  0  0  0  0  0  0  0  0
   -8.1094    2.7558   -8.7518 C   0  0  0  0  0  0  0  0  0  0  0  0
   -8.9648    2.8852   -9.8699 C   0  0  0  0  0  0  0  0  0  0  0  0
   -9.6918    2.8421  -10.7560 N   0  0  0  0  0  0  0  0  0  0  0  0
   -8.7283    1.9407   -7.7757 C   0  0  0  0  0  0  0  0  0  0  0  0
   -9.3077    1.2999   -7.0199 N   0  0  0  0  0  0  0  0  0  0  0  0
   -5.0140    1.8943   -5.5294 C   0  0  0  0  0  0  0  0  0  0  0  0
   -3.9996    2.7988   -5.2252 C   0  0  0  0  0  0  0  0  0  0  0  0
   -4.0266    4.0351   -5.7530 F   0  0  0  0  0  0  0  0  0  0  0  0
   -3.0201    2.4889   -4.3046 C   0  0  0  0  0  0  0  0  0  0  0  0
   -2.1352    3.4574   -4.0142 F   0  0  0  0  0  0  0  0  0  0  0  0
   -2.9191    1.2228   -3.7082 C   0  0  0  0  0  0  0  0  0  0  0  0
   -3.9298    0.2810   -4.0479 C   0  0  0  0  0  0  0  0  0  0  0  0
   -3.8397   -0.9635   -3.5267 O   0  0  0  0  0  0  0  0  0  0  0  0
   -4.2265   -2.0889   -4.3172 C   0  0  0  0  0  0  0  0  0  0  0  0
   -3.4180   -3.2848   -3.8376 C   0  0  0  0  0  0  0  0  0  0  0  0
   -5.0077    0.6579   -4.8590 C   0  0  0  0  0  0  0  0  0  0  0  0
   -6.0574   -0.2092   -5.0657 O   0  0  0  0  0  0  0  0  0  0  0  0
   -7.2065    0.0456   -4.2540 C   0  0  0  0  0  0  0  0  0  0  0  0
   -7.0380   -0.4051   -2.8076 C   0  0  0  0  0  0  0  0  0  0  0  0
   -1.8601    0.9266   -2.7675 C   0  0  0  0  0  0  0  0  0  0  0  0
   -1.5626   -0.2664   -2.1660 C   0  0  0  0  0  0  0  0  0  0  0  0
   -0.4978   -0.2029   -1.2378 C   0  0  0  0  0  0  0  0  0  0  0  0
    0.0458   -1.2537   -0.4793 C   0  0  0  0  0  0  0  0  0  0  0  0
   -0.4364   -2.6377   -0.5797 C   0  0  0  0  0  0  0  0  0  0  0  0
   -1.7840   -2.9443   -0.4619 C   0  0  0  0  0  0  0  0  0  0  0  0
   -2.2067   -4.2679   -0.5474 C   0  0  0  0  0  0  0  0  0  0  0  0
   -3.5525   -4.4563   -0.4556 O   0  0  0  0  0  0  0  0  0  0  0  0
   -4.0813   -5.7631   -0.5539 C   0  0  0  0  0  0  0  0  0  0  0  0
   -5.5961   -5.6522   -0.4789 C   0  0  0  0  0  0  0  0  0  0  0  0
   -1.2830   -5.2924   -0.7233 C   0  0  0  0  0  0  0  0  0  0  0  0
    0.0700   -4.9846   -0.8343 C   0  0  0  0  0  0  0  0  0  0  0  0
    1.0672   -5.8913   -1.0284 O   0  0  0  0  0  0  0  0  0  0  0  0
    0.8011   -7.2747   -0.9272 C   0  0  0  0  0  0  0  0  0  0  0  0
    0.6086   -7.7296    0.5168 C   0  0  0  0  0  0  0  0  0  0  0  0
    0.4842   -3.6586   -0.7752 C   0  0  0  0  0  0  0  0  0  0  0  0
    1.0822   -0.9237    0.3793 C   0  0  0  0  0  0  0  0  0  0  0  0
    1.6216    0.3824    0.4797 C   0  0  0  0  0  0  0  0  0  0  0  0
    1.1262    1.4206   -0.3294 C   0  0  0  0  0  0  0  0  0  0  0  0
    1.7387    2.7550   -0.3403 C   0  0  0  0  0  0  0  0  0  0  0  0
    3.1128    2.8790   -0.4592 C   0  0  0  0  0  0  0  0  0  0  0  0
    3.7019    4.1433   -0.5134 C   0  0  0  0  0  0  0  0  0  0  0  0
    2.9018    5.2726   -0.4544 C   0  0  0  0  0  0  0  0  0  0  0  0
    1.5145    5.1495   -0.3421 C   0  0  0  0  0  0  0  0  0  0  0  0
    0.8411    6.3295   -0.3243 O   0  0  0  0  0  0  0  0  0  0  0  0
   -0.5727    6.3309   -0.2853 C   0  0  0  0  0  0  0  0  0  0  0  0
   -1.1226    6.1352    1.1251 C   0  0  0  0  0  0  0  0  0  0  0  0
    0.9346    3.8921   -0.2756 C   0  0  0  0  0  0  0  0  0  0  0  0
    5.0535    4.1555   -0.6341 O   0  0  0  0  0  0  0  0  0  0  0  0
    5.7230    5.3992   -0.7075 C   0  0  0  0  0  0  0  0  0  0  0  0
    7.2105    5.1154   -0.8465 C   0  0  0  0  0  0  0  0  0  0  0  0
    0.0480    1.1024   -1.1427 C   0  0  0  0  0  0  0  0  0  0  0  0
   -0.7789    2.1986   -2.2075 S   0  0  0  0  0  0  0  0  0  0  0  0
    2.6104    0.4650    1.4905 C   0  0  0  0  0  0  0  0  0  0  0  0
    2.8419   -0.7177    2.1359 C   0  0  0  0  0  0  0  0  0  0  0  0
    1.8565   -2.0171    1.4908 S   0  0  0  0  0  0  0  0  0  0  0  0
    3.7250   -0.9770    3.2512 C   0  0  0  0  0  0  0  0  0  0  0  0
    4.2715    0.0548    4.0256 C   0  0  0  0  0  0  0  0  0  0  0  0
    4.0273    1.3435    3.7337 F   0  0  0  0  0  0  0  0  0  0  0  0
    5.0773   -0.2132    5.1142 C   0  0  0  0  0  0  0  0  0  0  0  0
    5.6315    0.8125    5.7768 F   0  0  0  0  0  0  0  0  0  0  0  0
    5.3653   -1.5197    5.5038 C   0  0  0  0  0  0  0  0  0  0  0  0
    4.8500   -2.5774    4.7279 C   0  0  0  0  0  0  0  0  0  0  0  0
    5.1871   -3.8234    5.1474 O   0  0  0  0  0  0  0  0  0  0  0  0
    4.2134   -4.8648    5.1573 C   0  0  0  0  0  0  0  0  0  0  0  0
    2.9408   -4.4658    5.8897 C   0  0  0  0  0  0  0  0  0  0  0  0
    4.0544   -2.3001    3.6129 C   0  0  0  0  0  0  0  0  0  0  0  0
    3.5699   -3.3345    2.8441 O   0  0  0  0  0  0  0  0  0  0  0  0
    4.4872   -3.8019    1.8527 C   0  0  0  0  0  0  0  0  0  0  0  0
    3.8728   -5.0072    1.1631 C   0  0  0  0  0  0  0  0  0  0  0  0
    6.1993   -1.8033    6.6545 C   0  0  0  0  0  0  0  0  0  0  0  0
    6.0418   -1.2211    7.8629 C   0  0  0  0  0  0  0  0  0  0  0  0
    4.8274   -0.4439    8.2645 C   0  0  0  0  0  0  0  0  0  0  0  0
    3.8424   -0.2276    7.5964 O   0  0  0  0  0  0  0  0  0  0  0  0
    5.0304   -0.1140    9.6836 C   0  0  0  0  0  0  0  0  0  0  0  0
    4.2042    0.5991   10.5333 C   0  0  0  0  0  0  0  0  0  0  0  0
    4.6041    0.7733   11.8466 C   0  0  0  0  0  0  0  0  0  0  0  0
    5.8044    0.2383   12.3172 C   0  0  0  0  0  0  0  0  0  0  0  0
    6.1977    0.4457   13.7451 C   0  0  0  0  0  0  0  0  0  0  0  0
    6.6278   -0.4834   11.4575 C   0  0  0  0  0  0  0  0  0  0  0  0
    6.2445   -0.6599   10.1367 C   0  0  0  0  0  0  0  0  0  0  0  0
    6.9007   -1.3510    9.0319 C   0  0  0  0  0  0  0  0  0  0  0  0
    8.1241   -1.9595    9.0778 C   0  0  0  0  0  0  0  0  0  0  0  0
    8.9260   -2.0457   10.2366 C   0  0  0  0  0  0  0  0  0  0  0  0
    9.6218   -2.1576   11.1425 N   0  0  0  0  0  0  0  0  0  0  0  0
    8.7660   -2.5808    7.9842 C   0  0  0  0  0  0  0  0  0  0  0  0
    9.3597   -3.0996    7.1499 N   0  0  0  0  0  0  0  0  0  0  0  0
   -7.0689    1.9844   -6.1910 H   0  0  0  0  0  0  0  0  0  0  0  0
   -4.0318   -1.8798   -5.3740 H   0  0  0  0  0  0  0  0  0  0  0  0
   -5.2947   -2.2903   -4.1979 H   0  0  0  0  0  0  0  0  0  0  0  0
   -3.7127   -4.1674   -4.3984 H   0  0  0  0  0  0  0  0  0  0  0  0
   -3.6044   -3.4536   -2.7810 H   0  0  0  0  0  0  0  0  0  0  0  0
   -2.3540   -3.1145   -3.9817 H   0  0  0  0  0  0  0  0  0  0  0  0
   -7.4540    1.1136   -4.2679 H   0  0  0  0  0  0  0  0  0  0  0  0
   -8.0106   -0.5077   -4.7435 H   0  0  0  0  0  0  0  0  0  0  0  0
   -6.8781   -1.4783   -2.7494 H   0  0  0  0  0  0  0  0  0  0  0  0
   -6.1910    0.0975   -2.3450 H   0  0  0  0  0  0  0  0  0  0  0  0
   -7.9379   -0.1574   -2.2514 H   0  0  0  0  0  0  0  0  0  0  0  0
   -2.0848   -1.1777   -2.3718 H   0  0  0  0  0  0  0  0  0  0  0  0
   -2.5192   -2.1774   -0.2819 H   0  0  0  0  0  0  0  0  0  0  0  0
   -3.7060   -6.3867    0.2696 H   0  0  0  0  0  0  0  0  0  0  0  0
   -3.7836   -6.2212   -1.5080 H   0  0  0  0  0  0  0  0  0  0  0  0
   -5.9639   -5.0396   -1.2975 H   0  0  0  0  0  0  0  0  0  0  0  0
   -6.0437   -6.6397   -0.5429 H   0  0  0  0  0  0  0  0  0  0  0  0
   -5.8869   -5.1873    0.4589 H   0  0  0  0  0  0  0  0  0  0  0  0
   -1.6170   -6.3146   -0.7774 H   0  0  0  0  0  0  0  0  0  0  0  0
    1.6900   -7.7506   -1.3503 H   0  0  0  0  0  0  0  0  0  0  0  0
   -0.0619   -7.5539   -1.5446 H   0  0  0  0  0  0  0  0  0  0  0  0
    0.4500   -8.8041    0.5461 H   0  0  0  0  0  0  0  0  0  0  0  0
    1.4934   -7.4850    1.0985 H   0  0  0  0  0  0  0  0  0  0  0  0
   -0.2454   -7.2319    0.9697 H   0  0  0  0  0  0  0  0  0  0  0  0
    1.5319   -3.4415   -0.9036 H   0  0  0  0  0  0  0  0  0  0  0  0
    3.7465    2.0112   -0.5444 H   0  0  0  0  0  0  0  0  0  0  0  0
    3.3062    6.2697   -0.5022 H   0  0  0  0  0  0  0  0  0  0  0  0
   -0.8532    7.3221   -0.6540 H   0  0  0  0  0  0  0  0  0  0  0  0
   -0.9765    5.5798   -0.9745 H   0  0  0  0  0  0  0  0  0  0  0  0
   -0.8289    5.1697    1.5291 H   0  0  0  0  0  0  0  0  0  0  0  0
   -2.2074    6.1955    1.1057 H   0  0  0  0  0  0  0  0  0  0  0  0
   -0.7368    6.9114    1.7813 H   0  0  0  0  0  0  0  0  0  0  0  0
   -0.1284    3.7694   -0.1569 H   0  0  0  0  0  0  0  0  0  0  0  0
    5.3622    5.9696   -1.5745 H   0  0  0  0  0  0  0  0  0  0  0  0
    5.5312    5.9839    0.2026 H   0  0  0  0  0  0  0  0  0  0  0  0
    7.3950    4.5353   -1.7465 H   0  0  0  0  0  0  0  0  0  0  0  0
    7.5606    4.5461    0.0101 H   0  0  0  0  0  0  0  0  0  0  0  0
    7.7615    6.0498   -0.9043 H   0  0  0  0  0  0  0  0  0  0  0  0
    3.1062    1.3878    1.7226 H   0  0  0  0  0  0  0  0  0  0  0  0
    4.7249   -5.6760    5.6824 H   0  0  0  0  0  0  0  0  0  0  0  0
    3.9719   -5.1926    4.1432 H   0  0  0  0  0  0  0  0  0  0  0  0
    2.3028   -5.3371    6.0066 H   0  0  0  0  0  0  0  0  0  0  0  0
    3.1792   -4.0657    6.8728 H   0  0  0  0  0  0  0  0  0  0  0  0
    2.3993   -3.7102    5.3256 H   0  0  0  0  0  0  0  0  0  0  0  0
    5.4411   -4.0666    2.3282 H   0  0  0  0  0  0  0  0  0  0  0  0
    4.6746   -2.9995    1.1266 H   0  0  0  0  0  0  0  0  0  0  0  0
    4.5222   -5.3344    0.3564 H   0  0  0  0  0  0  0  0  0  0  0  0
    3.7471   -5.8256    1.8676 H   0  0  0  0  0  0  0  0  0  0  0  0
    2.9001   -4.7478    0.7561 H   0  0  0  0  0  0  0  0  0  0  0  0
    6.9608   -2.5558    6.4992 H   0  0  0  0  0  0  0  0  0  0  0  0
    3.2766    1.0091   10.1649 H   0  0  0  0  0  0  0  0  0  0  0  0
    3.9795    1.3328   12.5276 H   0  0  0  0  0  0  0  0  0  0  0  0
    5.4293    0.0528   14.4096 H   0  0  0  0  0  0  0  0  0  0  0  0
    6.3025    1.5094   13.9550 H   0  0  0  0  0  0  0  0  0  0  0  0
    7.1394   -0.0479   13.9678 H   0  0  0  0  0  0  0  0  0  0  0  0
    7.5507   -0.8969   11.8312 H   0  0  0  0  0  0  0  0  0  0  0  0
  1  2  2  0  0  0  0
  2  3  1  0  0  0  0
  3  4  2  0  0  0  0
  3  5  1  0  0  0  0
  5  6  2  0  0  0  0
  6  7  1  0  0  0  0
  6  8  1  0  0  0  0
  8  9  1  0  0  0  0
  8 10  2  0  0  0  0
 10 11  1  0  0  0  0
 10 12  1  0  0  0  0
 12 13  1  0  0  0  0
 12 14  2  0  0  0  0
 14 15  1  0  0  0  0
 15 16  2  0  0  0  0
 16 17  1  0  0  0  0
 17 18  3  0  0  0  0
 16 19  1  0  0  0  0
 19 20  3  0  0  0  0
  1 21  1  0  0  0  0
 21 22  2  0  0  0  0
 22 23  1  0  0  0  0
 22 24  1  0  0  0  0
 24 25  1  0  0  0  0
 24 26  2  0  0  0  0
 26 27  1  0  0  0  0
 27 28  1  0  0  0  0
 28 29  1  0  0  0  0
 29 30  1  0  0  0  0
 27 31  2  0  0  0  0
 31 32  1  0  0  0  0
 32 33  1  0  0  0  0
 33 34  1  0  0  0  0
 26 35  1  0  0  0  0
 35 36  2  0  0  0  0
 36 37  1  0  0  0  0
 37 38  2  0  0  0  0
 38 39  1  0  0  0  0
 39 40  2  0  0  0  0
 40 41  1  0  0  0  0
 41 42  1  0  0  0  0
 42 43  1  0  0  0  0
 43 44  1  0  0  0  0
 41 45  2  0  0  0  0
 45 46  1  0  0  0  0
 46 47  1  0  0  0  0
 47 48  1  0  0  0  0
 48 49  1  0  0  0  0
 46 50  2  0  0  0  0
 38 51  1  0  0  0  0
 51 52  2  0  0  0  0
 52 53  1  0  0  0  0
 53 54  1  0  0  0  0
 54 55  2  0  0  0  0
 55 56  1  0  0  0  0
 56 57  2  0  0  0  0
 57 58  1  0  0  0  0
 58 59  1  0  0  0  0
 59 60  1  0  0  0  0
 60 61  1  0  0  0  0
 58 62  2  0  0  0  0
 56 63  1  0  0  0  0
 63 64  1  0  0  0  0
 64 65  1  0  0  0  0
 53 66  2  0  0  0  0
 66 67  1  0  0  0  0
 52 68  1  0  0  0  0
 68 69  2  0  0  0  0
 69 70  1  0  0  0  0
 69 71  1  0  0  0  0
 71 72  2  0  0  0  0
 72 73  1  0  0  0  0
 72 74  1  0  0  0  0
 74 75  1  0  0  0  0
 74 76  2  0  0  0  0
 76 77  1  0  0  0  0
 77 78  1  0  0  0  0
 78 79  1  0  0  0  0
 79 80  1  0  0  0  0
 77 81  2  0  0  0  0
 81 82  1  0  0  0  0
 82 83  1  0  0  0  0
 83 84  1  0  0  0  0
 76 85  1  0  0  0  0
 85 86  2  0  0  0  0
 86 87  1  0  0  0  0
 87 88  2  0  0  0  0
 87 89  1  0  0  0  0
 89 90  2  0  0  0  0
 90 91  1  0  0  0  0
 91 92  2  0  0  0  0
 92 93  1  0  0  0  0
 92 94  1  0  0  0  0
 94 95  2  0  0  0  0
 95 96  1  0  0  0  0
 96 97  2  0  0  0  0
 97 98  1  0  0  0  0
 98 99  3  0  0  0  0
 97100  1  0  0  0  0
100101  3  0  0  0  0
 15  2  1  0  0  0  0
 31 21  1  0  0  0  0
 67 35  1  0  0  0  0
 81 71  1  0  0  0  0
 96 86  1  0  0  0  0
 14  5  1  0  0  0  0
 66 37  1  0  0  0  0
 95 89  1  0  0  0  0
 50 39  1  0  0  0  0
 70 51  1  0  0  0  0
 62 54  1  0  0  0  0
  1102  1  0  0  0  0
 29103  1  0  0  0  0
 29104  1  0  0  0  0
 30105  1  0  0  0  0
 30106  1  0  0  0  0
 30107  1  0  0  0  0
 33108  1  0  0  0  0
 33109  1  0  0  0  0
 34110  1  0  0  0  0
 34111  1  0  0  0  0
 34112  1  0  0  0  0
 36113  1  0  0  0  0
 40114  1  0  0  0  0
 43115  1  0  0  0  0
 43116  1  0  0  0  0
 44117  1  0  0  0  0
 44118  1  0  0  0  0
 44119  1  0  0  0  0
 45120  1  0  0  0  0
 48121  1  0  0  0  0
 48122  1  0  0  0  0
 49123  1  0  0  0  0
 49124  1  0  0  0  0
 49125  1  0  0  0  0
 50126  1  0  0  0  0
 55127  1  0  0  0  0
 57128  1  0  0  0  0
 60129  1  0  0  0  0
 60130  1  0  0  0  0
 61131  1  0  0  0  0
 61132  1  0  0  0  0
 61133  1  0  0  0  0
 62134  1  0  0  0  0
 64135  1  0  0  0  0
 64136  1  0  0  0  0
 65137  1  0  0  0  0
 65138  1  0  0  0  0
 65139  1  0  0  0  0
 68140  1  0  0  0  0
 79141  1  0  0  0  0
 79142  1  0  0  0  0
 80143  1  0  0  0  0
 80144  1  0  0  0  0
 80145  1  0  0  0  0
 83146  1  0  0  0  0
 83147  1  0  0  0  0
 84148  1  0  0  0  0
 84149  1  0  0  0  0
 84150  1  0  0  0  0
 85151  1  0  0  0  0
 90152  1  0  0  0  0
 91153  1  0  0  0  0
 93154  1  0  0  0  0
 93155  1  0  0  0  0
 93156  1  0  0  0  0
 94157  1  0  0  0  0
M  END
