139

C         -6.38030        1.57770        4.40570
C         -6.73020        1.45400        5.72820
C         -6.15520        0.46040        6.65170
O         -5.29800       -0.36560        6.42820
C         -6.97730        0.55090        7.88690
C         -6.88940       -0.21320        9.03560
Cl        -5.60970       -1.31740        9.27310
C         -7.88220       -0.06160       10.01420
Cl        -7.79080       -0.95510       11.46980
C         -8.96580        0.78210        9.78210
Cl       -10.22010        0.87300       10.94280
C         -9.05630        1.54670        8.60720
Cl       -10.50250        2.42360        8.31790
C         -8.01640        1.48210        7.68920
C         -7.79120        2.15380        6.41070
C         -8.29330        3.36990        6.01520
C         -8.02970        3.95020        4.75540
N         -7.87270        4.49150        3.75490
C         -8.96710        4.29860        6.83400
N         -9.41000        5.17030        7.43640
C         -5.16170        1.17320        3.82270
C         -5.10850        0.79870        2.45830
C         -3.88060        0.43090        1.79530
N         -4.08440        0.08090        0.52600
S         -5.65450        0.19410        0.19780
N         -6.15470        0.69480        1.64100
C         -2.61720        0.53840        2.42110
C         -2.67370        0.83480        3.80250
N         -1.63260        0.84270        4.63750
S         -2.14210        1.25610        6.10280
N         -3.69340        1.47740        5.75750
C         -3.90990        1.16110        4.48200
C         -1.42610        0.38610        1.67340
C         -0.17830        1.01370        1.84780
N          0.05950        2.11210        2.63330
C          1.34970        2.34020        3.13030
C          2.11190        1.28370        3.62130
C          3.39100        1.50050        4.09300
C          3.92760        2.78220        4.08310
S          5.54530        3.18480        4.64700
C          6.29350        1.57590        5.02870
C          3.15570        3.84570        3.61190
C          1.88190        3.63030        3.14100
C         -0.97100        3.01110        2.93990
C         -1.95790        3.31700        1.99980
C         -3.06180        4.05080        2.36620
C         -3.20510        4.50510        3.67830
S         -4.71340        5.30850        4.09390
C         -4.81900        5.04160        5.88730
C         -2.16480        4.30870        4.57990
C         -1.05490        3.57640        4.21000
C          0.77390        0.48150        0.94900
S          2.44420        0.82750        0.62480
C          2.44150       -0.34320       -0.67700
C          1.16950       -0.87270       -0.92890
N          0.81450       -1.57050       -2.05960
C          1.44680       -1.32720       -3.28500
C          1.92200       -0.05270       -3.59930
C          2.65660        0.16530       -4.74430
C          2.89290       -0.87970       -5.63120
S          3.88310       -0.71170       -7.07890
C          4.83510        0.80460       -6.76800
C          2.31620       -2.12360       -5.38440
C          1.62170       -2.35120       -4.21580
C         -0.23980       -2.48990       -1.97070
C         -1.21510       -2.55940       -2.96610
C         -2.26890       -3.43370       -2.83630
C         -2.37570       -4.25570       -1.71360
S         -3.78250       -5.31310       -1.65120
C         -3.69380       -6.06520       -0.00130
C         -1.39160       -4.20630       -0.73430
C         -0.33280       -3.33050       -0.86480
C          0.24770       -0.43510        0.04740
S         -1.45050       -0.68210        0.28010
C          3.63230       -0.63800       -1.38640
C          3.91880       -1.91870       -1.90680
C          5.02800       -2.16450       -2.80330
N          5.20390       -3.46640       -3.01480
S          4.06080       -4.28570       -2.25470
N          3.29430       -3.04890       -1.56770
C          5.80350       -1.11260       -3.33950
C          5.62620        0.12650       -2.67450
N          6.31020        1.24450       -2.91840
S          5.75870        2.42420       -1.97550
N          4.59080        1.60300       -1.23760
C          4.59530        0.34680       -1.68450
C          6.70270       -1.17050       -4.43090
C          6.73340       -2.01550       -5.50630
C          5.70380       -2.99320       -5.93670
O          4.69750       -3.34870       -5.35640
C          6.11050       -3.42360       -7.28770
C          5.46730       -4.29130       -8.14850
C          6.02870       -4.52020       -9.39370
C          7.20940       -3.88950       -9.78310
C          7.77500       -4.14030      -11.14540
C          7.85030       -3.01410       -8.90950
C          7.30240       -2.78210       -7.65880
C          7.74260       -1.94210       -6.54920
C          8.93440       -1.26740       -6.49070
C          9.87480       -1.23350       -7.54170
N         10.68120       -1.15440       -8.35570
C          9.42660       -0.54420       -5.38270
N          9.92990        0.04500       -4.53450
H         -7.10630        1.97570        3.70740
H          1.68750        0.29170        3.64780
H          3.95420        0.66370        4.47220
H          7.31830        1.79150        5.31510
H          5.77200        1.10770        5.85830
H          6.28190        0.94560        4.14470
H          3.57730        4.83880        3.61270
H          1.29310        4.45370        2.76590
H         -1.86710        2.95030        0.98820
H         -3.84140        4.26450        1.65160
H         -4.12970        5.69580        6.41290
H         -4.62110        3.99570        6.10700
H         -5.83820        5.29780        6.16050
H         -2.22160        4.70590        5.58040
H         -0.26690        3.39370        4.92530
H          1.72740        0.77450       -2.93260
H          3.02850        1.15770       -4.94430
H          5.60420        0.82930       -7.53410
H          5.29370        0.75370       -5.78410
H          4.19870        1.67940       -6.86430
H          2.45060       -2.91930       -6.09770
H          1.23160       -3.33540       -4.00510
H         -1.14690       -1.91360       -3.82830
H         -3.03370       -3.48360       -3.59580
H         -2.82230       -6.71000        0.07160
H         -4.59760       -6.65870        0.09790
H         -3.67770       -5.28780        0.75680
H         -1.43340       -4.84700        0.13130
H          0.44230       -3.30220       -0.11410
H          7.40870       -0.34660       -4.42920
H          4.55190       -4.77570       -7.84530
H          5.54580       -5.19790      -10.08270
H          7.75190       -5.20210      -11.38220
H          8.79910       -3.78360      -11.21440
H          7.17950       -3.61960      -11.89560
H          8.75990       -2.52700       -9.22220
