177

C         -4.63730       -8.75940       -1.26910
C         -5.73890       -9.33130       -0.67270
C         -6.30170       -8.90020        0.61180
O         -5.88230       -8.05190        1.37280
C         -7.42860       -9.82990        0.87760
C         -8.36320       -9.77280        1.89280
Cl        -8.26940       -8.59470        3.12460
C         -9.41750      -10.69600        1.88040
Cl       -10.58210      -10.68410        3.13360
C         -9.53950      -11.59360        0.82310
Cl       -10.88290      -12.65400        0.78020
C         -8.59480      -11.63530       -0.21600
Cl        -8.92670      -12.64820       -1.56020
C         -7.49000      -10.79470       -0.14810
C         -6.35140      -10.58430       -1.04370
C         -5.88890      -11.44590       -2.01240
C         -4.94020      -11.11410       -3.00090
N         -4.23400      -10.93560       -3.89090
C         -6.17290      -12.82470       -2.09430
N         -6.22810      -13.96940       -2.17000
C         -4.17790       -7.44620       -1.07930
C         -2.81030       -7.13260       -1.29600
C         -2.25910       -5.80570       -1.13740
N         -0.93170       -5.80350       -1.24640
S         -0.42450       -7.30240       -1.54340
N         -1.86270       -8.03030       -1.55250
C         -3.07440       -4.68800       -0.83420
C         -4.42410       -5.01890       -0.55760
N         -5.34660       -4.12790       -0.19310
S         -6.76870       -4.86790       -0.05800
N         -6.29040       -6.34060       -0.47390
C         -4.97650       -6.34140       -0.69630
C         -2.64890       -3.35330       -0.70570
C         -1.48980       -2.68950       -1.16980
N         -0.72280       -3.08580       -2.22810
C         -1.24430       -3.94020       -3.20780
C         -0.44820       -4.93650       -3.76950
C         -1.01630       -5.92980       -4.54270
C         -2.38700       -5.93140       -4.78160
S         -3.23550       -7.25340       -5.57060
C         -2.19050       -8.68760       -5.18470
C         -3.15040       -4.83990       -4.36170
C         -2.58570       -3.85420       -3.58860
C          0.58700       -2.59290       -2.35110
C          1.45220       -2.60660       -1.25720
C          2.69870       -2.03160       -1.35800
C          3.10530       -1.43160       -2.54950
S          4.67920       -0.64370       -2.54490
C          4.66890        0.33610       -4.07140
C          2.26910       -1.47940       -3.65970
C          1.01960       -2.05710       -3.55980
C         -1.32960       -1.46060       -0.48710
S         -0.11930       -0.22200       -0.46090
C         -1.02090        0.68060        0.75000
C         -2.24720        0.09440        1.03610
N         -3.24780        0.60010        1.85030
C         -4.15590       -0.35230        2.36700
C         -3.67230       -1.42130        3.11650
C         -4.49190       -2.48980        3.42500
C         -5.80530       -2.50390        2.97320
S         -6.85150       -3.92230        3.10680
C         -5.65270       -5.28300        3.20730
C         -6.32580       -1.37480        2.34380
C         -5.51220       -0.30380        2.04700
C         -3.53730        1.96560        1.92790
C         -4.16640        2.46670        3.06940
C         -4.39320        3.81750        3.20210
C         -3.99420        4.70520        2.20410
S         -4.28260        6.41960        2.50920
C         -3.47910        7.25270        1.11110
C         -3.40820        4.20750        1.04890
C         -3.18990        2.85120        0.91180
C         -2.38800       -1.13490        0.34840
S         -3.65170       -2.31460        0.29200
C         -0.39570        1.84900        1.31900
C          0.54170        2.56550        0.56280
C          1.16350        3.65060        1.12330
C          2.19130        4.55760        0.50160
C          3.39130        3.85320       -0.08310
C          4.26500        2.98830        0.53100
C          5.32620        2.46550       -0.19570
C          5.51590        2.81600       -1.52960
O          6.52150        2.35790       -2.32940
C          7.53580        1.53200       -1.78910
C          8.54460        2.30750       -0.94940
C          4.61780        3.68440       -2.15670
C          3.56070        4.19680       -1.43290
C          2.48640        5.10230       -1.81410
C          2.20500        5.70830       -3.02830
C          1.08870        6.53600       -3.11690
O          0.69640        7.21540       -4.22880
C          1.39560        7.04820       -5.44540
C          1.03730        5.74540       -6.15520
C          0.27670        6.73650       -1.99450
C          0.56250        6.13180       -0.78480
C          1.66930        5.31420       -0.69890
C          2.52420        5.47590        1.65120
C          1.71750        5.18240        2.76600
C          0.87840        4.05180        2.44130
C         -0.04460        3.34160        3.19750
C         -0.66740        2.24670        2.63620
C          1.83010        5.94450        3.92410
C          2.76720        6.95310        3.96180
C          3.62720        7.20330        2.87620
C          3.46670        6.47020        1.68930
C          4.61730        8.23090        3.02280
C          5.85880        8.29430        2.46980
C          6.60140        7.18740        1.81740
O          6.19100        6.11790        1.43420
C          8.02050        7.62450        1.81980
C          9.13620        6.90270        1.43290
Cl         8.99290        5.36490        0.71300
C         10.40120        7.46600        1.65030
Cl        11.80530        6.62420        1.15820
C         10.51690        8.69160        2.30500
Cl        12.07280        9.31130        2.65100
C          9.38170        9.41890        2.69780
Cl         9.60380       10.83240        3.64290
C          8.12600        8.90950        2.38900
C          6.77770        9.41680        2.61290
C          6.38320       10.72340        2.70080
C          5.03310       11.12050        2.84640
N          3.96450       11.52160        2.96420
C          7.19370       11.86070        2.49120
N          7.73730       12.84100        2.24660
H         -4.03040       -9.36000       -1.93430
H          0.60590       -4.96740       -3.53830
H         -0.39290       -6.71980       -4.93040
H         -1.35580       -8.74820       -5.87690
H         -1.85070       -8.61390       -4.15620
H         -2.83210       -9.55740       -5.29030
H         -4.19670       -4.80050       -4.62210
H         -3.19210       -3.03150       -3.24060
H          1.13260       -3.06760       -0.33520
H          3.36840       -2.02440       -0.51230
H          5.52800        0.99580       -4.00060
H          4.76510       -0.31200       -4.93780
H          3.75800        0.92580       -4.11150
H          2.57480       -1.05930       -4.60390
H          0.36170       -2.07490       -4.41630
H         -2.63310       -1.43510        3.41230
H         -4.09020       -3.31780        3.98670
H         -4.82360       -5.07420        2.53770
H         -6.16460       -6.18350        2.87990
H         -5.30710       -5.40700        4.22960
H         -7.36220       -1.37180        2.04470
H         -5.90320        0.54910        1.51270
H         -4.46330        1.78750        3.85480
H         -4.86910        4.20550        4.08940
H         -3.99390        7.01410        0.18500
H         -3.56520        8.31530        1.31570
H         -2.43170        6.96920        1.06570
H         -3.11690        4.86050        0.24230
H         -2.74590        2.48200        0.00020
H          0.76640        2.26210       -0.44970
H          4.13690        2.71630        1.56820
H          5.99890        1.78250        0.29660
H          8.03420        1.10870       -2.66650
H          7.09370        0.70730       -1.21730
H          9.32480        1.63610       -0.60170
H          8.99680        3.09430       -1.54840
H          8.06220        2.76550       -0.08990
H          4.77870        3.93930       -3.19270
H          2.85500        5.53390       -3.87070
H          2.47800        7.12210       -5.28410
H          1.08190        7.89940       -6.05620
H          1.31300        4.88410       -5.55150
H          1.55770        5.69210       -7.10760
H         -0.03410        5.70840       -6.33560
H         -0.57700        7.38660       -2.10330
H         -0.06840        6.29900        0.07630
H         -0.26300        3.62790        4.21500
H         -1.34920        1.66420        3.23430
H          1.19660        5.74960        4.77610
H          2.87610        7.54810        4.85710
H          4.05510        6.69770        0.81660
H          4.35180        9.01720        3.72110
