196

C          4.43420        0.13370        5.85270
C          4.47160       -0.86820        6.80580
C          3.58380       -2.02230        6.87120
O          2.60250       -2.25840        6.18970
C          4.12140       -2.88700        7.94610
C          3.59270       -4.05850        8.45230
Cl         2.20210       -4.77150        7.77320
C          4.22180       -4.65130        9.55560
Cl         3.62200       -6.11970       10.19640
C          5.31240       -4.02250       10.15180
Cl         6.01780       -4.72180       11.54590
C          5.83450       -2.82100        9.64370
Cl         7.07510       -2.04220       10.53630
C          5.27260       -2.28270        8.49180
C          5.54650       -1.05610        7.74710
C          6.68710       -0.28090        7.83400
C          6.76550        1.06140        7.42200
N          6.87290        2.18660        7.20630
C          7.95550       -0.75980        8.20920
N          9.04460       -1.11090        8.31590
C          3.57170        0.34090        4.78560
C          3.73720        1.39610        3.84580
N          4.77650        2.28940        3.79100
C          6.11860        1.95020        3.99660
C          7.02170        2.90570        4.46650
C          8.34140        2.57170        4.67410
C          8.78690        1.27060        4.45660
S         10.48310        0.94100        4.79610
C         10.53850       -0.86120        5.01000
C          7.89430        0.32010        3.97110
C          6.58060        0.66160        3.72740
C          4.42570        3.62740        3.50700
C          3.38900        4.21310        4.22940
C          3.03830        5.52670        4.00660
C          3.72020        6.26950        3.05180
S          3.31560        7.96530        2.73790
C          3.02880        8.58540        4.42590
C          4.73650        5.68000        2.30700
C          5.09320        4.36680        2.53510
C          2.65630        1.44690        2.95080
S          2.30500        2.38420        1.53000
C          0.87270        1.41650        1.23440
C          0.69930        0.41300        2.17790
N         -0.30330       -0.54490        2.14710
C         -0.77410       -1.03890        3.37220
C         -0.95000       -0.16850        4.44970
C         -1.35080       -0.65140        5.67520
C         -1.58770       -2.01160        5.85310
S         -2.07240       -2.54180        7.46550
C         -1.62480       -4.30160        7.46500
C         -1.45110       -2.87480        4.77400
C         -1.04380       -2.39300        3.54620
C         -0.63530       -1.19280        0.94710
C          0.35190       -1.54510        0.02840
C          0.02000       -2.17330       -1.15550
C         -1.31040       -2.43090       -1.45750
S         -1.82250       -3.11910       -3.00800
C         -0.54670       -4.38140       -3.31280
C         -2.29740       -2.10900       -0.53380
C         -1.96240       -1.51280        0.66290
C          1.71400        0.44820        3.15820
S          2.10670       -0.59640        4.47350
C         -0.00270        1.58560        0.11410
C         -1.38750        1.59890        0.22130
N         -2.02360        1.94470        1.39680
C         -1.54300        3.01880        2.17260
C         -1.97530        3.15620        3.49200
C         -1.58940        4.24320        4.24930
C         -0.76660        5.22070        3.70560
S         -0.35850        6.63850        4.68850
C         -0.45320        7.96660        3.44450
C         -0.30590        5.07920        2.40510
C         -0.69950        3.99710        1.64640
C         -3.41980        1.67130        1.53640
C         -4.35150        2.42510        0.82810
C         -5.69790        2.16960        0.96860
C         -6.13890        1.16580        1.83020
S         -7.87990        0.92680        1.91840
C         -8.07960       -0.45770        3.07500
C         -5.21050        0.44080        2.56640
C         -3.85890        0.69820        2.42130
C         -1.98320        1.26380       -1.01750
S         -3.56770        0.79040       -1.50910
C         -2.99290        0.45340       -3.12670
C         -1.65280        0.77770       -3.29770
N         -1.02910        0.85540       -4.55760
C         -0.20260       -0.16450       -5.03800
C         -0.24040       -0.51830       -6.38780
C          0.53740       -1.54950       -6.87610
C          1.38760       -2.24120       -6.02490
S          2.40790       -3.59840       -6.51940
C          2.29990       -3.58780       -8.33010
C          1.44750       -1.87640       -4.68220
C          0.65520       -0.86210       -4.19110
C         -1.23510        2.02240       -5.31110
C         -0.22090        2.49170       -6.14480
C         -0.38360        3.64130       -6.89210
C         -1.56560        4.36400       -6.81030
S         -1.89420        5.84820       -7.70970
C         -0.41390        6.07560       -8.73580
C         -2.57210        3.91640       -5.95940
C         -2.41250        2.76490       -5.21980
C         -1.07610        1.16480       -2.07080
S          0.54910        1.44210       -1.54680
C         -3.88140       -0.16370       -4.05060
C         -3.55750       -0.83970       -5.20730
C         -4.66050       -1.42340       -5.84530
O         -4.64580       -2.24260       -6.89300
C         -3.40870       -2.56000       -7.51040
C         -2.62760       -3.61510       -6.73510
C         -5.87510       -1.15280       -5.18290
S         -5.57850       -0.24470       -3.72060
C         -7.17610       -1.57800       -5.47280
C         -7.68170       -1.88690       -6.71370
C         -7.13350       -1.39610       -7.98570
O         -6.14730       -0.71610       -8.16430
C         -8.14040       -1.76870       -9.01450
C         -8.13450       -1.48150      -10.36680
Cl        -6.78250       -0.75790      -11.11630
C         -9.27280       -1.79960      -11.12060
Cl        -9.29320       -1.50250      -12.80500
C        -10.40280       -2.31660      -10.49130
Cl       -11.81760       -2.60050      -11.41120
C        -10.40760       -2.59550       -9.11480
Cl       -11.88870       -3.06070       -8.38500
C         -9.24180       -2.38740       -8.38940
C         -8.90060       -2.61260       -6.98580
C         -9.45380       -3.53380       -6.13220
C         -9.00740       -3.72370       -4.80540
N         -8.70200       -3.93850       -3.71960
C        -10.38820       -4.53710       -6.46250
N        -11.06220       -5.44970       -6.63870
H          5.22010        0.87390        5.92750
H          6.68060        3.90400        4.68910
H          9.03480        3.30890        5.04540
H         11.53780       -1.07830        5.37370
H         10.37690       -1.36450        4.06130
H          9.80640       -1.15980        5.75440
H          8.21820       -0.68790        3.76580
H          5.90090       -0.08050        3.33480
H          2.86680        3.63640        4.97860
H          2.23760        5.96350        4.58120
H          2.99000        9.66680        4.34190
H          3.86230        8.28870        5.05460
H          2.09150        8.21170        4.82550
H          5.24740        6.26160        1.55550
H          5.89140        3.91060        1.96960
H         -0.75430        0.88610        4.32110
H         -1.47440        0.01910        6.51140
H         -0.61870       -4.41180        7.07280
H         -1.65690       -4.61670        8.50330
H         -2.34110       -4.87760        6.88580
H         -1.64510       -3.92980        4.88090
H         -0.91710       -3.07500        2.71880
H          1.38730       -1.33130        0.25010
H          0.80110       -2.46730       -1.83780
H         -0.28680       -4.85330       -2.37110
H          0.32280       -3.93390       -3.78440
H         -0.99430       -5.10800       -3.98340
H         -3.32880       -2.32830       -0.76230
H         -2.73620       -1.28320        1.37660
H         -2.64610        2.42630        3.91720
H         -1.94010        4.34830        5.26450
H          0.43680        7.97860        2.82180
H         -0.52800        8.89620        4.00000
H         -1.34450        7.81890        2.84320
H          0.34830        5.81660        1.96720
H         -0.36130        3.93620        0.62360
H         -4.01460        3.21520        0.17350
H         -6.42490        2.74370        0.41590
H         -7.56940       -1.33670        2.69270
H         -7.71230       -0.17980        4.05860
H         -9.14790       -0.64440        3.12150
H         -5.52100       -0.32230        3.26170
H         -3.14470        0.14970        3.01820
H         -0.88450        0.02640       -7.06360
H          0.46750       -1.80270       -7.92190
H          1.29920       -3.86390       -8.65050
H          3.01160       -4.33400       -8.66950
H          2.58060       -2.60950       -8.70860
H          2.14420       -2.38890       -4.03430
H          0.71470       -0.58670       -3.15190
H          0.71310        1.95270       -6.20380
H          0.42780        3.96550       -7.52360
H         -0.60590        6.96290       -9.33100
H          0.45630        6.23630       -8.10600
H         -0.27880        5.21720       -9.38740
H         -3.48880        4.48120       -5.88820
H         -3.21300        2.44520       -4.57200
H         -2.54450       -0.93850       -5.54290
H         -2.81260       -1.65250       -7.65080
H         -3.69260       -2.94550       -8.49320
H         -1.71300       -3.85650       -7.26910
H         -3.22580       -4.51690       -6.63280
H         -2.36890       -3.25880       -5.74100
H         -7.85070       -1.61610       -4.62570
