
  xtb     02042201583D
 energy: -268.131807111634 gnorm: 0.000765196889 xtb: 6.4.1 (unknown)
135149  0     0  0            999 V2000
   -0.7634    7.5600    2.2209 C   0  0  0  0  0  0  0  0  0  0  0  0
   -1.8535    8.1242    2.8174 C   0  0  0  0  0  0  0  0  0  0  0  0
   -2.7521    7.4273    3.7625 C   0  0  0  0  0  0  0  0  0  0  0  0
   -2.5729    6.3637    4.3091 O   0  0  0  0  0  0  0  0  0  0  0  0
   -3.8596    8.3811    4.0192 C   0  0  0  0  0  0  0  0  0  0  0  0
   -5.0448    8.1599    4.6953 C   0  0  0  0  0  0  0  0  0  0  0  0
   -5.3559    6.6754    5.4768 Cl  0  0  0  0  0  0  0  0  0  0  0  0
   -6.0048    9.1810    4.7050 C   0  0  0  0  0  0  0  0  0  0  0  0
   -7.4747    8.9643    5.5503 Cl  0  0  0  0  0  0  0  0  0  0  0  0
   -5.7796   10.3550    3.9882 C   0  0  0  0  0  0  0  0  0  0  0  0
   -7.0033   11.5498    3.9376 Cl  0  0  0  0  0  0  0  0  0  0  0  0
   -4.5778   10.5693    3.2938 C   0  0  0  0  0  0  0  0  0  0  0  0
   -4.4595   11.9562    2.2923 Cl  0  0  0  0  0  0  0  0  0  0  0  0
   -3.5823    9.6018    3.3721 C   0  0  0  0  0  0  0  0  0  0  0  0
   -2.2436    9.5222    2.7889 C   0  0  0  0  0  0  0  0  0  0  0  0
   -1.4538   10.5775    2.4136 C   0  0  0  0  0  0  0  0  0  0  0  0
   -1.6738   11.9287    2.7617 C   0  0  0  0  0  0  0  0  0  0  0  0
   -1.6968   13.0261    3.0968 N   0  0  0  0  0  0  0  0  0  0  0  0
   -0.2138   10.4691    1.7494 C   0  0  0  0  0  0  0  0  0  0  0  0
    0.7803   10.4993    1.1744 N   0  0  0  0  0  0  0  0  0  0  0  0
   -0.5373    6.1679    2.0650 C   0  0  0  0  0  0  0  0  0  0  0  0
    0.7757    5.6589    1.9561 C   0  0  0  0  0  0  0  0  0  0  0  0
    1.0634    4.2557    1.7431 C   0  0  0  0  0  0  0  0  0  0  0  0
    2.3760    4.0233    1.6701 N   0  0  0  0  0  0  0  0  0  0  0  0
    3.1641    5.4068    1.8573 S   0  0  0  0  0  4  0  0  0  0  0  0
    1.8958    6.3798    2.0280 N   0  0  0  0  0  0  0  0  0  0  0  0
    0.0451    3.3187    1.4920 C   0  0  0  0  0  0  0  0  0  0  0  0
   -1.2665    3.8162    1.6190 C   0  0  0  0  0  0  0  0  0  0  0  0
   -2.3825    3.0906    1.4937 N   0  0  0  0  0  0  0  0  0  0  0  0
   -3.6485    4.0565    1.6700 S   0  0  0  0  0  0  0  0  0  0  0  0
   -2.8700    5.4347    1.9032 N   0  0  0  0  0  0  0  0  0  0  0  0
   -1.5563    5.2056    1.9022 C   0  0  0  0  0  0  0  0  0  0  0  0
    0.3091    2.0017    1.0074 C   0  0  0  0  0  0  0  0  0  0  0  0
   -0.3297    1.3837   -0.0684 C   0  0  0  0  0  0  0  0  0  0  0  0
   -1.1957    2.0019   -0.9444 N   0  0  0  0  0  0  0  0  0  0  0  0
   -2.2318    1.2534   -1.5101 C   0  0  0  0  0  0  0  0  0  0  0  0
   -2.8602    0.2530   -0.7650 C   0  0  0  0  0  0  0  0  0  0  0  0
   -3.8526   -0.5117   -1.3314 C   0  0  0  0  0  0  0  0  0  0  0  0
   -4.2516   -0.2906   -2.6495 C   0  0  0  0  0  0  0  0  0  0  0  0
   -5.5201   -1.3472   -3.2657 S   0  0  0  0  0  0  0  0  0  0  0  0
   -5.8167   -0.7497   -4.9536 C   0  0  0  0  0  0  0  0  0  0  0  0
   -3.6474    0.7219   -3.3848 C   0  0  0  0  0  0  0  0  0  0  0  0
   -2.6441    1.4841   -2.8197 C   0  0  0  0  0  0  0  0  0  0  0  0
   -1.0626    3.3736   -1.2065 C   0  0  0  0  0  0  0  0  0  0  0  0
    0.2042    3.9446   -1.3125 C   0  0  0  0  0  0  0  0  0  0  0  0
    0.3589    5.3128   -1.3937 C   0  0  0  0  0  0  0  0  0  0  0  0
   -0.7567    6.1430   -1.3757 C   0  0  0  0  0  0  0  0  0  0  0  0
   -0.6733    7.9008   -1.3345 S   0  0  0  0  0  0  0  0  0  0  0  0
    1.0918    8.2466   -1.0934 C   0  0  0  0  0  0  0  0  0  0  0  0
   -2.0273    5.5681   -1.3819 C   0  0  0  0  0  0  0  0  0  0  0  0
   -2.1812    4.2013   -1.3058 C   0  0  0  0  0  0  0  0  0  0  0  0
    0.1530    0.0648   -0.2418 C   0  0  0  0  0  0  0  0  0  0  0  0
   -0.1824   -1.2111   -1.3565 S   0  0  0  0  0  0  0  0  0  0  0  0
    1.0490   -2.2156   -0.6237 C   0  0  0  0  0  0  0  0  0  0  0  0
    1.6777   -1.5900    0.4422 C   0  0  0  0  0  0  0  0  0  0  0  0
    2.5857   -2.1796    1.3077 N   0  0  0  0  0  0  0  0  0  0  0  0
    3.7387   -2.7859    0.7789 C   0  0  0  0  0  0  0  0  0  0  0  0
    4.5449   -2.0637   -0.0980 C   0  0  0  0  0  0  0  0  0  0  0  0
    5.6473   -2.6599   -0.6630 C   0  0  0  0  0  0  0  0  0  0  0  0
    5.9471   -3.9936   -0.3819 C   0  0  0  0  0  0  0  0  0  0  0  0
    7.2568   -4.6977   -1.3222 S   0  0  0  0  0  0  0  0  0  0  0  0
    7.4661   -6.3659   -0.6500 C   0  0  0  0  0  0  0  0  0  0  0  0
    5.1675   -4.7042    0.5236 C   0  0  0  0  0  0  0  0  0  0  0  0
    4.0742   -4.0952    1.1074 C   0  0  0  0  0  0  0  0  0  0  0  0
    2.3697   -2.1240    2.6805 C   0  0  0  0  0  0  0  0  0  0  0  0
    3.4454   -2.1975    3.5701 C   0  0  0  0  0  0  0  0  0  0  0  0
    3.2302   -2.1283    4.9262 C   0  0  0  0  0  0  0  0  0  0  0  0
    1.9405   -1.9763    5.4359 C   0  0  0  0  0  0  0  0  0  0  0  0
    1.7948   -1.8883    7.1899 S   0  0  0  0  0  0  0  0  0  0  0  0
    0.0485   -1.4764    7.4654 C   0  0  0  0  0  0  0  0  0  0  0  0
    0.8665   -1.9163    4.5571 C   0  0  0  0  0  0  0  0  0  0  0  0
    1.0798   -1.9949    3.1961 C   0  0  0  0  0  0  0  0  0  0  0  0
    1.1589   -0.2853    0.6428 C   0  0  0  0  0  0  0  0  0  0  0  0
    1.5671    1.0114    1.7148 S   0  0  0  0  0  0  0  0  0  0  0  0
    1.1346   -3.5854   -1.0727 C   0  0  0  0  0  0  0  0  0  0  0  0
    0.0012   -4.4111   -0.9525 C   0  0  0  0  0  0  0  0  0  0  0  0
    0.0019   -5.8248   -1.2841 C   0  0  0  0  0  0  0  0  0  0  0  0
   -1.1945   -6.3702   -1.0529 N   0  0  0  0  0  0  0  0  0  0  0  0
   -2.1987   -5.2472   -0.4844 S   0  0  0  0  0  4  0  0  0  0  0  0
   -1.1838   -4.0105   -0.4833 N   0  0  0  0  0  0  0  0  0  0  0  0
    1.1676   -6.4771   -1.7373 C   0  0  0  0  0  0  0  0  0  0  0  0
    2.2474   -5.6016   -2.0145 C   0  0  0  0  0  0  0  0  0  0  0  0
    3.3413   -5.9346   -2.7020 N   0  0  0  0  0  0  0  0  0  0  0  0
    4.2435   -4.6328   -2.9378 S   0  0  0  0  0  0  0  0  0  0  0  0
    3.3185   -3.5681   -2.1782 N   0  0  0  0  0  0  0  0  0  0  0  0
    2.2334   -4.1884   -1.7012 C   0  0  0  0  0  0  0  0  0  0  0  0
    1.3375   -7.8702   -1.9722 C   0  0  0  0  0  0  0  0  0  0  0  0
    2.5515   -8.5221   -1.9424 C   0  0  0  0  0  0  0  0  0  0  0  0
    3.7284   -8.0519   -1.3517 C   0  0  0  0  0  0  0  0  0  0  0  0
    4.6281   -7.6907   -0.7352 N   0  0  0  0  0  0  0  0  0  0  0  0
    2.3552   -9.8538   -2.4560 C   0  0  0  0  0  0  0  0  0  0  0  0
    3.3066  -10.8208   -2.6540 C   0  0  0  0  0  0  0  0  0  0  0  0
    4.6641  -10.6006   -2.3624 C   0  0  0  0  0  0  0  0  0  0  0  0
    5.7818  -10.4538   -2.1464 N   0  0  0  0  0  0  0  0  0  0  0  0
    2.9698  -12.0797   -3.1878 C   0  0  0  0  0  0  0  0  0  0  0  0
    2.7039  -13.1091   -3.6183 N   0  0  0  0  0  0  0  0  0  0  0  0
    1.0706  -10.0364   -2.7755 O   0  0  0  0  0  0  0  0  0  0  0  0
    0.2968   -8.8849   -2.3878 C   0  0  0  0  0  0  0  0  0  0  0  0
   -0.5306   -8.4203   -3.5819 C   0  0  0  0  0  0  0  0  0  0  0  0
   -0.5934   -9.3261   -1.2212 C   0  0  0  0  0  0  0  0  0  0  0  0
    0.0106    8.1978    1.8153 H   0  0  0  0  0  0  0  0  0  0  0  0
   -2.5747    0.0987    0.2637 H   0  0  0  0  0  0  0  0  0  0  0  0
   -4.3382   -1.2869   -0.7593 H   0  0  0  0  0  0  0  0  0  0  0  0
   -6.1436    0.2857   -4.9290 H   0  0  0  0  0  0  0  0  0  0  0  0
   -4.9196   -0.8688   -5.5540 H   0  0  0  0  0  0  0  0  0  0  0  0
   -6.6099   -1.3764   -5.3492 H   0  0  0  0  0  0  0  0  0  0  0  0
   -3.9392    0.9215   -4.4030 H   0  0  0  0  0  0  0  0  0  0  0  0
   -2.1673    2.2592   -3.4011 H   0  0  0  0  0  0  0  0  0  0  0  0
    1.0780    3.3095   -1.3040 H   0  0  0  0  0  0  0  0  0  0  0  0
    1.3539    5.7215   -1.4651 H   0  0  0  0  0  0  0  0  0  0  0  0
    1.6463    8.0064   -1.9959 H   0  0  0  0  0  0  0  0  0  0  0  0
    1.1543    9.3111   -0.8878 H   0  0  0  0  0  0  0  0  0  0  0  0
    1.4627    7.6940   -0.2352 H   0  0  0  0  0  0  0  0  0  0  0  0
   -2.8923    6.2125   -1.4142 H   0  0  0  0  0  0  0  0  0  0  0  0
   -3.1695    3.7662   -1.2785 H   0  0  0  0  0  0  0  0  0  0  0  0
    4.2904   -1.0426   -0.3359 H   0  0  0  0  0  0  0  0  0  0  0  0
    6.2743   -2.1152   -1.3513 H   0  0  0  0  0  0  0  0  0  0  0  0
    7.7142   -6.3026    0.4053 H   0  0  0  0  0  0  0  0  0  0  0  0
    8.2951   -6.8000   -1.2002 H   0  0  0  0  0  0  0  0  0  0  0  0
    6.5655   -6.9533   -0.8143 H   0  0  0  0  0  0  0  0  0  0  0  0
    5.3778   -5.7365    0.7477 H   0  0  0  0  0  0  0  0  0  0  0  0
    3.4537   -4.6470    1.7985 H   0  0  0  0  0  0  0  0  0  0  0  0
    4.4494   -2.2951    3.1868 H   0  0  0  0  0  0  0  0  0  0  0  0
    4.0616   -2.1782    5.6122 H   0  0  0  0  0  0  0  0  0  0  0  0
   -0.2015   -0.5611    6.9372 H   0  0  0  0  0  0  0  0  0  0  0  0
   -0.0500   -1.3240    8.5356 H   0  0  0  0  0  0  0  0  0  0  0  0
   -0.5857   -2.3010    7.1529 H   0  0  0  0  0  0  0  0  0  0  0  0
   -0.1445   -1.8194    4.9182 H   0  0  0  0  0  0  0  0  0  0  0  0
    0.2332   -1.9692    2.5261 H   0  0  0  0  0  0  0  0  0  0  0  0
   -1.1554   -9.2392   -3.9274 H   0  0  0  0  0  0  0  0  0  0  0  0
    0.1216   -8.1080   -4.3948 H   0  0  0  0  0  0  0  0  0  0  0  0
   -1.1582   -7.5877   -3.2805 H   0  0  0  0  0  0  0  0  0  0  0  0
   -1.2284  -10.1422   -1.5548 H   0  0  0  0  0  0  0  0  0  0  0  0
    0.0233   -9.6764   -0.3955 H   0  0  0  0  0  0  0  0  0  0  0  0
   -1.2035   -8.4927   -0.8908 H   0  0  0  0  0  0  0  0  0  0  0  0
  1  2  2  0  0  0  0
  2  3  1  0  0  0  0
  3  4  2  0  0  0  0
  3  5  1  0  0  0  0
  5  6  2  0  0  0  0
  6  7  1  0  0  0  0
  6  8  1  0  0  0  0
  8  9  1  0  0  0  0
  8 10  2  0  0  0  0
 10 11  1  0  0  0  0
 10 12  1  0  0  0  0
 12 13  1  0  0  0  0
 12 14  2  0  0  0  0
 14 15  1  0  0  0  0
 15 16  2  0  0  0  0
 16 17  1  0  0  0  0
 17 18  3  0  0  0  0
 16 19  1  0  0  0  0
 19 20  3  0  0  0  0
  1 21  1  0  0  0  0
 21 22  2  0  0  0  0
 22 23  1  0  0  0  0
 23 24  1  0  0  0  0
 24 25  2  0  0  0  0
 25 26  2  0  0  0  0
 23 27  2  0  0  0  0
 27 28  1  0  0  0  0
 28 29  2  0  0  0  0
 29 30  1  0  0  0  0
 30 31  1  0  0  0  0
 31 32  2  0  0  0  0
 27 33  1  0  0  0  0
 33 34  2  0  0  0  0
 34 35  1  0  0  0  0
 35 36  1  0  0  0  0
 36 37  2  0  0  0  0
 37 38  1  0  0  0  0
 38 39  2  0  0  0  0
 39 40  1  0  0  0  0
 40 41  1  0  0  0  0
 39 42  1  0  0  0  0
 42 43  2  0  0  0  0
 35 44  1  0  0  0  0
 44 45  2  0  0  0  0
 45 46  1  0  0  0  0
 46 47  2  0  0  0  0
 47 48  1  0  0  0  0
 48 49  1  0  0  0  0
 47 50  1  0  0  0  0
 50 51  2  0  0  0  0
 34 52  1  0  0  0  0
 52 53  1  0  0  0  0
 53 54  1  0  0  0  0
 54 55  2  0  0  0  0
 55 56  1  0  0  0  0
 56 57  1  0  0  0  0
 57 58  2  0  0  0  0
 58 59  1  0  0  0  0
 59 60  2  0  0  0  0
 60 61  1  0  0  0  0
 61 62  1  0  0  0  0
 60 63  1  0  0  0  0
 63 64  2  0  0  0  0
 56 65  1  0  0  0  0
 65 66  2  0  0  0  0
 66 67  1  0  0  0  0
 67 68  2  0  0  0  0
 68 69  1  0  0  0  0
 69 70  1  0  0  0  0
 68 71  1  0  0  0  0
 71 72  2  0  0  0  0
 55 73  1  0  0  0  0
 73 74  1  0  0  0  0
 54 75  1  0  0  0  0
 75 76  2  0  0  0  0
 76 77  1  0  0  0  0
 77 78  1  0  0  0  0
 78 79  2  0  0  0  0
 79 80  2  0  0  0  0
 77 81  2  0  0  0  0
 81 82  1  0  0  0  0
 82 83  2  0  0  0  0
 83 84  1  0  0  0  0
 84 85  1  0  0  0  0
 85 86  2  0  0  0  0
 81 87  1  0  0  0  0
 87 88  2  0  0  0  0
 88 89  1  0  0  0  0
 89 90  3  0  0  0  0
 88 91  1  0  0  0  0
 91 92  2  0  0  0  0
 92 93  1  0  0  0  0
 93 94  3  0  0  0  0
 92 95  1  0  0  0  0
 95 96  3  0  0  0  0
 91 97  1  0  0  0  0
 97 98  1  0  0  0  0
 98 99  1  0  0  0  0
 98100  1  0  0  0  0
 15  2  1  0  0  0  0
 32 21  1  0  0  0  0
 74 33  1  0  0  0  0
 86 75  1  0  0  0  0
 98 87  1  0  0  0  0
 14  5  1  0  0  0  0
 26 22  1  0  0  0  0
 32 28  1  0  0  0  0
 43 36  1  0  0  0  0
 51 44  1  0  0  0  0
 73 52  2  0  0  0  0
 80 76  1  0  0  0  0
 86 82  1  0  0  0  0
 64 57  1  0  0  0  0
 72 65  1  0  0  0  0
  1101  1  0  0  0  0
 37102  1  0  0  0  0
 38103  1  0  0  0  0
 41104  1  0  0  0  0
 41105  1  0  0  0  0
 41106  1  0  0  0  0
 42107  1  0  0  0  0
 43108  1  0  0  0  0
 45109  1  0  0  0  0
 46110  1  0  0  0  0
 49111  1  0  0  0  0
 49112  1  0  0  0  0
 49113  1  0  0  0  0
 50114  1  0  0  0  0
 51115  1  0  0  0  0
 58116  1  0  0  0  0
 59117  1  0  0  0  0
 62118  1  0  0  0  0
 62119  1  0  0  0  0
 62120  1  0  0  0  0
 63121  1  0  0  0  0
 64122  1  0  0  0  0
 66123  1  0  0  0  0
 67124  1  0  0  0  0
 70125  1  0  0  0  0
 70126  1  0  0  0  0
 70127  1  0  0  0  0
 71128  1  0  0  0  0
 72129  1  0  0  0  0
 99130  1  0  0  0  0
 99131  1  0  0  0  0
 99132  1  0  0  0  0
100133  1  0  0  0  0
100134  1  0  0  0  0
100135  1  0  0  0  0
M  END
