
  xtb     02112200063D
 energy: -262.909340462046 gnorm: 0.000544806790 xtb: 6.4.1 (unknown)
122135  0     0  0            999 V2000
    7.6525   -2.5140    5.5447 C   0  0  0  0  0  0  0  0  0  0  0  0
    7.5911   -3.7928    5.9815 C   0  0  0  0  0  0  0  0  0  0  0  0
    6.9564   -4.9184    5.2461 C   0  0  0  0  0  0  0  0  0  0  0  0
    6.6783   -4.9821    4.0729 O   0  0  0  0  0  0  0  0  0  0  0  0
    6.6413   -5.9224    6.2876 C   0  0  0  0  0  0  0  0  0  0  0  0
    5.9003   -7.0854    6.1548 C   0  0  0  0  0  0  0  0  0  0  0  0
    5.3095   -7.5968    4.6390 Cl  0  0  0  0  0  0  0  0  0  0  0  0
    5.6329   -7.8360    7.3087 C   0  0  0  0  0  0  0  0  0  0  0  0
    4.7508   -9.2946    7.1904 Cl  0  0  0  0  0  0  0  0  0  0  0  0
    6.0514   -7.3748    8.5574 C   0  0  0  0  0  0  0  0  0  0  0  0
    5.6365   -8.2623    9.9578 Cl  0  0  0  0  0  0  0  0  0  0  0  0
    6.7914   -6.1881    8.6877 C   0  0  0  0  0  0  0  0  0  0  0  0
    7.1257   -5.6005   10.2627 Cl  0  0  0  0  0  0  0  0  0  0  0  0
    7.1393   -5.4919    7.5360 C   0  0  0  0  0  0  0  0  0  0  0  0
    7.9030   -4.2687    7.3266 C   0  0  0  0  0  0  0  0  0  0  0  0
    8.9032   -3.7499    8.0974 C   0  0  0  0  0  0  0  0  0  0  0  0
    9.4904   -4.3455    9.2362 C   0  0  0  0  0  0  0  0  0  0  0  0
   10.0954   -4.7806   10.1080 N   0  0  0  0  0  0  0  0  0  0  0  0
    9.6179   -2.5826    7.7345 C   0  0  0  0  0  0  0  0  0  0  0  0
   10.2347   -1.6455    7.4969 N   0  0  0  0  0  0  0  0  0  0  0  0
    7.3757   -2.0557    4.2010 C   0  0  0  0  0  0  0  0  0  0  0  0
    6.5848   -0.9065    4.0331 C   0  0  0  0  0  0  0  0  0  0  0  0
    6.2794   -0.4961    2.7595 C   0  0  0  0  0  0  0  0  0  0  0  0
    5.3762    0.6036    2.3223 C   0  0  0  0  0  0  0  0  0  0  0  0
    4.7739    1.3840    3.0185 O   0  0  0  0  0  0  0  0  0  0  0  0
    5.3675    0.4961    0.8411 C   0  0  0  0  0  0  0  0  0  0  0  0
    6.2495   -0.5237    0.4320 C   0  0  0  0  0  0  0  0  0  0  0  0
    6.7948   -1.1608    1.6270 C   0  0  0  0  0  0  0  0  0  0  0  0
    7.6187   -2.2587    1.7909 C   0  0  0  0  0  0  0  0  0  0  0  0
    7.8885   -2.7072    3.0760 C   0  0  0  0  0  0  0  0  0  0  0  0
    6.4114   -0.7923   -0.9134 C   0  0  0  0  0  0  0  0  0  0  0  0
    5.6094   -0.1215   -1.8312 C   0  0  0  0  0  0  0  0  0  0  0  0
    4.6596    0.8059   -1.4161 C   0  0  0  0  0  0  0  0  0  0  0  0
    4.5759    1.1607   -0.0630 C   0  0  0  0  0  0  0  0  0  0  0  0
    3.5788    1.2535   -2.3039 C   0  0  0  0  0  0  0  0  0  0  0  0
    3.6936    1.8076   -3.5569 C   0  0  0  0  0  0  0  0  0  0  0  0
    4.9088    2.0630   -4.0703 F   0  0  0  0  0  0  0  0  0  0  0  0
    2.5625    2.1347   -4.3381 C   0  0  0  0  0  0  0  0  0  0  0  0
    2.7689    2.6863   -5.5459 F   0  0  0  0  0  0  0  0  0  0  0  0
    1.2817    1.8870   -3.9055 C   0  0  0  0  0  0  0  0  0  0  0  0
    1.1315    1.3242   -2.6102 C   0  0  0  0  0  0  0  0  0  0  0  0
   -0.0869    1.1924   -2.0755 N   0  0  0  0  0  0  0  0  0  0  0  0
   -0.2527    0.6524   -0.8874 C   0  0  0  0  0  0  0  0  0  0  0  0
   -1.5943    0.7683   -0.3875 C   0  0  0  0  0  0  0  0  0  0  0  0
   -2.7954    1.2122   -1.5706 S   0  0  0  0  0  0  0  0  0  0  0  0
   -4.0304    1.2958   -0.3705 C   0  0  0  0  0  0  0  0  0  0  0  0
   -5.4463    1.5974   -0.7173 C   0  0  0  0  0  0  0  0  0  0  0  0
   -6.0767    0.4445   -1.5015 C   0  0  0  0  0  0  0  0  0  0  0  0
   -3.5003    1.0116    0.8603 C   0  0  0  0  0  0  0  0  0  0  0  0
   -2.1274    0.7158    0.8744 C   0  0  0  0  0  0  0  0  0  0  0  0
   -4.2391    1.0194    1.9837 F   0  0  0  0  0  0  0  0  0  0  0  0
    0.8838    0.0638   -0.2278 C   0  0  0  0  0  0  0  0  0  0  0  0
    2.0890    0.3186   -0.6906 N   0  0  0  0  0  0  0  0  0  0  0  0
    2.2654    0.9911   -1.8310 C   0  0  0  0  0  0  0  0  0  0  0  0
    0.9051   -0.8545    0.8768 C   0  0  0  0  0  0  0  0  0  0  0  0
   -0.0260   -1.6767    1.4557 C   0  0  0  0  0  0  0  0  0  0  0  0
    0.5626   -2.5107    2.4220 C   0  0  0  0  0  0  0  0  0  0  0  0
   -0.1549   -3.4069    3.1224 F   0  0  0  0  0  0  0  0  0  0  0  0
    1.9110   -2.3499    2.5967 C   0  0  0  0  0  0  0  0  0  0  0  0
    2.8352   -3.0977    3.4943 C   0  0  0  0  0  0  0  0  0  0  0  0
    3.9168   -3.8112    2.6821 C   0  0  0  0  0  0  0  0  0  0  0  0
    2.4983   -1.1342    1.5257 S   0  0  0  0  0  0  0  0  0  0  0  0
    0.0199    2.1980   -4.5890 C   0  0  0  0  0  0  0  0  0  0  0  0
   -0.9478    1.1852   -4.6361 C   0  0  0  0  0  0  0  0  0  0  0  0
   -2.2412    1.5273   -4.9423 C   0  0  0  0  0  0  0  0  0  0  0  0
   -3.4551    0.6725   -4.9228 C   0  0  0  0  0  0  0  0  0  0  0  0
   -3.5257   -0.5220   -4.7653 O   0  0  0  0  0  0  0  0  0  0  0  0
   -4.5770    1.6356   -5.0935 C   0  0  0  0  0  0  0  0  0  0  0  0
   -4.0604    2.9359   -5.2559 C   0  0  0  0  0  0  0  0  0  0  0  0
   -2.6029    2.8642   -5.1999 C   0  0  0  0  0  0  0  0  0  0  0  0
   -1.6267    3.8382   -5.2723 C   0  0  0  0  0  0  0  0  0  0  0  0
   -0.3141    3.4943   -4.9632 C   0  0  0  0  0  0  0  0  0  0  0  0
   -4.9228    4.0124   -5.3416 C   0  0  0  0  0  0  0  0  0  0  0  0
   -6.2845    3.7860   -5.2051 C   0  0  0  0  0  0  0  0  0  0  0  0
   -6.7967    2.5003   -5.0339 C   0  0  0  0  0  0  0  0  0  0  0  0
   -5.9296    1.4004   -5.0244 C   0  0  0  0  0  0  0  0  0  0  0  0
   -8.2210    2.2688   -4.8482 C   0  0  0  0  0  0  0  0  0  0  0  0
   -8.9608    2.8675   -3.8935 C   0  0  0  0  0  0  0  0  0  0  0  0
   -8.4080    3.7384   -2.8172 C   0  0  0  0  0  0  0  0  0  0  0  0
   -7.2493    3.8836   -2.5123 O   0  0  0  0  0  0  0  0  0  0  0  0
   -9.5903    4.3457   -2.1671 C   0  0  0  0  0  0  0  0  0  0  0  0
   -9.6242    5.3379   -1.2008 C   0  0  0  0  0  0  0  0  0  0  0  0
   -8.1937    5.9267   -0.4829 Cl  0  0  0  0  0  0  0  0  0  0  0  0
  -10.8716    5.8623   -0.8335 C   0  0  0  0  0  0  0  0  0  0  0  0
  -10.9667    7.0714    0.3695 Cl  0  0  0  0  0  0  0  0  0  0  0  0
  -12.0312    5.4302   -1.4797 C   0  0  0  0  0  0  0  0  0  0  0  0
  -13.5274    6.1550   -1.0835 Cl  0  0  0  0  0  0  0  0  0  0  0  0
  -11.9912    4.4217   -2.4560 C   0  0  0  0  0  0  0  0  0  0  0  0
  -13.4272    4.0618   -3.3201 Cl  0  0  0  0  0  0  0  0  0  0  0  0
  -10.7676    3.8289   -2.7486 C   0  0  0  0  0  0  0  0  0  0  0  0
  -10.4006    2.7474   -3.6558 C   0  0  0  0  0  0  0  0  0  0  0  0
  -11.1824    1.6992   -4.0452 C   0  0  0  0  0  0  0  0  0  0  0  0
  -10.7517    0.6648   -4.9095 C   0  0  0  0  0  0  0  0  0  0  0  0
  -10.4816   -0.1972   -5.6163 N   0  0  0  0  0  0  0  0  0  0  0  0
  -12.4642    1.3875   -3.5346 C   0  0  0  0  0  0  0  0  0  0  0  0
  -13.4528    0.9940   -3.1076 N   0  0  0  0  0  0  0  0  0  0  0  0
    7.8536   -1.7318    6.2679 H   0  0  0  0  0  0  0  0  0  0  0  0
    6.1847   -0.3813    4.8878 H   0  0  0  0  0  0  0  0  0  0  0  0
    8.0349   -2.7752    0.9400 H   0  0  0  0  0  0  0  0  0  0  0  0
    8.5334   -3.5602    3.2137 H   0  0  0  0  0  0  0  0  0  0  0  0
    7.1114   -1.5401   -1.2537 H   0  0  0  0  0  0  0  0  0  0  0  0
    5.6842   -0.3662   -2.8805 H   0  0  0  0  0  0  0  0  0  0  0  0
    3.8841    1.9177    0.2704 H   0  0  0  0  0  0  0  0  0  0  0  0
   -6.0043    1.7669    0.2060 H   0  0  0  0  0  0  0  0  0  0  0  0
   -5.4960    2.5057   -1.3232 H   0  0  0  0  0  0  0  0  0  0  0  0
   -6.1225   -0.4538   -0.8900 H   0  0  0  0  0  0  0  0  0  0  0  0
   -7.0859    0.7113   -1.8056 H   0  0  0  0  0  0  0  0  0  0  0  0
   -5.4881    0.2295   -2.3901 H   0  0  0  0  0  0  0  0  0  0  0  0
   -1.5750    0.5131    1.7728 H   0  0  0  0  0  0  0  0  0  0  0  0
   -1.0654   -1.7238    1.1901 H   0  0  0  0  0  0  0  0  0  0  0  0
    3.3105   -2.3982    4.1877 H   0  0  0  0  0  0  0  0  0  0  0  0
    2.2571   -3.8198    4.0744 H   0  0  0  0  0  0  0  0  0  0  0  0
    3.4672   -4.5387    2.0107 H   0  0  0  0  0  0  0  0  0  0  0  0
    4.4753   -3.0907    2.0879 H   0  0  0  0  0  0  0  0  0  0  0  0
    4.6155   -4.3275    3.3340 H   0  0  0  0  0  0  0  0  0  0  0  0
   -0.6934    0.1636   -4.4026 H   0  0  0  0  0  0  0  0  0  0  0  0
   -1.8737    4.8612   -5.5122 H   0  0  0  0  0  0  0  0  0  0  0  0
    0.4478    4.2597   -4.9518 H   0  0  0  0  0  0  0  0  0  0  0  0
   -4.5518    5.0162   -5.4793 H   0  0  0  0  0  0  0  0  0  0  0  0
   -6.9691    4.6205   -5.2408 H   0  0  0  0  0  0  0  0  0  0  0  0
   -6.3112    0.3977   -4.9040 H   0  0  0  0  0  0  0  0  0  0  0  0
   -8.6792    1.5589   -5.5249 H   0  0  0  0  0  0  0  0  0  0  0  0
  1  2  2  0  0  0  0
  2  3  1  0  0  0  0
  3  4  2  0  0  0  0
  3  5  1  0  0  0  0
  5  6  2  0  0  0  0
  6  7  1  0  0  0  0
  6  8  1  0  0  0  0
  8  9  1  0  0  0  0
  8 10  2  0  0  0  0
 10 11  1  0  0  0  0
 10 12  1  0  0  0  0
 12 13  1  0  0  0  0
 12 14  2  0  0  0  0
 14 15  1  0  0  0  0
 15 16  2  0  0  0  0
 16 17  1  0  0  0  0
 17 18  3  0  0  0  0
 16 19  1  0  0  0  0
 19 20  3  0  0  0  0
  1 21  1  0  0  0  0
 21 22  2  0  0  0  0
 22 23  1  0  0  0  0
 23 24  1  0  0  0  0
 24 25  2  0  0  0  0
 24 26  1  0  0  0  0
 26 27  2  0  0  0  0
 27 28  1  0  0  0  0
 28 29  1  0  0  0  0
 29 30  2  0  0  0  0
 27 31  1  0  0  0  0
 31 32  2  0  0  0  0
 32 33  1  0  0  0  0
 33 34  2  0  0  0  0
 33 35  1  0  0  0  0
 35 36  2  0  0  0  0
 36 37  1  0  0  0  0
 36 38  1  0  0  0  0
 38 39  1  0  0  0  0
 38 40  2  0  0  0  0
 40 41  1  0  0  0  0
 41 42  2  0  0  0  0
 42 43  1  0  0  0  0
 43 44  1  0  0  0  0
 44 45  1  0  0  0  0
 45 46  1  0  0  0  0
 46 47  1  0  0  0  0
 47 48  1  0  0  0  0
 46 49  2  0  0  0  0
 49 50  1  0  0  0  0
 49 51  1  0  0  0  0
 43 52  2  0  0  0  0
 52 53  1  0  0  0  0
 53 54  2  0  0  0  0
 52 55  1  0  0  0  0
 55 56  2  0  0  0  0
 56 57  1  0  0  0  0
 57 58  1  0  0  0  0
 57 59  2  0  0  0  0
 59 60  1  0  0  0  0
 60 61  1  0  0  0  0
 59 62  1  0  0  0  0
 40 63  1  0  0  0  0
 63 64  2  0  0  0  0
 64 65  1  0  0  0  0
 65 66  1  0  0  0  0
 66 67  2  0  0  0  0
 66 68  1  0  0  0  0
 68 69  2  0  0  0  0
 69 70  1  0  0  0  0
 70 71  1  0  0  0  0
 71 72  2  0  0  0  0
 69 73  1  0  0  0  0
 73 74  2  0  0  0  0
 74 75  1  0  0  0  0
 75 76  2  0  0  0  0
 75 77  1  0  0  0  0
 77 78  2  0  0  0  0
 78 79  1  0  0  0  0
 79 80  2  0  0  0  0
 79 81  1  0  0  0  0
 81 82  2  0  0  0  0
 82 83  1  0  0  0  0
 82 84  1  0  0  0  0
 84 85  1  0  0  0  0
 84 86  2  0  0  0  0
 86 87  1  0  0  0  0
 86 88  1  0  0  0  0
 88 89  1  0  0  0  0
 88 90  2  0  0  0  0
 90 91  1  0  0  0  0
 91 92  2  0  0  0  0
 92 93  1  0  0  0  0
 93 94  3  0  0  0  0
 92 95  1  0  0  0  0
 95 96  3  0  0  0  0
 15  2  1  0  0  0  0
 30 21  1  0  0  0  0
 54 35  1  0  0  0  0
 62 55  1  0  0  0  0
 72 63  1  0  0  0  0
 91 78  1  0  0  0  0
 14  5  1  0  0  0  0
 28 23  2  0  0  0  0
 54 41  1  0  0  0  0
 70 65  2  0  0  0  0
 90 81  1  0  0  0  0
 34 26  1  0  0  0  0
 50 44  2  0  0  0  0
 76 68  1  0  0  0  0
  1 97  1  0  0  0  0
 22 98  1  0  0  0  0
 29 99  1  0  0  0  0
 30100  1  0  0  0  0
 31101  1  0  0  0  0
 32102  1  0  0  0  0
 34103  1  0  0  0  0
 47104  1  0  0  0  0
 47105  1  0  0  0  0
 48106  1  0  0  0  0
 48107  1  0  0  0  0
 48108  1  0  0  0  0
 50109  1  0  0  0  0
 56110  1  0  0  0  0
 60111  1  0  0  0  0
 60112  1  0  0  0  0
 61113  1  0  0  0  0
 61114  1  0  0  0  0
 61115  1  0  0  0  0
 64116  1  0  0  0  0
 71117  1  0  0  0  0
 72118  1  0  0  0  0
 73119  1  0  0  0  0
 74120  1  0  0  0  0
 76121  1  0  0  0  0
 77122  1  0  0  0  0
M  END
