
  xtb     02042212433D
 energy: -282.654457449109 gnorm: 0.000754836649 xtb: 6.4.1 (unknown)
150163  0     0  0            999 V2000
    2.4393   -4.3932   -5.3360 C   0  0  0  0  0  0  0  0  0  0  0  0
    3.4241   -4.1338   -6.2327 C   0  0  0  0  0  0  0  0  0  0  0  0
    4.7003   -3.4531   -5.8961 C   0  0  0  0  0  0  0  0  0  0  0  0
    5.0872   -3.0834   -4.8138 O   0  0  0  0  0  0  0  0  0  0  0  0
    5.5021   -3.4967   -7.1454 C   0  0  0  0  0  0  0  0  0  0  0  0
    6.7902   -3.0341   -7.3544 C   0  0  0  0  0  0  0  0  0  0  0  0
    7.6035   -2.1115   -6.1694 Cl  0  0  0  0  0  0  0  0  0  0  0  0
    7.4152   -3.3320   -8.5731 C   0  0  0  0  0  0  0  0  0  0  0  0
    8.9875   -2.7427   -8.8932 Cl  0  0  0  0  0  0  0  0  0  0  0  0
    6.7718   -4.1450   -9.5061 C   0  0  0  0  0  0  0  0  0  0  0  0
    7.5951   -4.5861  -10.9385 Cl  0  0  0  0  0  0  0  0  0  0  0  0
    5.4681   -4.6177   -9.2862 C   0  0  0  0  0  0  0  0  0  0  0  0
    4.8128   -5.7490  -10.3954 Cl  0  0  0  0  0  0  0  0  0  0  0  0
    4.8033   -4.2264   -8.1293 C   0  0  0  0  0  0  0  0  0  0  0  0
    3.4574   -4.4998   -7.6359 C   0  0  0  0  0  0  0  0  0  0  0  0
    2.3413   -4.7706   -8.3832 C   0  0  0  0  0  0  0  0  0  0  0  0
    1.0679   -5.0298   -7.8278 C   0  0  0  0  0  0  0  0  0  0  0  0
    0.0124   -5.2840   -7.4551 N   0  0  0  0  0  0  0  0  0  0  0  0
    2.2432   -4.6757   -9.7881 C   0  0  0  0  0  0  0  0  0  0  0  0
    2.0384   -4.5148  -10.9056 N   0  0  0  0  0  0  0  0  0  0  0  0
    2.2292   -3.6670   -4.1191 C   0  0  0  0  0  0  0  0  0  0  0  0
    1.5929   -4.2503   -3.0314 C   0  0  0  0  0  0  0  0  0  0  0  0
    1.3571   -5.5720   -3.0603 F   0  0  0  0  0  0  0  0  0  0  0  0
    1.1588   -3.5390   -1.9230 C   0  0  0  0  0  0  0  0  0  0  0  0
    1.3777   -2.1766   -1.8453 C   0  0  0  0  0  0  0  0  0  0  0  0
    2.0796   -1.5334   -2.8953 C   0  0  0  0  0  0  0  0  0  0  0  0
    2.2996   -0.2008   -2.8248 N   0  0  0  0  0  0  0  0  0  0  0  0
    2.7960    0.3965   -3.8613 C   0  0  0  0  0  0  0  0  0  0  0  0
    3.0542   -0.3135   -5.0719 C   0  0  0  0  0  0  0  0  0  0  0  0
    3.4325    0.3816   -6.1371 O   0  0  0  0  0  0  0  0  0  0  0  0
    3.7028   -0.3602   -7.3277 C   0  0  0  0  0  0  0  0  0  0  0  0
    3.9104    0.6203   -8.4665 C   0  0  0  0  0  0  0  0  0  0  0  0
    2.8984   -1.6112   -5.1423 N   0  0  0  0  0  0  0  0  0  0  0  0
    2.4507   -2.2610   -4.0537 C   0  0  0  0  0  0  0  0  0  0  0  0
    0.7336   -1.3972   -0.8040 C   0  0  0  0  0  0  0  0  0  0  0  0
   -0.6366   -1.3578   -0.6397 C   0  0  0  0  0  0  0  0  0  0  0  0
   -1.5328   -2.0183   -1.4798 N   0  0  0  0  0  0  0  0  0  0  0  0
   -1.2970   -1.9431   -2.8602 C   0  0  0  0  0  0  0  0  0  0  0  0
   -0.8817   -0.7320   -3.4103 C   0  0  0  0  0  0  0  0  0  0  0  0
   -0.4995   -0.6483   -4.7334 C   0  0  0  0  0  0  0  0  0  0  0  0
   -0.5322   -1.7800   -5.5362 C   0  0  0  0  0  0  0  0  0  0  0  0
    0.0669   -1.8011   -7.1994 S   0  0  0  0  0  0  0  0  0  0  0  0
   -0.0206   -0.0505   -7.6924 C   0  0  0  0  0  0  0  0  0  0  0  0
   -1.0081   -2.9793   -5.0117 C   0  0  0  0  0  0  0  0  0  0  0  0
   -1.3909   -3.0614   -3.6895 C   0  0  0  0  0  0  0  0  0  0  0  0
   -2.5176   -2.8278   -0.9159 C   0  0  0  0  0  0  0  0  0  0  0  0
   -2.3035   -3.4259    0.3253 C   0  0  0  0  0  0  0  0  0  0  0  0
   -3.2681   -4.2307    0.8954 C   0  0  0  0  0  0  0  0  0  0  0  0
   -4.4657   -4.4554    0.2313 C   0  0  0  0  0  0  0  0  0  0  0  0
   -5.7552   -5.4677    0.9024 S   0  0  0  0  0  0  0  0  0  0  0  0
   -4.8192   -6.7208    1.8349 C   0  0  0  0  0  0  0  0  0  0  0  0
   -4.6923   -3.8480   -1.0005 C   0  0  0  0  0  0  0  0  0  0  0  0
   -3.7310   -3.0425   -1.5701 C   0  0  0  0  0  0  0  0  0  0  0  0
   -0.9976   -0.4842    0.4116 C   0  0  0  0  0  0  0  0  0  0  0  0
   -2.4985    0.0117    1.0994 S   0  0  0  0  0  0  0  0  0  0  0  0
   -1.6480    1.0630    2.2249 C   0  0  0  0  0  0  0  0  0  0  0  0
   -0.2675    1.0099    2.0735 C   0  0  0  0  0  0  0  0  0  0  0  0
    0.6678    1.6630    2.8557 N   0  0  0  0  0  0  0  0  0  0  0  0
    1.8775    2.0420    2.2470 C   0  0  0  0  0  0  0  0  0  0  0  0
    3.0904    1.8716    2.9126 C   0  0  0  0  0  0  0  0  0  0  0  0
    4.2746    2.1649    2.2740 C   0  0  0  0  0  0  0  0  0  0  0  0
    4.2725    2.6274    0.9595 C   0  0  0  0  0  0  0  0  0  0  0  0
    5.8381    2.9068    0.1945 S   0  0  0  0  0  0  0  0  0  0  0  0
    5.4390    2.7830   -1.5747 C   0  0  0  0  0  0  0  0  0  0  0  0
    3.0641    2.8537    0.3150 C   0  0  0  0  0  0  0  0  0  0  0  0
    1.8768    2.5660    0.9573 C   0  0  0  0  0  0  0  0  0  0  0  0
    0.4280    1.9921    4.1940 C   0  0  0  0  0  0  0  0  0  0  0  0
   -0.3165    1.1533    5.0214 C   0  0  0  0  0  0  0  0  0  0  0  0
   -0.6688    1.5497    6.2966 C   0  0  0  0  0  0  0  0  0  0  0  0
   -0.2628    2.7873    6.7774 C   0  0  0  0  0  0  0  0  0  0  0  0
   -0.7207    3.4399    8.3537 S   0  0  0  0  0  0  0  0  0  0  0  0
   -1.6239    2.0874    9.1510 C   0  0  0  0  0  0  0  0  0  0  0  0
    0.5449    3.5981    5.9821 C   0  0  0  0  0  0  0  0  0  0  0  0
    0.8865    3.2085    4.7071 C   0  0  0  0  0  0  0  0  0  0  0  0
    0.0878    0.1274    1.0194 C   0  0  0  0  0  0  0  0  0  0  0  0
    1.5845   -0.3330    0.2766 S   0  0  0  0  0  0  0  0  0  0  0  0
   -2.3554    1.9081    3.1376 C   0  0  0  0  0  0  0  0  0  0  0  0
   -3.3481    1.5991    4.0641 C   0  0  0  0  0  0  0  0  0  0  0  0
   -4.0044    0.3249    4.2412 C   0  0  0  0  0  0  0  0  0  0  0  0
   -5.2652    0.1381    4.7374 C   0  0  0  0  0  0  0  0  0  0  0  0
   -5.6294   -1.2171    4.8407 C   0  0  0  0  0  0  0  0  0  0  0  0
   -4.6493   -2.0741    4.4448 C   0  0  0  0  0  0  0  0  0  0  0  0
   -4.7000   -3.5616    4.3830 C   0  0  0  0  0  0  0  0  0  0  0  0
   -3.4223   -4.2086    4.9121 C   0  0  0  0  0  0  0  0  0  0  0  0
   -3.2421   -1.2065    3.9243 S   0  0  0  0  0  0  0  0  0  0  0  0
   -3.6194    2.6733    4.9294 C   0  0  0  0  0  0  0  0  0  0  0  0
   -2.8673    3.7999    4.6876 C   0  0  0  0  0  0  0  0  0  0  0  0
   -1.8867    3.5741    3.2558 S   0  0  0  0  0  0  0  0  0  0  0  0
   -2.6730    5.0109    5.3876 C   0  0  0  0  0  0  0  0  0  0  0  0
   -2.9463    5.3414    6.6825 C   0  0  0  0  0  0  0  0  0  0  0  0
   -3.5107    4.4749    7.7542 C   0  0  0  0  0  0  0  0  0  0  0  0
   -3.9979    3.3644    7.6661 O   0  0  0  0  0  0  0  0  0  0  0  0
   -3.3795    5.2789    8.9650 C   0  0  0  0  0  0  0  0  0  0  0  0
   -3.7252    5.0528   10.6254 S   0  0  0  0  0  0  0  0  0  0  0  0
   -3.1444    6.6644   10.9531 C   0  0  0  0  0  0  0  0  0  0  0  0
   -3.1552    7.2664   12.5460 Cl  0  0  0  0  0  0  0  0  0  0  0  0
   -2.7124    7.3331    9.8417 C   0  0  0  0  0  0  0  0  0  0  0  0
   -2.8476    6.5294    8.6942 C   0  0  0  0  0  0  0  0  0  0  0  0
   -2.5788    6.6233    7.2742 C   0  0  0  0  0  0  0  0  0  0  0  0
   -2.0821    7.7407    6.6576 C   0  0  0  0  0  0  0  0  0  0  0  0
   -1.8181    7.8991    5.2822 C   0  0  0  0  0  0  0  0  0  0  0  0
   -1.5780    8.1188    4.1805 N   0  0  0  0  0  0  0  0  0  0  0  0
   -1.7831    8.9134    7.3847 C   0  0  0  0  0  0  0  0  0  0  0  0
   -1.5332    9.8795    7.9509 N   0  0  0  0  0  0  0  0  0  0  0  0
    1.7125   -5.1674   -5.5458 H   0  0  0  0  0  0  0  0  0  0  0  0
    0.6266   -4.0591   -1.1417 H   0  0  0  0  0  0  0  0  0  0  0  0
    2.9827    1.4590   -3.7988 H   0  0  0  0  0  0  0  0  0  0  0  0
    4.6011   -0.9656   -7.1643 H   0  0  0  0  0  0  0  0  0  0  0  0
    2.8660   -1.0397   -7.5257 H   0  0  0  0  0  0  0  0  0  0  0  0
    4.1227    0.0727   -9.3798 H   0  0  0  0  0  0  0  0  0  0  0  0
    4.7442    1.2808   -8.2452 H   0  0  0  0  0  0  0  0  0  0  0  0
    3.0193    1.2243   -8.6154 H   0  0  0  0  0  0  0  0  0  0  0  0
   -0.8300    0.1469   -2.7851 H   0  0  0  0  0  0  0  0  0  0  0  0
   -0.1633    0.3009   -5.1198 H   0  0  0  0  0  0  0  0  0  0  0  0
   -1.0097    0.3370   -7.4690 H   0  0  0  0  0  0  0  0  0  0  0  0
    0.7494    0.5295   -7.1915 H   0  0  0  0  0  0  0  0  0  0  0  0
    0.1487   -0.0403   -8.7647 H   0  0  0  0  0  0  0  0  0  0  0  0
   -1.0509   -3.8490   -5.6496 H   0  0  0  0  0  0  0  0  0  0  0  0
   -1.7405   -4.0000   -3.2869 H   0  0  0  0  0  0  0  0  0  0  0  0
   -1.3709   -3.2635    0.8459 H   0  0  0  0  0  0  0  0  0  0  0  0
   -3.0712   -4.6877    1.8519 H   0  0  0  0  0  0  0  0  0  0  0  0
   -3.9718   -7.0482    1.2411 H   0  0  0  0  0  0  0  0  0  0  0  0
   -4.4962   -6.3259    2.7934 H   0  0  0  0  0  0  0  0  0  0  0  0
   -5.5054   -7.5466    1.9934 H   0  0  0  0  0  0  0  0  0  0  0  0
   -5.6314   -4.0151   -1.5046 H   0  0  0  0  0  0  0  0  0  0  0  0
   -3.9105   -2.5745   -2.5260 H   0  0  0  0  0  0  0  0  0  0  0  0
    3.0959    1.4883    3.9219 H   0  0  0  0  0  0  0  0  0  0  0  0
    5.2175    2.0166    2.7771 H   0  0  0  0  0  0  0  0  0  0  0  0
    6.3889    2.6586   -2.0852 H   0  0  0  0  0  0  0  0  0  0  0  0
    4.9558    3.6929   -1.9196 H   0  0  0  0  0  0  0  0  0  0  0  0
    4.8097    1.9128   -1.7377 H   0  0  0  0  0  0  0  0  0  0  0  0
    3.0341    3.2553   -0.6845 H   0  0  0  0  0  0  0  0  0  0  0  0
    0.9378    2.7472    0.4554 H   0  0  0  0  0  0  0  0  0  0  0  0
   -0.6432    0.1909    4.6560 H   0  0  0  0  0  0  0  0  0  0  0  0
   -1.2756    0.8907    6.8956 H   0  0  0  0  0  0  0  0  0  0  0  0
   -2.5652    1.9236    8.6301 H   0  0  0  0  0  0  0  0  0  0  0  0
   -1.0084    1.1936    9.1691 H   0  0  0  0  0  0  0  0  0  0  0  0
   -1.8191    2.4235   10.1650 H   0  0  0  0  0  0  0  0  0  0  0  0
    0.8779    4.5494    6.3678 H   0  0  0  0  0  0  0  0  0  0  0  0
    1.4807    3.8593    4.0843 H   0  0  0  0  0  0  0  0  0  0  0  0
   -5.9193    0.9502    4.9983 H   0  0  0  0  0  0  0  0  0  0  0  0
   -6.5895   -1.5465    5.1962 H   0  0  0  0  0  0  0  0  0  0  0  0
   -4.8636   -3.8618    3.3429 H   0  0  0  0  0  0  0  0  0  0  0  0
   -5.5609   -3.9025    4.9628 H   0  0  0  0  0  0  0  0  0  0  0  0
   -3.4974   -5.2936    4.8779 H   0  0  0  0  0  0  0  0  0  0  0  0
   -3.2478   -3.9114    5.9438 H   0  0  0  0  0  0  0  0  0  0  0  0
   -2.5653   -3.8973    4.3177 H   0  0  0  0  0  0  0  0  0  0  0  0
   -4.3040    2.6007    5.7525 H   0  0  0  0  0  0  0  0  0  0  0  0
   -2.1385    5.7543    4.8082 H   0  0  0  0  0  0  0  0  0  0  0  0
   -2.3242    8.3338    9.8661 H   0  0  0  0  0  0  0  0  0  0  0  0
  1  2  2  0  0  0  0
  2  3  1  0  0  0  0
  3  4  2  0  0  0  0
  3  5  1  0  0  0  0
  5  6  2  0  0  0  0
  6  7  1  0  0  0  0
  6  8  1  0  0  0  0
  8  9  1  0  0  0  0
  8 10  2  0  0  0  0
 10 11  1  0  0  0  0
 10 12  1  0  0  0  0
 12 13  1  0  0  0  0
 12 14  2  0  0  0  0
 14 15  1  0  0  0  0
 15 16  2  0  0  0  0
 16 17  1  0  0  0  0
 17 18  3  0  0  0  0
 16 19  1  0  0  0  0
 19 20  3  0  0  0  0
  1 21  1  0  0  0  0
 21 22  2  0  0  0  0
 22 23  1  0  0  0  0
 22 24  1  0  0  0  0
 24 25  2  0  0  0  0
 25 26  1  0  0  0  0
 26 27  2  0  0  0  0
 27 28  1  0  0  0  0
 28 29  2  0  0  0  0
 29 30  1  0  0  0  0
 30 31  1  0  0  0  0
 31 32  1  0  0  0  0
 29 33  1  0  0  0  0
 33 34  2  0  0  0  0
 25 35  1  0  0  0  0
 35 36  2  0  0  0  0
 36 37  1  0  0  0  0
 37 38  1  0  0  0  0
 38 39  2  0  0  0  0
 39 40  1  0  0  0  0
 40 41  2  0  0  0  0
 41 42  1  0  0  0  0
 42 43  1  0  0  0  0
 41 44  1  0  0  0  0
 44 45  2  0  0  0  0
 37 46  1  0  0  0  0
 46 47  2  0  0  0  0
 47 48  1  0  0  0  0
 48 49  2  0  0  0  0
 49 50  1  0  0  0  0
 50 51  1  0  0  0  0
 49 52  1  0  0  0  0
 52 53  2  0  0  0  0
 36 54  1  0  0  0  0
 54 55  1  0  0  0  0
 55 56  1  0  0  0  0
 56 57  2  0  0  0  0
 57 58  1  0  0  0  0
 58 59  1  0  0  0  0
 59 60  2  0  0  0  0
 60 61  1  0  0  0  0
 61 62  2  0  0  0  0
 62 63  1  0  0  0  0
 63 64  1  0  0  0  0
 62 65  1  0  0  0  0
 65 66  2  0  0  0  0
 58 67  1  0  0  0  0
 67 68  2  0  0  0  0
 68 69  1  0  0  0  0
 69 70  2  0  0  0  0
 70 71  1  0  0  0  0
 71 72  1  0  0  0  0
 70 73  1  0  0  0  0
 73 74  2  0  0  0  0
 57 75  1  0  0  0  0
 75 76  1  0  0  0  0
 56 77  1  0  0  0  0
 77 78  2  0  0  0  0
 78 79  1  0  0  0  0
 79 80  2  0  0  0  0
 80 81  1  0  0  0  0
 81 82  2  0  0  0  0
 82 83  1  0  0  0  0
 83 84  1  0  0  0  0
 82 85  1  0  0  0  0
 78 86  1  0  0  0  0
 86 87  2  0  0  0  0
 87 88  1  0  0  0  0
 87 89  1  0  0  0  0
 89 90  2  0  0  0  0
 90 91  1  0  0  0  0
 91 92  2  0  0  0  0
 91 93  1  0  0  0  0
 93 94  1  0  0  0  0
 94 95  1  0  0  0  0
 95 96  1  0  0  0  0
 95 97  2  0  0  0  0
 97 98  1  0  0  0  0
 98 99  1  0  0  0  0
 99100  2  0  0  0  0
100101  1  0  0  0  0
101102  3  0  0  0  0
100103  1  0  0  0  0
103104  3  0  0  0  0
 15  2  1  0  0  0  0
 34 21  1  0  0  0  0
 76 35  1  0  0  0  0
 88 77  1  0  0  0  0
 99 90  1  0  0  0  0
 14  5  1  0  0  0  0
 34 26  1  0  0  0  0
 45 38  1  0  0  0  0
 53 46  1  0  0  0  0
 75 54  2  0  0  0  0
 85 79  1  0  0  0  0
 98 93  2  0  0  0  0
 66 59  1  0  0  0  0
 74 67  1  0  0  0  0
  1105  1  0  0  0  0
 24106  1  0  0  0  0
 28107  1  0  0  0  0
 31108  1  0  0  0  0
 31109  1  0  0  0  0
 32110  1  0  0  0  0
 32111  1  0  0  0  0
 32112  1  0  0  0  0
 39113  1  0  0  0  0
 40114  1  0  0  0  0
 43115  1  0  0  0  0
 43116  1  0  0  0  0
 43117  1  0  0  0  0
 44118  1  0  0  0  0
 45119  1  0  0  0  0
 47120  1  0  0  0  0
 48121  1  0  0  0  0
 51122  1  0  0  0  0
 51123  1  0  0  0  0
 51124  1  0  0  0  0
 52125  1  0  0  0  0
 53126  1  0  0  0  0
 60127  1  0  0  0  0
 61128  1  0  0  0  0
 64129  1  0  0  0  0
 64130  1  0  0  0  0
 64131  1  0  0  0  0
 65132  1  0  0  0  0
 66133  1  0  0  0  0
 68134  1  0  0  0  0
 69135  1  0  0  0  0
 72136  1  0  0  0  0
 72137  1  0  0  0  0
 72138  1  0  0  0  0
 73139  1  0  0  0  0
 74140  1  0  0  0  0
 80141  1  0  0  0  0
 81142  1  0  0  0  0
 83143  1  0  0  0  0
 83144  1  0  0  0  0
 84145  1  0  0  0  0
 84146  1  0  0  0  0
 84147  1  0  0  0  0
 86148  1  0  0  0  0
 89149  1  0  0  0  0
 97150  1  0  0  0  0
M  END
