132

C         -5.41280       -2.34810        5.10180
C         -5.59500       -3.62330        5.59390
C         -5.38080       -4.85570        4.83500
O         -5.03420       -4.97790        3.67500
C         -5.86880       -5.95180        5.71270
C         -5.90460       -7.31140        5.46580
Cl        -5.13430       -7.99220        4.10270
C         -6.57700       -8.13870        6.37600
Cl        -6.61260       -9.83180        6.12710
C         -7.25200       -7.58000        7.45770
Cl        -8.15830       -8.59500        8.49600
C         -7.20840       -6.19830        7.70780
Cl        -8.19760       -5.56790        8.96030
C         -6.44740       -5.39380        6.87130
C         -6.13780       -3.96420        6.88550
C         -6.09500       -3.13310        7.97770
C         -5.67650       -1.78530        7.90980
N         -5.34160       -0.68760        7.95270
C         -6.26040       -3.49970        9.32880
N         -6.28510       -3.69650       10.45980
C         -4.57440       -1.97070        4.04440
C         -3.40740       -2.66680        3.63410
C         -2.58160       -2.23670        2.52440
N         -1.49130       -2.99370        2.40010
S         -1.50360       -4.12680        3.54380
N         -2.87630       -3.70870        4.26280
C         -2.88270       -1.08990        1.74650
C         -3.95300       -0.31470        2.27010
N         -4.33880        0.86490        1.78920
S         -5.60070        1.40090        2.63940
N         -5.72390        0.15440        3.64820
C         -4.77110       -0.73420        3.37740
C         -2.19090       -0.63820        0.60750
C         -1.20910       -1.24890       -0.20990
N         -0.87770       -2.57390       -0.29950
C         -1.74120       -3.63490       -0.05900
C         -1.21110       -4.89950        0.22920
C         -2.04220       -5.95970        0.49210
C         -3.43090       -5.79960        0.47490
S         -4.39430       -7.21590        0.82870
C         -6.05620       -6.55140        1.10570
C         -3.96240       -4.55590        0.14490
C         -3.12900       -3.49480       -0.13290
C          0.41380       -2.85260       -0.80800
C          1.53240       -2.32810       -0.16920
C          2.78330       -2.44760       -0.74170
C          2.92240       -3.08490       -1.96850
S          4.44200       -3.16040       -2.85690
C          5.42450       -1.82740       -2.11060
C          1.81610       -3.69200       -2.56120
C          0.57080       -3.58230       -1.98520
C         -0.59820       -0.28330       -1.04560
S          0.67500       -0.35100       -2.22380
C          0.54050        1.38000       -2.50900
C         -0.58100        1.93170       -1.85610
N         -1.14830        3.16520       -2.04710
C         -1.92660        3.66500       -0.97800
C         -1.35840        3.79350        0.28490
C         -2.13910        4.13410        1.37210
C         -3.50280        4.33890        1.20540
S         -4.61340        4.65290        2.53610
C         -3.66530        4.15540        4.00280
C         -4.05680        4.28950       -0.07330
C         -3.27700        3.95990       -1.15830
C         -1.11710        3.86480       -3.24860
C         -1.32250        5.24970       -3.24530
C         -1.24670        5.96800       -4.41320
C         -0.97520        5.32960       -5.62530
S         -0.84970        6.35790       -7.04660
C         -0.21970        5.24710       -8.33650
C         -0.83500        3.94710       -5.64400
C         -0.91600        3.22460       -4.47120
C         -1.15800        0.98040       -0.98140
S         -2.48000        1.03650        0.14100
C          1.59940        1.97300       -3.23420
C          2.48660        1.14830       -3.97040
C          3.62600        1.64930       -4.69940
N          4.29590        0.66150       -5.29920
S          3.57530       -0.73910       -4.99100
N          2.37800       -0.17630       -4.07310
C          3.99540        3.01100       -4.67430
C          3.10550        3.84440       -3.96320
N          3.19940        5.17000       -3.87150
S          2.04940        5.71820       -2.90400
N          1.32260        4.32050       -2.58590
C          1.95200        3.34230       -3.23990
C          5.18510        3.45410       -5.30970
C          5.98990        4.48320       -4.92370
C          6.02250        5.20060       -3.64060
O          5.41790        4.95340       -2.61830
C          7.08210        6.23560       -3.79350
C          7.47770        7.21400       -2.90350
C          8.51720        8.06000       -3.27490
Cl         9.02770        9.29560       -2.19410
C          9.15010        7.91520       -4.51340
Cl        10.43730        8.97050       -4.94350
C          8.75260        6.92300       -5.40360
C          7.71640        6.08970       -5.03190
C          7.09780        4.95920       -5.77500
O          7.42570        4.53480       -6.86020
H         -5.99000       -1.53880        5.53200
H         -0.14130       -5.02690        0.28430
H         -1.63170       -6.92840        0.73140
H         -5.99640       -5.79040        1.87950
H         -6.65400       -7.38940        1.45070
H         -6.46880       -6.16240        0.17940
H         -5.02840       -4.40670        0.09470
H         -3.56050       -2.54730       -0.41660
H          1.40790       -1.80530        0.76710
H          3.63560       -2.02640       -0.23420
H          4.81760       -0.93010       -2.03410
H          6.25660       -1.65710       -2.78690
H          5.80080       -2.13160       -1.13830
H          1.94280       -4.21690       -3.49490
H         -0.29360       -4.01860       -2.46230
H         -0.30260        3.60510        0.40880
H         -1.67760        4.22170        2.34200
H         -2.90030        4.89290        4.22710
H         -3.23100        3.17410        3.83690
H         -4.38100        4.11220        4.81800
H         -5.11110        4.48200       -0.19560
H         -3.71220        3.88850       -2.14370
H         -1.49720        5.75830       -2.31040
H         -1.38090        7.03850       -4.40540
H         -0.97260        4.50980       -8.59960
H          0.69770        4.77550       -7.99710
H         -0.01360        5.88150       -9.19300
H         -0.66890        3.41760       -6.56830
H         -0.82310        2.15030       -4.51100
H          5.50160        2.88440       -6.17790
H          6.99200        7.32340       -1.94670
H          9.24410        6.80750       -6.35680
