110

C         -6.56620        6.68990       -7.39450
C         -7.64810        5.99690       -7.81580
C         -8.49990        5.08560       -6.99960
O         -8.57000        5.02240       -5.79810
C         -9.30360        4.32700       -7.98790
C        -10.11080        3.22230       -7.77330
Cl       -10.40900        2.63170       -6.20130
C        -10.66430        2.58180       -8.89180
Cl       -11.68150        1.22640       -8.67870
C        -10.35260        3.02220      -10.17890
Cl       -10.96500        2.16630      -11.52620
C         -9.53530        4.14410      -10.38910
Cl        -9.06320        4.52610      -11.99250
C         -9.06230        4.83670       -9.28050
C         -8.23420        6.03140       -9.15610
C         -8.17020        7.07960      -10.02810
C         -8.99990        7.26090      -11.15880
N         -9.68770        7.54650      -12.03090
C         -7.37340        8.23160       -9.83160
N         -6.74800        9.19010       -9.74950
C         -5.87870        6.55300       -6.13090
C         -5.75010        5.31190       -5.48630
C         -5.02560        5.24670       -4.32310
C         -4.71230        4.05400       -3.48940
O         -5.04650        2.91030       -3.67730
C         -3.86410        4.59130       -2.39260
C         -3.69390        5.98000       -2.56230
C         -4.41770        6.38800       -3.75930
C         -4.53720        7.61160       -4.39390
C         -5.24910        7.67670       -5.58150
C         -2.90670        6.68600       -1.67100
C         -2.27180        5.99840       -0.64680
C         -2.41600        4.61700       -0.48820
C         -3.25240        3.91250       -1.36870
C         -1.66860        3.88480        0.51140
C         -0.47760        4.21410        1.08560
C          0.07390        3.18760        1.89820
C          1.31910        3.16160        2.54200
C          2.23120        4.35100        2.56060
C          1.80750        5.34000        3.64830
C          1.65810        1.97600        3.16670
C          0.81060        0.84000        3.21040
C         -0.45290        0.88030        2.60790
C         -1.40760       -0.27260        2.67480
C         -2.15980       -0.27220        4.00730
C         -0.77450        2.05220        1.95020
S         -2.21870        2.29860        1.00780
C          1.44430       -0.26700        3.82980
C          2.72420       -0.02610        4.23140
S          3.19230        1.63820        3.92710
C          3.68810       -0.97780        4.73410
C          3.38350       -2.35030        4.74510
C          4.36420       -3.24500        5.09130
C          4.30100       -4.73140        5.10070
O          3.33780       -5.43200        4.90980
C          5.69600       -5.15060        5.40520
C          6.48800       -4.00740        5.64330
C          5.66270       -2.82480        5.44410
C          5.95280       -1.47330        5.48760
C          4.96500       -0.56800        5.13090
C          7.82340       -4.15410        5.97730
C          8.35960       -5.43080        6.02030
C          7.59870       -6.56250        5.70090
C          6.22820       -6.41510        5.42620
C          8.23180       -7.85830        5.68570
C          7.98610       -8.85190        4.79610
C          7.27460       -8.68520        3.49860
O          6.63450       -7.73840        3.11260
C          7.62170       -9.89260        2.71290
C          7.29980      -10.17290        1.39510
Cl         6.27730       -9.15070        0.49090
C          7.84240      -11.32770        0.81280
Cl         7.44360      -11.73720       -0.79710
C          8.73890      -12.11900        1.53090
Cl         9.46330      -13.46520        0.76590
C          9.06850      -11.82360        2.86370
Cl        10.30450      -12.73880        3.62130
C          8.44930      -10.74100        3.47760
C          8.53250      -10.20310        4.83010
C          8.82420      -10.87710        5.98310
C          9.00360      -12.27140        6.12240
N          9.06910      -13.39120        6.36220
C          8.82110      -10.26410        7.25840
N          8.84530       -9.83250        8.32100
H         -6.12290        7.40820       -8.07350
H         -6.17010        4.41380       -5.90900
H         -4.07470        8.49830       -3.98800
H         -5.34190        8.62370       -6.09370
H         -2.77370        7.75290       -1.76960
H         -1.65190        6.54450        0.04810
H         -3.38800        2.84620       -1.26490
H          0.02800        5.14230        0.88930
H          2.21800        4.84710        1.58840
H          3.25190        4.01570        2.75720
H          2.47070        6.20150        3.65450
H          1.84880        4.86430        4.62540
H          0.78970        5.68350        3.47710
H         -0.86830       -1.21400        2.55850
H         -2.12630       -0.19010        1.85660
H         -1.46430       -0.35090        4.84000
H         -2.72640        0.64950        4.11910
H         -2.85080       -1.11020        4.04970
H          0.95990       -1.21880        3.94370
H          2.41080       -2.71450        4.45680
H          6.93340       -1.12120        5.76970
H          5.19010        0.48900        5.13600
H          8.44170       -3.29580        6.19220
H          9.40480       -5.55940        6.26270
H          5.59730       -7.27260        5.25890
H          9.00820       -8.01010        6.42630
