204

C         -5.54010        6.28650       -2.98760
C         -6.13030        6.38250       -4.23660
C         -5.53960        5.82770       -5.45000
O         -4.47190        5.25450       -5.56170
C         -6.43540        6.25800       -6.55460
C         -6.33400        5.97780       -7.90280
Cl        -5.13490        4.91830       -8.50100
C         -7.25840        6.56550       -8.77700
Cl        -7.21570        6.19250      -10.44800
C         -8.19250        7.47490       -8.28850
Cl        -9.25790        8.25120       -9.38410
C         -8.27880        7.77040       -6.91690
Cl        -9.34180        9.02420       -6.42570
C         -7.44320        7.09610       -6.03650
C         -7.33940        7.08170       -4.57590
C         -8.31640        7.38980       -3.65940
C         -8.14360        7.19750       -2.27110
N         -8.09190        7.05040       -1.13280
C         -9.65800        7.74560       -3.90230
N        -10.78450        7.96090       -3.95700
C         -4.66590        5.29400       -2.55810
C         -4.40350        3.98400       -3.02600
N         -5.08730        3.28320       -3.97430
C         -6.42330        3.50880       -4.31000
C         -7.36690        3.90650       -3.35940
C         -8.65810        4.18540       -3.74150
C         -9.04230        4.08910       -5.08150
S        -10.67900        4.59330       -5.47090
C        -10.69300        4.64680       -7.28540
C         -8.12700        3.61920       -6.01590
C         -6.83430        3.32790       -5.63080
C         -4.41630        2.20380       -4.59660
C         -3.17280        2.40870       -5.18600
C         -2.45290        1.33950       -5.67890
C         -2.97170        0.05340       -5.58440
S         -2.07800       -1.38350       -6.07640
C         -0.34940       -0.83300       -5.98560
C         -4.25580       -0.13800       -5.07550
C         -4.97660        0.92890       -4.58470
C         -3.34480        3.40460       -2.28380
S         -2.51100        1.89480       -2.37790
C         -1.55020        2.30610       -0.97930
C         -1.83210        3.56860       -0.48060
N         -1.17830        4.21120        0.55290
C         -1.92740        5.05970        1.38430
C         -3.23510        4.73270        1.73190
C         -3.99370        5.58670        2.50840
C         -3.44930        6.78150        2.95860
S         -4.33390        7.94830        3.94300
C         -6.07030        7.47800        3.69130
C         -2.12670        7.09350        2.64570
C         -1.37380        6.24650        1.86410
C          0.14430        3.89610        0.88210
C          0.53510        3.81520        2.21580
C          1.79270        3.36570        2.55680
C          2.68850        2.98070        1.56860
S          4.25990        2.26870        1.94090
C          3.97780        1.61740        3.61130
C          2.34140        3.15810        0.23200
C          1.08880        3.62080       -0.10850
C         -2.86700        4.17780       -1.23520
S         -3.69300        5.68750       -1.12760
C         -0.55800        1.35930       -0.52460
C          0.28580        0.71430       -1.40830
F          0.20650        0.96830       -2.72920
C          1.25320       -0.19590       -0.98380
F          2.03590       -0.76370       -1.91920
C          1.44360       -0.50260        0.35160
C          0.62770        0.18370        1.29120
N          0.79710       -0.03620        2.60360
C         -0.06330        0.45290        3.46110
C          0.22350        0.22490        4.91600
C          1.11990       -0.98570        5.15370
C         -1.22080        1.14680        2.99660
N         -1.34190        1.45530        1.72910
C         -0.41470        1.03680        0.85230
C         -2.37480        1.51810        3.88010
C         -2.12330        2.78060        4.70610
C          2.32750       -1.57710        0.73620
C          2.34890       -2.84040        0.15750
N          1.48040       -3.30200       -0.80520
C          1.90910       -4.33030       -1.66800
C          1.07850       -5.41440       -1.93080
C          1.52570       -6.44620       -2.73070
C          2.80060       -6.42550       -3.28420
C          3.30130       -7.57970       -4.09460
C          3.60910       -5.32230       -3.04220
C          3.17260       -4.28050       -2.24810
C          0.16820       -2.81910       -0.91480
C         -0.59310       -2.54060        0.21950
C         -1.85660       -2.00260        0.09030
C         -2.40510       -1.74290       -1.16180
C         -3.77840       -1.15870       -1.28260
C         -1.65740       -2.06240       -2.28740
C         -0.38680       -2.59270       -2.17160
C          3.35720       -3.64440        0.74630
S          3.85060       -5.27800        0.50340
C          5.07170       -5.10460        1.76730
C          5.02350       -3.82130        2.38110
N          5.82620       -3.40220        3.40820
C          6.30170       -2.07830        3.40800
C          6.68450       -1.47490        2.21130
C          7.17490       -0.18660        2.20980
C          7.31560        0.53000        3.39440
C          7.83890        1.93110        3.36730
C          6.93850       -0.08280        4.58370
C          6.42830       -1.36760        4.59700
C          6.17510       -4.25710        4.47020
C          5.24190       -5.15990        4.97450
C          5.58730       -6.00530        6.01000
C          6.85600       -5.96510        6.57610
C          7.24000       -6.88430        7.69380
C          7.77230       -5.04360        6.08000
C          7.44520       -4.19730        5.04020
C          4.05690       -3.00800        1.76490
S          3.45870       -1.40410        2.05470
C          6.05790       -6.04560        2.04020
C          6.26930       -7.30630        1.51820
C          5.40410       -8.02260        0.58940
O          4.40550       -7.62030        0.02260
C          5.95910       -9.39440        0.49520
C          5.45530      -10.48260       -0.19190
Cl         4.11540      -10.33160       -1.23700
C          6.07000      -11.72850       -0.00390
Cl         5.50930      -13.09680       -0.86350
C          7.10580      -11.86040        0.91810
Cl         7.76890      -13.40960        1.21420
C          7.60680      -10.75060        1.61940
Cl         8.74910      -11.03000        2.86830
C          7.08050       -9.49590        1.34280
C          7.39650       -8.15470        1.83590
C          8.61460       -7.72790        2.30640
C          8.89900       -6.40820        2.71350
N          9.22670       -5.36370        3.06410
C          9.81950       -8.46150        2.28010
N         10.86900       -8.92240        2.21340
H         -5.72910        7.07690       -2.27190
H         -7.08370        4.00140       -2.32220
H         -9.38570        4.50080       -3.00910
H         -9.86780        5.25720       -7.64090
H        -11.63780        5.10970       -7.55230
H        -10.64820        3.64150       -7.69390
H         -8.40390        3.48970       -7.04910
H         -6.12040        2.98410       -6.36340
H         -2.78570        3.41340       -5.25100
H         -1.48760        1.51540       -6.12400
H          0.24950       -1.73830       -6.00440
H         -0.10280       -0.21510       -6.84400
H         -0.19010       -0.29860       -5.05400
H         -4.66610       -1.13600       -5.04570
H         -5.95780        0.77820       -4.15910
H         -3.65360        3.79530        1.39710
H         -5.00360        5.30630        2.75950
H         -6.29470        6.55760        4.22280
H         -6.27090        7.38130        2.62860
H         -6.65710        8.29120        4.10700
H         -1.70620        8.01780        3.01040
H         -0.35630        6.50120        1.60800
H         -0.16210        4.08190        2.99390
H          2.05820        3.30580        3.59970
H          4.02510        2.41920        4.34300
H          4.77340        0.90330        3.79510
H          3.01650        1.11380        3.62770
H          3.06070        2.91630       -0.53510
H          0.82760        3.75170       -1.14780
H          0.71540        1.12170        5.30700
H         -0.71370        0.10580        5.46210
H          0.63260       -1.88820        4.79400
H          1.32170       -1.09720        6.21610
H          2.06140       -0.87690        4.62390
H         -2.59810        0.68380        4.54900
H         -3.23920        1.68610        3.23640
H         -1.20310        2.70140        5.27900
H         -2.94710        2.93650        5.39820
H         -2.06160        3.64930        4.05560
H          0.09130       -5.44710       -1.49330
H          0.87900       -7.29160       -2.91550
H          3.77430       -8.30630       -3.43360
H          2.48520       -8.07770       -4.61320
H          4.04110       -7.25570       -4.82300
H          4.59650       -5.27890       -3.47840
H          3.80450       -3.42220       -2.07260
H         -0.18520       -2.74190        1.19970
H         -2.43240       -1.78180        0.97830
H         -3.94750       -0.77210       -2.28460
H         -4.52960       -1.92140       -1.07540
H         -3.91410       -0.35200       -0.56440
H         -2.07040       -1.88370       -3.26870
H          0.19400       -2.81980       -3.05310
H          6.60930       -2.02830        1.28730
H          7.46310        0.27300        1.27670
H          7.15920        2.56780        2.80150
H          8.81020        1.96500        2.87690
H          7.94020        2.33210        4.37230
H          7.03620        0.45490        5.51600
H          6.12800       -1.82400        5.52840
H          4.25070       -5.19780        4.54680
H          4.85440       -6.70290        6.38870
H          6.41080       -7.52940        7.97270
H          8.08200       -7.50830        7.39660
H          7.54630       -6.31190        8.56840
H          8.76340       -4.99760        6.50540
H          8.17380       -3.50290        4.65390
H          6.77190       -5.73240        2.79070
