
  xtb     02112217093D
 energy: -356.471933291019 gnorm: 0.000416063410 xtb: 6.4.1 (unknown)
188204  0     0  0            999 V2000
   -6.6565    0.9328   -3.4491 C   0  0  0  0  0  0  0  0  0  0  0  0
   -7.9574    0.9841   -2.9847 C   0  0  0  0  0  0  0  0  0  0  0  0
   -8.3858    0.9324   -1.5943 C   0  0  0  0  0  0  0  0  0  0  0  0
   -7.7097    0.7388   -0.6002 O   0  0  0  0  0  0  0  0  0  0  0  0
   -9.8448    1.1954   -1.6093 C   0  0  0  0  0  0  0  0  0  0  0  0
  -10.7061    1.3369   -0.5380 C   0  0  0  0  0  0  0  0  0  0  0  0
  -10.1933    1.0332    1.0604 Cl  0  0  0  0  0  0  0  0  0  0  0  0
  -12.0215    1.7482   -0.7937 C   0  0  0  0  0  0  0  0  0  0  0  0
  -13.1364    1.9000    0.4951 Cl  0  0  0  0  0  0  0  0  0  0  0  0
  -12.4055    2.0793   -2.0909 C   0  0  0  0  0  0  0  0  0  0  0  0
  -13.9823    2.6844   -2.3667 Cl  0  0  0  0  0  0  0  0  0  0  0  0
  -11.5212    1.9407   -3.1743 C   0  0  0  0  0  0  0  0  0  0  0  0
  -12.0124    2.5479   -4.7016 Cl  0  0  0  0  0  0  0  0  0  0  0  0
  -10.2572    1.4168   -2.9387 C   0  0  0  0  0  0  0  0  0  0  0  0
   -9.1312    1.1009   -3.8197 C   0  0  0  0  0  0  0  0  0  0  0  0
   -9.2114    0.7712   -5.1515 C   0  0  0  0  0  0  0  0  0  0  0  0
   -8.1118    0.4296   -5.9654 C   0  0  0  0  0  0  0  0  0  0  0  0
   -7.2828    0.1403   -6.7075 N   0  0  0  0  0  0  0  0  0  0  0  0
  -10.3977    0.5271   -5.8748 C   0  0  0  0  0  0  0  0  0  0  0  0
  -11.2860    0.2038   -6.5267 N   0  0  0  0  0  0  0  0  0  0  0  0
   -5.4559    0.7894   -2.7681 C   0  0  0  0  0  0  0  0  0  0  0  0
   -4.1924    0.7299   -3.4211 C   0  0  0  0  0  0  0  0  0  0  0  0
   -3.9483    0.9930   -4.7370 N   0  0  0  0  0  0  0  0  0  0  0  0
   -2.8086    0.4213   -5.3387 C   0  0  0  0  0  0  0  0  0  0  0  0
   -1.9256    1.2046   -6.0758 C   0  0  0  0  0  0  0  0  0  0  0  0
   -0.7908    0.6383   -6.6226 C   0  0  0  0  0  0  0  0  0  0  0  0
   -0.5127   -0.7137   -6.4595 C   0  0  0  0  0  0  0  0  0  0  0  0
    0.7117   -1.3261   -7.0625 C   0  0  0  0  0  0  0  0  0  0  0  0
   -1.4164   -1.4928   -5.7458 C   0  0  0  0  0  0  0  0  0  0  0  0
   -2.5526   -0.9395   -5.1906 C   0  0  0  0  0  0  0  0  0  0  0  0
   -4.6264    2.0093   -5.4424 C   0  0  0  0  0  0  0  0  0  0  0  0
   -4.9439    3.2139   -4.8207 C   0  0  0  0  0  0  0  0  0  0  0  0
   -5.5897    4.2047   -5.5325 C   0  0  0  0  0  0  0  0  0  0  0  0
   -5.9216    4.0262   -6.8711 C   0  0  0  0  0  0  0  0  0  0  0  0
   -6.6439    5.0909   -7.6365 C   0  0  0  0  0  0  0  0  0  0  0  0
   -5.5763    2.8281   -7.4865 C   0  0  0  0  0  0  0  0  0  0  0  0
   -4.9344    1.8257   -6.7870 C   0  0  0  0  0  0  0  0  0  0  0  0
   -3.1796    0.4013   -2.5070 C   0  0  0  0  0  0  0  0  0  0  0  0
   -1.4679    0.2357   -2.6549 S   0  0  0  0  0  0  0  0  0  0  0  0
   -1.3053    0.1891   -0.9033 C   0  0  0  0  0  0  0  0  0  0  0  0
   -2.5339    0.2426   -0.2522 C   0  0  0  0  0  0  0  0  0  0  0  0
   -2.7562    0.2613    1.1131 N   0  0  0  0  0  0  0  0  0  0  0  0
   -3.9839   -0.2843    1.5528 C   0  0  0  0  0  0  0  0  0  0  0  0
   -4.8521    0.4534    2.3512 C   0  0  0  0  0  0  0  0  0  0  0  0
   -6.0719   -0.0779    2.7153 C   0  0  0  0  0  0  0  0  0  0  0  0
   -6.4578   -1.3459    2.2954 C   0  0  0  0  0  0  0  0  0  0  0  0
   -7.8112   -1.8804    2.6425 C   0  0  0  0  0  0  0  0  0  0  0  0
   -5.5743   -2.0830    1.5176 C   0  0  0  0  0  0  0  0  0  0  0  0
   -4.3483   -1.5642    1.1491 C   0  0  0  0  0  0  0  0  0  0  0  0
   -1.9705    0.9980    2.0010 C   0  0  0  0  0  0  0  0  0  0  0  0
   -1.2199    2.0903    1.5729 C   0  0  0  0  0  0  0  0  0  0  0  0
   -0.4141    2.7737    2.4597 C   0  0  0  0  0  0  0  0  0  0  0  0
   -0.3473    2.4135    3.8010 C   0  0  0  0  0  0  0  0  0  0  0  0
    0.5622    3.1391    4.7437 C   0  0  0  0  0  0  0  0  0  0  0  0
   -1.1426    1.3599    4.2322 C   0  0  0  0  0  0  0  0  0  0  0  0
   -1.9394    0.6560    3.3510 C   0  0  0  0  0  0  0  0  0  0  0  0
   -3.5965    0.3416   -1.1853 C   0  0  0  0  0  0  0  0  0  0  0  0
   -5.3027    0.5572   -1.0195 S   0  0  0  0  0  0  0  0  0  0  0  0
    0.0157    0.0818   -0.3840 C   0  0  0  0  0  0  0  0  0  0  0  0
    1.1716    0.5828   -0.9688 C   0  0  0  0  0  0  0  0  0  0  0  0
    1.2274    1.3461   -2.1380 N   0  0  0  0  0  0  0  0  0  0  0  0
    0.4573    2.5103   -2.2414 C   0  0  0  0  0  0  0  0  0  0  0  0
   -0.2078    2.8390   -3.4267 C   0  0  0  0  0  0  0  0  0  0  0  0
   -1.0473    3.9273   -3.4677 C   0  0  0  0  0  0  0  0  0  0  0  0
   -1.2394    4.7219   -2.3374 C   0  0  0  0  0  0  0  0  0  0  0  0
   -2.3987    6.0434   -2.5003 S   0  0  0  0  0  0  0  0  0  0  0  0
   -2.3119    6.9022   -0.9037 C   0  0  0  0  0  0  0  0  0  0  0  0
   -0.5373    4.4331   -1.1762 C   0  0  0  0  0  0  0  0  0  0  0  0
    0.3061    3.3375   -1.1344 C   0  0  0  0  0  0  0  0  0  0  0  0
    2.0229    0.8972   -3.1927 C   0  0  0  0  0  0  0  0  0  0  0  0
    2.5716    1.7982   -4.1072 C   0  0  0  0  0  0  0  0  0  0  0  0
    3.3360    1.3436   -5.1563 C   0  0  0  0  0  0  0  0  0  0  0  0
    3.5922   -0.0176   -5.3118 C   0  0  0  0  0  0  0  0  0  0  0  0
    4.5561   -0.4798   -6.7181 S   0  0  0  0  0  0  0  0  0  0  0  0
    4.8914   -2.2441   -6.4577 C   0  0  0  0  0  0  0  0  0  0  0  0
    3.0700   -0.9154   -4.3921 C   0  0  0  0  0  0  0  0  0  0  0  0
    2.2885   -0.4611   -3.3486 C   0  0  0  0  0  0  0  0  0  0  0  0
    2.3135    0.2211   -0.2225 C   0  0  0  0  0  0  0  0  0  0  0  0
    3.9851    0.5991   -0.3922 S   0  0  0  0  0  0  0  0  0  0  0  0
    4.3334   -0.2802    1.0854 C   0  0  0  0  0  0  0  0  0  0  0  0
    3.2174   -0.9286    1.6181 C   0  0  0  0  0  0  0  0  0  0  0  0
    3.2823   -1.8959    2.5898 N   0  0  0  0  0  0  0  0  0  0  0  0
    2.1387   -2.3665    3.2537 C   0  0  0  0  0  0  0  0  0  0  0  0
    1.1829   -1.4983    3.7707 C   0  0  0  0  0  0  0  0  0  0  0  0
    0.0492   -1.9996    4.3828 C   0  0  0  0  0  0  0  0  0  0  0  0
   -0.1458   -3.3694    4.4841 C   0  0  0  0  0  0  0  0  0  0  0  0
   -1.5838   -4.0955    5.2093 S   0  0  0  0  0  0  0  0  0  0  0  0
   -2.8544   -2.8214    4.9538 C   0  0  0  0  0  0  0  0  0  0  0  0
    0.8380   -4.2390    4.0185 C   0  0  0  0  0  0  0  0  0  0  0  0
    1.9683   -3.7434    3.4112 C   0  0  0  0  0  0  0  0  0  0  0  0
    4.4967   -2.5790    2.8298 C   0  0  0  0  0  0  0  0  0  0  0  0
    5.2569   -3.0858    1.7809 C   0  0  0  0  0  0  0  0  0  0  0  0
    6.5067   -3.6247    2.0151 C   0  0  0  0  0  0  0  0  0  0  0  0
    7.0137   -3.6660    3.3086 C   0  0  0  0  0  0  0  0  0  0  0  0
    8.6532   -4.1724    3.7108 S   0  0  0  0  0  0  0  0  0  0  0  0
    9.4366   -4.4674    2.1002 C   0  0  0  0  0  0  0  0  0  0  0  0
    6.2071   -3.2576    4.3708 C   0  0  0  0  0  0  0  0  0  0  0  0
    4.9589   -2.7250    4.1365 C   0  0  0  0  0  0  0  0  0  0  0  0
    2.0537   -0.5752    0.8846 C   0  0  0  0  0  0  0  0  0  0  0  0
    0.3532   -0.8590    1.0595 S   0  0  0  0  0  0  0  0  0  0  0  0
    5.6680   -0.2677    1.6296 C   0  0  0  0  0  0  0  0  0  0  0  0
    6.8085   -0.4885    0.8468 C   0  0  0  0  0  0  0  0  0  0  0  0
    6.6716   -0.6804   -0.4742 F   0  0  0  0  0  0  0  0  0  0  0  0
    8.0588   -0.6164    1.4188 C   0  0  0  0  0  0  0  0  0  0  0  0
    9.1099   -0.9142    0.6392 F   0  0  0  0  0  0  0  0  0  0  0  0
    8.2674   -0.4669    2.7943 C   0  0  0  0  0  0  0  0  0  0  0  0
    7.1381   -0.1834    3.5718 C   0  0  0  0  0  0  0  0  0  0  0  0
    7.2532   -0.0960    4.9013 F   0  0  0  0  0  0  0  0  0  0  0  0
    5.8839   -0.0850    3.0044 C   0  0  0  0  0  0  0  0  0  0  0  0
    4.8314    0.1908    3.7910 F   0  0  0  0  0  0  0  0  0  0  0  0
    9.5772   -0.6958    3.3675 C   0  0  0  0  0  0  0  0  0  0  0  0
   10.1386    0.0718    4.3264 C   0  0  0  0  0  0  0  0  0  0  0  0
    9.6239    1.4121    4.7266 C   0  0  0  0  0  0  0  0  0  0  0  0
    8.7546    2.0484    4.1835 O   0  0  0  0  0  0  0  0  0  0  0  0
   10.4644    1.8218    5.8710 C   0  0  0  0  0  0  0  0  0  0  0  0
   10.3169    2.9301    6.6872 C   0  0  0  0  0  0  0  0  0  0  0  0
    9.1347    4.1155    6.3681 Cl  0  0  0  0  0  0  0  0  0  0  0  0
   11.1588    3.0485    7.8023 C   0  0  0  0  0  0  0  0  0  0  0  0
   11.0350    4.4122    8.8233 Cl  0  0  0  0  0  0  0  0  0  0  0  0
   12.0663    2.0325    8.1025 C   0  0  0  0  0  0  0  0  0  0  0  0
   13.0135    2.1534    9.5205 Cl  0  0  0  0  0  0  0  0  0  0  0  0
   12.2079    0.9082    7.2735 C   0  0  0  0  0  0  0  0  0  0  0  0
   13.2157   -0.3710    7.8081 Cl  0  0  0  0  0  0  0  0  0  0  0  0
   11.4505    0.8394    6.1078 C   0  0  0  0  0  0  0  0  0  0  0  0
   11.3878   -0.1560    5.0443 C   0  0  0  0  0  0  0  0  0  0  0  0
   12.3695   -1.0357    4.6741 C   0  0  0  0  0  0  0  0  0  0  0  0
   12.2241   -2.0377    3.6895 C   0  0  0  0  0  0  0  0  0  0  0  0
   12.1884   -2.9021    2.9346 N   0  0  0  0  0  0  0  0  0  0  0  0
   13.7174   -0.9968    5.0970 C   0  0  0  0  0  0  0  0  0  0  0  0
   14.8497   -0.9786    5.2812 N   0  0  0  0  0  0  0  0  0  0  0  0
   -6.5434    1.0307   -4.5208 H   0  0  0  0  0  0  0  0  0  0  0  0
   -2.1272    2.2577   -6.2033 H   0  0  0  0  0  0  0  0  0  0  0  0
   -0.1024    1.2591   -7.1775 H   0  0  0  0  0  0  0  0  0  0  0  0
    0.4675   -1.7780   -8.0244 H   0  0  0  0  0  0  0  0  0  0  0  0
    1.1058   -2.1061   -6.4150 H   0  0  0  0  0  0  0  0  0  0  0  0
    1.4821   -0.5769   -7.2254 H   0  0  0  0  0  0  0  0  0  0  0  0
   -1.2283   -2.5494   -5.6239 H   0  0  0  0  0  0  0  0  0  0  0  0
   -3.2502   -1.5550   -4.6418 H   0  0  0  0  0  0  0  0  0  0  0  0
   -4.6771    3.3714   -3.7859 H   0  0  0  0  0  0  0  0  0  0  0  0
   -5.8264    5.1369   -5.0411 H   0  0  0  0  0  0  0  0  0  0  0  0
   -7.6938    4.8196   -7.7499 H   0  0  0  0  0  0  0  0  0  0  0  0
   -6.2217    5.2025   -8.6330 H   0  0  0  0  0  0  0  0  0  0  0  0
   -6.5918    6.0464   -7.1209 H   0  0  0  0  0  0  0  0  0  0  0  0
   -5.8222    2.6726   -8.5259 H   0  0  0  0  0  0  0  0  0  0  0  0
   -4.6783    0.8967   -7.2711 H   0  0  0  0  0  0  0  0  0  0  0  0
   -4.5722    1.4484    2.6644 H   0  0  0  0  0  0  0  0  0  0  0  0
   -6.7480    0.5104    3.3178 H   0  0  0  0  0  0  0  0  0  0  0  0
   -8.1057   -1.5778    3.6451 H   0  0  0  0  0  0  0  0  0  0  0  0
   -7.8350   -2.9654    2.5761 H   0  0  0  0  0  0  0  0  0  0  0  0
   -8.5451   -1.4798    1.9430 H   0  0  0  0  0  0  0  0  0  0  0  0
   -5.8511   -3.0740    1.1882 H   0  0  0  0  0  0  0  0  0  0  0  0
   -3.6696   -2.1406    0.5363 H   0  0  0  0  0  0  0  0  0  0  0  0
   -1.2840    2.4057    0.5429 H   0  0  0  0  0  0  0  0  0  0  0  0
    0.1688    3.6141    2.1097 H   0  0  0  0  0  0  0  0  0  0  0  0
    0.5135    4.2138    4.5789 H   0  0  0  0  0  0  0  0  0  0  0  0
    1.5947    2.8249    4.5854 H   0  0  0  0  0  0  0  0  0  0  0  0
    0.2992    2.9297    5.7775 H   0  0  0  0  0  0  0  0  0  0  0  0
   -1.1329    1.0850    5.2776 H   0  0  0  0  0  0  0  0  0  0  0  0
   -2.5537   -0.1591    3.7008 H   0  0  0  0  0  0  0  0  0  0  0  0
   -0.0822    2.2181   -4.3002 H   0  0  0  0  0  0  0  0  0  0  0  0
   -1.5832    4.1700   -4.3728 H   0  0  0  0  0  0  0  0  0  0  0  0
   -2.9925    7.7438   -0.9876 H   0  0  0  0  0  0  0  0  0  0  0  0
   -2.6396    6.2422   -0.1055 H   0  0  0  0  0  0  0  0  0  0  0  0
   -1.3016    7.2618   -0.7320 H   0  0  0  0  0  0  0  0  0  0  0  0
   -0.6390    5.0455   -0.2946 H   0  0  0  0  0  0  0  0  0  0  0  0
    0.8570    3.1152   -0.2326 H   0  0  0  0  0  0  0  0  0  0  0  0
    2.3998    2.8566   -3.9856 H   0  0  0  0  0  0  0  0  0  0  0  0
    3.7554    2.0402   -5.8661 H   0  0  0  0  0  0  0  0  0  0  0  0
    3.9715   -2.8167   -6.5341 H   0  0  0  0  0  0  0  0  0  0  0  0
    5.5696   -2.5332   -7.2545 H   0  0  0  0  0  0  0  0  0  0  0  0
    5.3703   -2.3873   -5.4938 H   0  0  0  0  0  0  0  0  0  0  0  0
    3.2531   -1.9741   -4.4806 H   0  0  0  0  0  0  0  0  0  0  0  0
    1.8666   -1.1724   -2.6540 H   0  0  0  0  0  0  0  0  0  0  0  0
    1.3332   -0.4309    3.7132 H   0  0  0  0  0  0  0  0  0  0  0  0
   -0.6729   -1.3100    4.7835 H   0  0  0  0  0  0  0  0  0  0  0  0
   -2.8249   -2.4892    3.9202 H   0  0  0  0  0  0  0  0  0  0  0  0
   -2.7106   -1.9944    5.6429 H   0  0  0  0  0  0  0  0  0  0  0  0
   -3.8049   -3.3039    5.1586 H   0  0  0  0  0  0  0  0  0  0  0  0
    0.6950   -5.3031    4.1243 H   0  0  0  0  0  0  0  0  0  0  0  0
    2.7212   -4.4195    3.0345 H   0  0  0  0  0  0  0  0  0  0  0  0
    4.8777   -3.0358    0.7707 H   0  0  0  0  0  0  0  0  0  0  0  0
    7.0770   -4.0006    1.1814 H   0  0  0  0  0  0  0  0  0  0  0  0
    9.3231   -3.5971    1.4611 H   0  0  0  0  0  0  0  0  0  0  0  0
    9.0150   -5.3552    1.6380 H   0  0  0  0  0  0  0  0  0  0  0  0
   10.4897   -4.6213    2.3162 H   0  0  0  0  0  0  0  0  0  0  0  0
    6.5865   -3.3350    5.3776 H   0  0  0  0  0  0  0  0  0  0  0  0
    4.3492   -2.3792    4.9570 H   0  0  0  0  0  0  0  0  0  0  0  0
   10.1054   -1.5571    2.9821 H   0  0  0  0  0  0  0  0  0  0  0  0
  1  2  2  0  0  0  0
  2  3  1  0  0  0  0
  3  4  2  0  0  0  0
  3  5  1  0  0  0  0
  5  6  2  0  0  0  0
  6  7  1  0  0  0  0
  6  8  1  0  0  0  0
  8  9  1  0  0  0  0
  8 10  2  0  0  0  0
 10 11  1  0  0  0  0
 10 12  1  0  0  0  0
 12 13  1  0  0  0  0
 12 14  2  0  0  0  0
 14 15  1  0  0  0  0
 15 16  2  0  0  0  0
 16 17  1  0  0  0  0
 17 18  3  0  0  0  0
 16 19  1  0  0  0  0
 19 20  3  0  0  0  0
  1 21  1  0  0  0  0
 21 22  2  0  0  0  0
 22 23  1  0  0  0  0
 23 24  1  0  0  0  0
 24 25  2  0  0  0  0
 25 26  1  0  0  0  0
 26 27  2  0  0  0  0
 27 28  1  0  0  0  0
 27 29  1  0  0  0  0
 29 30  2  0  0  0  0
 23 31  1  0  0  0  0
 31 32  2  0  0  0  0
 32 33  1  0  0  0  0
 33 34  2  0  0  0  0
 34 35  1  0  0  0  0
 34 36  1  0  0  0  0
 36 37  2  0  0  0  0
 22 38  1  0  0  0  0
 38 39  1  0  0  0  0
 39 40  1  0  0  0  0
 40 41  2  0  0  0  0
 41 42  1  0  0  0  0
 42 43  1  0  0  0  0
 43 44  2  0  0  0  0
 44 45  1  0  0  0  0
 45 46  2  0  0  0  0
 46 47  1  0  0  0  0
 46 48  1  0  0  0  0
 48 49  2  0  0  0  0
 42 50  1  0  0  0  0
 50 51  2  0  0  0  0
 51 52  1  0  0  0  0
 52 53  2  0  0  0  0
 53 54  1  0  0  0  0
 53 55  1  0  0  0  0
 55 56  2  0  0  0  0
 41 57  1  0  0  0  0
 57 58  1  0  0  0  0
 40 59  1  0  0  0  0
 59 60  2  0  0  0  0
 60 61  1  0  0  0  0
 61 62  1  0  0  0  0
 62 63  2  0  0  0  0
 63 64  1  0  0  0  0
 64 65  2  0  0  0  0
 65 66  1  0  0  0  0
 66 67  1  0  0  0  0
 65 68  1  0  0  0  0
 68 69  2  0  0  0  0
 61 70  1  0  0  0  0
 70 71  2  0  0  0  0
 71 72  1  0  0  0  0
 72 73  2  0  0  0  0
 73 74  1  0  0  0  0
 74 75  1  0  0  0  0
 73 76  1  0  0  0  0
 76 77  2  0  0  0  0
 60 78  1  0  0  0  0
 78 79  1  0  0  0  0
 79 80  1  0  0  0  0
 80 81  2  0  0  0  0
 81 82  1  0  0  0  0
 82 83  1  0  0  0  0
 83 84  2  0  0  0  0
 84 85  1  0  0  0  0
 85 86  2  0  0  0  0
 86 87  1  0  0  0  0
 87 88  1  0  0  0  0
 86 89  1  0  0  0  0
 89 90  2  0  0  0  0
 82 91  1  0  0  0  0
 91 92  2  0  0  0  0
 92 93  1  0  0  0  0
 93 94  2  0  0  0  0
 94 95  1  0  0  0  0
 95 96  1  0  0  0  0
 94 97  1  0  0  0  0
 97 98  2  0  0  0  0
 81 99  1  0  0  0  0
 99100  1  0  0  0  0
 80101  1  0  0  0  0
101102  2  0  0  0  0
102103  1  0  0  0  0
102104  1  0  0  0  0
104105  1  0  0  0  0
104106  2  0  0  0  0
106107  1  0  0  0  0
107108  1  0  0  0  0
107109  2  0  0  0  0
109110  1  0  0  0  0
106111  1  0  0  0  0
111112  2  0  0  0  0
112113  1  0  0  0  0
113114  2  0  0  0  0
113115  1  0  0  0  0
115116  2  0  0  0  0
116117  1  0  0  0  0
116118  1  0  0  0  0
118119  1  0  0  0  0
118120  2  0  0  0  0
120121  1  0  0  0  0
120122  1  0  0  0  0
122123  1  0  0  0  0
122124  2  0  0  0  0
124125  1  0  0  0  0
125126  2  0  0  0  0
126127  1  0  0  0  0
127128  3  0  0  0  0
126129  1  0  0  0  0
129130  3  0  0  0  0
 15  2  1  0  0  0  0
 58 21  1  0  0  0  0
100 59  1  0  0  0  0
109101  1  0  0  0  0
125112  1  0  0  0  0
 14  5  1  0  0  0  0
 30 24  1  0  0  0  0
 37 31  1  0  0  0  0
 57 38  2  0  0  0  0
 69 62  1  0  0  0  0
 77 70  1  0  0  0  0
 99 78  2  0  0  0  0
124115  1  0  0  0  0
 49 43  1  0  0  0  0
 56 50  1  0  0  0  0
 90 83  1  0  0  0  0
 98 91  1  0  0  0  0
  1131  1  0  0  0  0
 25132  1  0  0  0  0
 26133  1  0  0  0  0
 28134  1  0  0  0  0
 28135  1  0  0  0  0
 28136  1  0  0  0  0
 29137  1  0  0  0  0
 30138  1  0  0  0  0
 32139  1  0  0  0  0
 33140  1  0  0  0  0
 35141  1  0  0  0  0
 35142  1  0  0  0  0
 35143  1  0  0  0  0
 36144  1  0  0  0  0
 37145  1  0  0  0  0
 44146  1  0  0  0  0
 45147  1  0  0  0  0
 47148  1  0  0  0  0
 47149  1  0  0  0  0
 47150  1  0  0  0  0
 48151  1  0  0  0  0
 49152  1  0  0  0  0
 51153  1  0  0  0  0
 52154  1  0  0  0  0
 54155  1  0  0  0  0
 54156  1  0  0  0  0
 54157  1  0  0  0  0
 55158  1  0  0  0  0
 56159  1  0  0  0  0
 63160  1  0  0  0  0
 64161  1  0  0  0  0
 67162  1  0  0  0  0
 67163  1  0  0  0  0
 67164  1  0  0  0  0
 68165  1  0  0  0  0
 69166  1  0  0  0  0
 71167  1  0  0  0  0
 72168  1  0  0  0  0
 75169  1  0  0  0  0
 75170  1  0  0  0  0
 75171  1  0  0  0  0
 76172  1  0  0  0  0
 77173  1  0  0  0  0
 84174  1  0  0  0  0
 85175  1  0  0  0  0
 88176  1  0  0  0  0
 88177  1  0  0  0  0
 88178  1  0  0  0  0
 89179  1  0  0  0  0
 90180  1  0  0  0  0
 92181  1  0  0  0  0
 93182  1  0  0  0  0
 96183  1  0  0  0  0
 96184  1  0  0  0  0
 96185  1  0  0  0  0
 97186  1  0  0  0  0
 98187  1  0  0  0  0
111188  1  0  0  0  0
M  END
