
  xtb     02122204023D
 energy: -387.661905551439 gnorm: 0.000622242799 xtb: 6.4.1 (unknown)
235258  0     0  0            999 V2000
   -7.6752   -6.8316   -4.6481 C   0  0  0  0  0  0  0  0  0  0  0  0
   -8.1470   -7.0321   -5.9327 C   0  0  0  0  0  0  0  0  0  0  0  0
   -7.5496   -6.4909   -7.1469 C   0  0  0  0  0  0  0  0  0  0  0  0
   -6.6848   -5.6409   -7.2479 O   0  0  0  0  0  0  0  0  0  0  0  0
   -8.2105   -7.1990   -8.2692 C   0  0  0  0  0  0  0  0  0  0  0  0
   -8.0270   -7.0177   -9.6262 C   0  0  0  0  0  0  0  0  0  0  0  0
   -6.8373   -5.9553  -10.2271 Cl  0  0  0  0  0  0  0  0  0  0  0  0
   -8.8524   -7.7257  -10.5105 C   0  0  0  0  0  0  0  0  0  0  0  0
   -8.6368   -7.5626  -12.2000 Cl  0  0  0  0  0  0  0  0  0  0  0  0
   -9.8725   -8.5312  -10.0111 C   0  0  0  0  0  0  0  0  0  0  0  0
  -10.9235   -9.3209  -11.1073 Cl  0  0  0  0  0  0  0  0  0  0  0  0
  -10.0650   -8.6980   -8.6295 C   0  0  0  0  0  0  0  0  0  0  0  0
  -11.4412   -9.5820   -8.1114 Cl  0  0  0  0  0  0  0  0  0  0  0  0
   -9.1821   -8.0804   -7.7513 C   0  0  0  0  0  0  0  0  0  0  0  0
   -9.1115   -8.0393   -6.2922 C   0  0  0  0  0  0  0  0  0  0  0  0
   -9.7581   -8.8815   -5.4083 C   0  0  0  0  0  0  0  0  0  0  0  0
   -9.9475   -8.6015   -4.0427 C   0  0  0  0  0  0  0  0  0  0  0  0
  -10.2200   -8.4159   -2.9402 N   0  0  0  0  0  0  0  0  0  0  0  0
  -10.1919  -10.1905   -5.6829 C   0  0  0  0  0  0  0  0  0  0  0  0
  -10.4209  -11.3152   -5.7499 N   0  0  0  0  0  0  0  0  0  0  0  0
   -6.6482   -6.0306   -4.1716 C   0  0  0  0  0  0  0  0  0  0  0  0
   -6.1701   -6.0985   -2.8318 C   0  0  0  0  0  0  0  0  0  0  0  0
   -6.5184   -7.0371   -1.9025 N   0  0  0  0  0  0  0  0  0  0  0  0
   -6.8259   -8.3715   -2.2293 C   0  0  0  0  0  0  0  0  0  0  0  0
   -6.1646   -9.0229   -3.2699 C   0  0  0  0  0  0  0  0  0  0  0  0
   -6.5198  -10.3100   -3.6138 C   0  0  0  0  0  0  0  0  0  0  0  0
   -7.5146  -10.9946   -2.9195 C   0  0  0  0  0  0  0  0  0  0  0  0
   -7.9380  -12.3647   -3.3425 C   0  0  0  0  0  0  0  0  0  0  0  0
   -8.1204  -10.3585   -1.8439 C   0  0  0  0  0  0  0  0  0  0  0  0
   -7.7927   -9.0601   -1.5021 C   0  0  0  0  0  0  0  0  0  0  0  0
   -6.4685   -6.6729   -0.5397 C   0  0  0  0  0  0  0  0  0  0  0  0
   -7.0370   -5.4727   -0.1222 C   0  0  0  0  0  0  0  0  0  0  0  0
   -6.9628   -5.0965    1.2037 C   0  0  0  0  0  0  0  0  0  0  0  0
   -6.3342   -5.9057    2.1426 C   0  0  0  0  0  0  0  0  0  0  0  0
   -6.2197   -5.4740    3.5716 C   0  0  0  0  0  0  0  0  0  0  0  0
   -5.7934   -7.1148    1.7193 C   0  0  0  0  0  0  0  0  0  0  0  0
   -5.8552   -7.5002    0.3949 C   0  0  0  0  0  0  0  0  0  0  0  0
   -5.2504   -5.0661   -2.5832 C   0  0  0  0  0  0  0  0  0  0  0  0
   -4.3244   -4.5951   -1.1943 S   0  0  0  0  0  0  0  0  0  0  0  0
   -3.5707   -3.3228   -2.1262 C   0  0  0  0  0  0  0  0  0  0  0  0
   -4.0637   -3.2183   -3.4176 C   0  0  0  0  0  0  0  0  0  0  0  0
   -3.7677   -2.1857   -4.2846 N   0  0  0  0  0  0  0  0  0  0  0  0
   -3.4963   -0.9070   -3.7694 C   0  0  0  0  0  0  0  0  0  0  0  0
   -4.1998   -0.4237   -2.6680 C   0  0  0  0  0  0  0  0  0  0  0  0
   -3.8197    0.7555   -2.0603 C   0  0  0  0  0  0  0  0  0  0  0  0
   -2.7549    1.5011   -2.5496 C   0  0  0  0  0  0  0  0  0  0  0  0
   -2.2933    2.7407   -1.8477 C   0  0  0  0  0  0  0  0  0  0  0  0
   -2.1257    1.0659   -3.7100 C   0  0  0  0  0  0  0  0  0  0  0  0
   -2.4817   -0.1252   -4.3134 C   0  0  0  0  0  0  0  0  0  0  0  0
   -3.7878   -2.4144   -5.6697 C   0  0  0  0  0  0  0  0  0  0  0  0
   -3.2951   -3.6067   -6.1940 C   0  0  0  0  0  0  0  0  0  0  0  0
   -3.3580   -3.8450   -7.5521 C   0  0  0  0  0  0  0  0  0  0  0  0
   -3.8952   -2.9033   -8.4208 C   0  0  0  0  0  0  0  0  0  0  0  0
   -3.9900   -3.1898   -9.8871 C   0  0  0  0  0  0  0  0  0  0  0  0
   -4.3589   -1.7054   -7.8913 C   0  0  0  0  0  0  0  0  0  0  0  0
   -4.3122   -1.4584   -6.5337 C   0  0  0  0  0  0  0  0  0  0  0  0
   -4.9996   -4.2501   -3.6820 C   0  0  0  0  0  0  0  0  0  0  0  0
   -5.8565   -4.7478   -5.0946 S   0  0  0  0  0  0  0  0  0  0  0  0
   -2.6182   -2.4489   -1.4940 C   0  0  0  0  0  0  0  0  0  0  0  0
   -1.3946   -2.0122   -1.9105 C   0  0  0  0  0  0  0  0  0  0  0  0
   -0.9443   -1.0791   -0.9356 C   0  0  0  0  0  0  0  0  0  0  0  0
    0.2121   -0.2947   -0.8029 C   0  0  0  0  0  0  0  0  0  0  0  0
    1.3272   -0.2945   -1.7533 C   0  0  0  0  0  0  0  0  0  0  0  0
    1.1030   -0.3710   -3.1267 C   0  0  0  0  0  0  0  0  0  0  0  0
    2.1610   -0.3698   -4.0138 C   0  0  0  0  0  0  0  0  0  0  0  0
    3.4738   -0.2913   -3.5637 C   0  0  0  0  0  0  0  0  0  0  0  0
    4.6193   -0.3554   -4.5325 C   0  0  0  0  0  0  0  0  0  0  0  0
    4.9400   -1.8101   -4.8823 C   0  0  0  0  0  0  0  0  0  0  0  0
    3.6963   -0.2001   -2.1955 C   0  0  0  0  0  0  0  0  0  0  0  0
    2.6433   -0.1992   -1.3023 C   0  0  0  0  0  0  0  0  0  0  0  0
    0.2166    0.5006    0.3356 C   0  0  0  0  0  0  0  0  0  0  0  0
   -0.8364    0.5831    1.2842 C   0  0  0  0  0  0  0  0  0  0  0  0
   -1.9876   -0.2085    1.1538 C   0  0  0  0  0  0  0  0  0  0  0  0
   -3.1329   -0.1566    2.0633 C   0  0  0  0  0  0  0  0  0  0  0  0
   -3.8277   -1.3166    2.4039 C   0  0  0  0  0  0  0  0  0  0  0  0
   -4.9315   -1.2565    3.2307 C   0  0  0  0  0  0  0  0  0  0  0  0
   -5.3810   -0.0436    3.7382 C   0  0  0  0  0  0  0  0  0  0  0  0
   -6.5579    0.0113    4.6690 C   0  0  0  0  0  0  0  0  0  0  0  0
   -6.0977   -0.1290    6.1215 C   0  0  0  0  0  0  0  0  0  0  0  0
   -4.6885    1.1113    3.3964 C   0  0  0  0  0  0  0  0  0  0  0  0
   -3.5826    1.0608    2.5709 C   0  0  0  0  0  0  0  0  0  0  0  0
   -1.9732   -1.0419    0.0413 C   0  0  0  0  0  0  0  0  0  0  0  0
   -2.9668   -1.8938   -0.3021 O   0  0  0  0  0  0  0  0  0  0  0  0
   -0.3912    1.5185    2.2608 C   0  0  0  0  0  0  0  0  0  0  0  0
    0.8459    1.9440    1.8567 C   0  0  0  0  0  0  0  0  0  0  0  0
    1.2167    1.3368    0.6930 O   0  0  0  0  0  0  0  0  0  0  0  0
    1.8503    2.7968    2.4035 C   0  0  0  0  0  0  0  0  0  0  0  0
    1.8103    3.8125    3.3485 C   0  0  0  0  0  0  0  0  0  0  0  0
    0.6829    4.2934    3.9885 N   0  0  0  0  0  0  0  0  0  0  0  0
   -0.5372    4.4365    3.3193 C   0  0  0  0  0  0  0  0  0  0  0  0
   -1.7352    4.3328    4.0265 C   0  0  0  0  0  0  0  0  0  0  0  0
   -2.9424    4.4782    3.3759 C   0  0  0  0  0  0  0  0  0  0  0  0
   -3.0004    4.7132    2.0055 C   0  0  0  0  0  0  0  0  0  0  0  0
   -4.3226    4.8296    1.3101 C   0  0  0  0  0  0  0  0  0  0  0  0
   -1.8040    4.8169    1.3089 C   0  0  0  0  0  0  0  0  0  0  0  0
   -0.5876    4.6861    1.9506 C   0  0  0  0  0  0  0  0  0  0  0  0
    0.8294    4.7789    5.3012 C   0  0  0  0  0  0  0  0  0  0  0  0
    1.5919    4.0678    6.2244 C   0  0  0  0  0  0  0  0  0  0  0  0
    1.7585    4.5520    7.5061 C   0  0  0  0  0  0  0  0  0  0  0  0
    1.1661    5.7445    7.9049 C   0  0  0  0  0  0  0  0  0  0  0  0
    1.3727    6.2702    9.2921 C   0  0  0  0  0  0  0  0  0  0  0  0
    0.3998    6.4425    6.9796 C   0  0  0  0  0  0  0  0  0  0  0  0
    0.2336    5.9744    5.6915 C   0  0  0  0  0  0  0  0  0  0  0  0
    3.1090    4.3474    3.5467 C   0  0  0  0  0  0  0  0  0  0  0  0
    3.7695    5.6063    4.5291 S   0  0  0  0  0  0  0  0  0  0  0  0
    5.3890    5.3056    3.8964 C   0  0  0  0  0  0  0  0  0  0  0  0
    5.3957    4.2840    2.9411 C   0  0  0  0  0  0  0  0  0  0  0  0
    6.4286    3.9460    2.0917 N   0  0  0  0  0  0  0  0  0  0  0  0
    6.1324    3.7827    0.7302 C   0  0  0  0  0  0  0  0  0  0  0  0
    6.7341    2.7791   -0.0243 C   0  0  0  0  0  0  0  0  0  0  0  0
    6.4037    2.6211   -1.3560 C   0  0  0  0  0  0  0  0  0  0  0  0
    5.4713    3.4462   -1.9720 C   0  0  0  0  0  0  0  0  0  0  0  0
    5.0746    3.2333   -3.3999 C   0  0  0  0  0  0  0  0  0  0  0  0
    4.8991    4.4650   -1.2193 C   0  0  0  0  0  0  0  0  0  0  0  0
    5.2274    4.6423    0.1083 C   0  0  0  0  0  0  0  0  0  0  0  0
    7.6714    3.4583    2.5619 C   0  0  0  0  0  0  0  0  0  0  0  0
    7.7171    2.3022    3.3323 C   0  0  0  0  0  0  0  0  0  0  0  0
    8.9368    1.8024    3.7454 C   0  0  0  0  0  0  0  0  0  0  0  0
   10.1235    2.4424    3.4087 C   0  0  0  0  0  0  0  0  0  0  0  0
   11.4356    1.8874    3.8718 C   0  0  0  0  0  0  0  0  0  0  0  0
   10.0623    3.6013    2.6441 C   0  0  0  0  0  0  0  0  0  0  0  0
    8.8489    4.1034    2.2116 C   0  0  0  0  0  0  0  0  0  0  0  0
    4.0903    3.7671    2.7603 C   0  0  0  0  0  0  0  0  0  0  0  0
    3.4506    2.5416    1.7283 S   0  0  0  0  0  0  0  0  0  0  0  0
    6.4043    6.2307    4.2341 C   0  0  0  0  0  0  0  0  0  0  0  0
    7.6865    5.9236    4.5962 C   0  0  0  0  0  0  0  0  0  0  0  0
    8.0499    4.6654    5.2778 C   0  0  0  0  0  0  0  0  0  0  0  0
    7.3339    3.7052    5.4763 O   0  0  0  0  0  0  0  0  0  0  0  0
    9.4136    4.8788    5.8014 C   0  0  0  0  0  0  0  0  0  0  0  0
   10.1726    3.9855    6.5533 C   0  0  0  0  0  0  0  0  0  0  0  0
   11.4079    4.4667    6.9181 C   0  0  0  0  0  0  0  0  0  0  0  0
   11.8494    5.7531    6.5828 C   0  0  0  0  0  0  0  0  0  0  0  0
   11.1090    6.6479    5.8472 C   0  0  0  0  0  0  0  0  0  0  0  0
    9.8569    6.1698    5.4515 C   0  0  0  0  0  0  0  0  0  0  0  0
    8.8106    6.8223    4.6710 C   0  0  0  0  0  0  0  0  0  0  0  0
    8.9081    8.0229    4.0134 C   0  0  0  0  0  0  0  0  0  0  0  0
    7.9027    8.5217    3.1600 C   0  0  0  0  0  0  0  0  0  0  0  0
    7.1349    8.9611    2.4273 N   0  0  0  0  0  0  0  0  0  0  0  0
   10.0291    8.8731    4.0636 C   0  0  0  0  0  0  0  0  0  0  0  0
   10.9114    9.6088    4.0698 N   0  0  0  0  0  0  0  0  0  0  0  0
   13.1664    5.5765    7.2986 C   0  0  0  0  0  0  0  0  0  0  0  0
   14.4049    5.3151    6.4165 C   0  0  0  0  0  0  0  0  0  0  0  0
   15.4102    4.7098    7.3689 C   0  0  0  0  0  0  0  0  0  0  0  0
   14.9964    3.4849    7.6669 C   0  0  0  0  0  0  0  0  0  0  0  0
   13.7032    3.2426    6.9222 C   0  0  0  0  0  0  0  0  0  0  0  0
   13.9731    4.0582    5.6510 C   0  0  0  0  0  0  0  0  0  0  0  0
   12.6812    4.1354    7.6583 C   0  0  0  0  0  0  0  0  0  0  0  0
   -8.1569   -7.4255   -3.8830 H   0  0  0  0  0  0  0  0  0  0  0  0
   -5.3870   -8.5085   -3.8154 H   0  0  0  0  0  0  0  0  0  0  0  0
   -6.0131  -10.7972   -4.4343 H   0  0  0  0  0  0  0  0  0  0  0  0
   -8.3115  -12.9357   -2.4962 H   0  0  0  0  0  0  0  0  0  0  0  0
   -8.7424  -12.2887   -4.0769 H   0  0  0  0  0  0  0  0  0  0  0  0
   -7.1139  -12.9046   -3.8029 H   0  0  0  0  0  0  0  0  0  0  0  0
   -8.8843  -10.8733   -1.2815 H   0  0  0  0  0  0  0  0  0  0  0  0
   -8.2986   -8.5686   -0.6859 H   0  0  0  0  0  0  0  0  0  0  0  0
   -7.5369   -4.8419   -0.8425 H   0  0  0  0  0  0  0  0  0  0  0  0
   -7.4020   -4.1596    1.5134 H   0  0  0  0  0  0  0  0  0  0  0  0
   -7.0454   -4.8224    3.8483 H   0  0  0  0  0  0  0  0  0  0  0  0
   -5.2892   -4.9235    3.7163 H   0  0  0  0  0  0  0  0  0  0  0  0
   -6.2077   -6.3326    4.2385 H   0  0  0  0  0  0  0  0  0  0  0  0
   -5.3070   -7.7602    2.4359 H   0  0  0  0  0  0  0  0  0  0  0  0
   -5.4219   -8.4363    0.0754 H   0  0  0  0  0  0  0  0  0  0  0  0
   -5.0253   -0.9937   -2.2677 H   0  0  0  0  0  0  0  0  0  0  0  0
   -4.3505    1.0921   -1.1813 H   0  0  0  0  0  0  0  0  0  0  0  0
   -2.5964    3.6294   -2.4023 H   0  0  0  0  0  0  0  0  0  0  0  0
   -1.2073    2.7479   -1.7684 H   0  0  0  0  0  0  0  0  0  0  0  0
   -2.7156    2.7937   -0.8472 H   0  0  0  0  0  0  0  0  0  0  0  0
   -1.3204    1.6537   -4.1270 H   0  0  0  0  0  0  0  0  0  0  0  0
   -1.9599   -0.4717   -5.1940 H   0  0  0  0  0  0  0  0  0  0  0  0
   -2.8598   -4.3407   -5.5312 H   0  0  0  0  0  0  0  0  0  0  0  0
   -2.9839   -4.7786   -7.9453 H   0  0  0  0  0  0  0  0  0  0  0  0
   -4.1365   -2.2756  -10.4570 H   0  0  0  0  0  0  0  0  0  0  0  0
   -4.8366   -3.8495  -10.0760 H   0  0  0  0  0  0  0  0  0  0  0  0
   -3.0919   -3.6902  -10.2441 H   0  0  0  0  0  0  0  0  0  0  0  0
   -4.7774   -0.9577   -8.5497 H   0  0  0  0  0  0  0  0  0  0  0  0
   -4.6897   -0.5292   -6.1325 H   0  0  0  0  0  0  0  0  0  0  0  0
   -0.8812   -2.3350   -2.7918 H   0  0  0  0  0  0  0  0  0  0  0  0
    0.0906   -0.4018   -3.4965 H   0  0  0  0  0  0  0  0  0  0  0  0
    1.9661   -0.4258   -5.0760 H   0  0  0  0  0  0  0  0  0  0  0  0
    4.3644    0.1856   -5.4468 H   0  0  0  0  0  0  0  0  0  0  0  0
    5.5030    0.1104   -4.0929 H   0  0  0  0  0  0  0  0  0  0  0  0
    4.0729   -2.2935   -5.3265 H   0  0  0  0  0  0  0  0  0  0  0  0
    5.2161   -2.3612   -3.9860 H   0  0  0  0  0  0  0  0  0  0  0  0
    5.7653   -1.8593   -5.5891 H   0  0  0  0  0  0  0  0  0  0  0  0
    4.7076   -0.1255   -1.8219 H   0  0  0  0  0  0  0  0  0  0  0  0
    2.8460   -0.1374   -0.2449 H   0  0  0  0  0  0  0  0  0  0  0  0
   -3.4946   -2.2701    2.0242 H   0  0  0  0  0  0  0  0  0  0  0  0
   -5.4581   -2.1661    3.4837 H   0  0  0  0  0  0  0  0  0  0  0  0
   -7.0828    0.9614    4.5488 H   0  0  0  0  0  0  0  0  0  0  0  0
   -7.2549   -0.7957    4.4336 H   0  0  0  0  0  0  0  0  0  0  0  0
   -5.4116    0.6745    6.3797 H   0  0  0  0  0  0  0  0  0  0  0  0
   -6.9492   -0.0901    6.7971 H   0  0  0  0  0  0  0  0  0  0  0  0
   -5.5827   -1.0764    6.2649 H   0  0  0  0  0  0  0  0  0  0  0  0
   -5.0270    2.0654    3.7755 H   0  0  0  0  0  0  0  0  0  0  0  0
   -3.0758    1.9730    2.2950 H   0  0  0  0  0  0  0  0  0  0  0  0
   -0.9000    1.8037    3.1570 H   0  0  0  0  0  0  0  0  0  0  0  0
   -1.7109    4.1361    5.0883 H   0  0  0  0  0  0  0  0  0  0  0  0
   -3.8601    4.4004    3.9408 H   0  0  0  0  0  0  0  0  0  0  0  0
   -4.1973    5.1959    0.2943 H   0  0  0  0  0  0  0  0  0  0  0  0
   -4.9814    5.5085    1.8489 H   0  0  0  0  0  0  0  0  0  0  0  0
   -4.8127    3.8560    1.2667 H   0  0  0  0  0  0  0  0  0  0  0  0
   -1.8191    5.0138    0.2469 H   0  0  0  0  0  0  0  0  0  0  0  0
    0.3284    4.7915    1.3894 H   0  0  0  0  0  0  0  0  0  0  0  0
    2.0501    3.1345    5.9306 H   0  0  0  0  0  0  0  0  0  0  0  0
    2.3558    3.9921    8.2109 H   0  0  0  0  0  0  0  0  0  0  0  0
    0.6165    7.0089    9.5458 H   0  0  0  0  0  0  0  0  0  0  0  0
    2.3514    6.7450    9.3672 H   0  0  0  0  0  0  0  0  0  0  0  0
    1.3373    5.4632   10.0210 H   0  0  0  0  0  0  0  0  0  0  0  0
   -0.0663    7.3738    7.2672 H   0  0  0  0  0  0  0  0  0  0  0  0
   -0.3537    6.5348    4.9791 H   0  0  0  0  0  0  0  0  0  0  0  0
    7.4498    2.1168    0.4396 H   0  0  0  0  0  0  0  0  0  0  0  0
    6.8757    1.8328   -1.9250 H   0  0  0  0  0  0  0  0  0  0  0  0
    5.9004    2.8242   -3.9773 H   0  0  0  0  0  0  0  0  0  0  0  0
    4.7538    4.1666   -3.8565 H   0  0  0  0  0  0  0  0  0  0  0  0
    4.2439    2.5277   -3.4496 H   0  0  0  0  0  0  0  0  0  0  0  0
    4.1889    5.1346   -1.6822 H   0  0  0  0  0  0  0  0  0  0  0  0
    4.7851    5.4504    0.6726 H   0  0  0  0  0  0  0  0  0  0  0  0
    6.7981    1.8033    3.5983 H   0  0  0  0  0  0  0  0  0  0  0  0
    8.9682    0.9017    4.3408 H   0  0  0  0  0  0  0  0  0  0  0  0
   11.5601    2.0660    4.9395 H   0  0  0  0  0  0  0  0  0  0  0  0
   12.2651    2.3539    3.3465 H   0  0  0  0  0  0  0  0  0  0  0  0
   11.4755    0.8123    3.7060 H   0  0  0  0  0  0  0  0  0  0  0  0
   10.9751    4.1163    2.3796 H   0  0  0  0  0  0  0  0  0  0  0  0
    8.8047    4.9974    1.6065 H   0  0  0  0  0  0  0  0  0  0  0  0
    6.0963    7.2712    4.2385 H   0  0  0  0  0  0  0  0  0  0  0  0
    9.7849    3.0116    6.8085 H   0  0  0  0  0  0  0  0  0  0  0  0
   11.4526    7.6402    5.6055 H   0  0  0  0  0  0  0  0  0  0  0  0
   13.3603    6.2757    8.1097 H   0  0  0  0  0  0  0  0  0  0  0  0
   14.7361    6.1692    5.8322 H   0  0  0  0  0  0  0  0  0  0  0  0
   16.2614    5.2368    7.7582 H   0  0  0  0  0  0  0  0  0  0  0  0
   15.4320    2.7847    8.3554 H   0  0  0  0  0  0  0  0  0  0  0  0
   13.4012    2.2054    6.8000 H   0  0  0  0  0  0  0  0  0  0  0  0
   13.0966    4.2079    5.0242 H   0  0  0  0  0  0  0  0  0  0  0  0
   14.7826    3.6372    5.0566 H   0  0  0  0  0  0  0  0  0  0  0  0
   12.5660    3.8710    8.7080 H   0  0  0  0  0  0  0  0  0  0  0  0
  1  2  2  0  0  0  0
  2  3  1  0  0  0  0
  3  4  2  0  0  0  0
  3  5  1  0  0  0  0
  5  6  2  0  0  0  0
  6  7  1  0  0  0  0
  6  8  1  0  0  0  0
  8  9  1  0  0  0  0
  8 10  2  0  0  0  0
 10 11  1  0  0  0  0
 10 12  1  0  0  0  0
 12 13  1  0  0  0  0
 12 14  2  0  0  0  0
 14 15  1  0  0  0  0
 15 16  2  0  0  0  0
 16 17  1  0  0  0  0
 17 18  3  0  0  0  0
 16 19  1  0  0  0  0
 19 20  3  0  0  0  0
  1 21  1  0  0  0  0
 21 22  2  0  0  0  0
 22 23  1  0  0  0  0
 23 24  1  0  0  0  0
 24 25  2  0  0  0  0
 25 26  1  0  0  0  0
 26 27  2  0  0  0  0
 27 28  1  0  0  0  0
 27 29  1  0  0  0  0
 29 30  2  0  0  0  0
 23 31  1  0  0  0  0
 31 32  2  0  0  0  0
 32 33  1  0  0  0  0
 33 34  2  0  0  0  0
 34 35  1  0  0  0  0
 34 36  1  0  0  0  0
 36 37  2  0  0  0  0
 22 38  1  0  0  0  0
 38 39  1  0  0  0  0
 39 40  1  0  0  0  0
 40 41  2  0  0  0  0
 41 42  1  0  0  0  0
 42 43  1  0  0  0  0
 43 44  2  0  0  0  0
 44 45  1  0  0  0  0
 45 46  2  0  0  0  0
 46 47  1  0  0  0  0
 46 48  1  0  0  0  0
 48 49  2  0  0  0  0
 42 50  1  0  0  0  0
 50 51  2  0  0  0  0
 51 52  1  0  0  0  0
 52 53  2  0  0  0  0
 53 54  1  0  0  0  0
 53 55  1  0  0  0  0
 55 56  2  0  0  0  0
 41 57  1  0  0  0  0
 57 58  1  0  0  0  0
 40 59  1  0  0  0  0
 59 60  2  0  0  0  0
 60 61  1  0  0  0  0
 61 62  2  0  0  0  0
 62 63  1  0  0  0  0
 63 64  2  0  0  0  0
 64 65  1  0  0  0  0
 65 66  2  0  0  0  0
 66 67  1  0  0  0  0
 67 68  1  0  0  0  0
 66 69  1  0  0  0  0
 69 70  2  0  0  0  0
 62 71  1  0  0  0  0
 71 72  2  0  0  0  0
 72 73  1  0  0  0  0
 73 74  1  0  0  0  0
 74 75  2  0  0  0  0
 75 76  1  0  0  0  0
 76 77  2  0  0  0  0
 77 78  1  0  0  0  0
 78 79  1  0  0  0  0
 77 80  1  0  0  0  0
 80 81  2  0  0  0  0
 73 82  2  0  0  0  0
 82 83  1  0  0  0  0
 72 84  1  0  0  0  0
 84 85  2  0  0  0  0
 85 86  1  0  0  0  0
 85 87  1  0  0  0  0
 87 88  2  0  0  0  0
 88 89  1  0  0  0  0
 89 90  1  0  0  0  0
 90 91  2  0  0  0  0
 91 92  1  0  0  0  0
 92 93  2  0  0  0  0
 93 94  1  0  0  0  0
 93 95  1  0  0  0  0
 95 96  2  0  0  0  0
 89 97  1  0  0  0  0
 97 98  2  0  0  0  0
 98 99  1  0  0  0  0
 99100  2  0  0  0  0
100101  1  0  0  0  0
100102  1  0  0  0  0
102103  2  0  0  0  0
 88104  1  0  0  0  0
104105  1  0  0  0  0
105106  1  0  0  0  0
106107  2  0  0  0  0
107108  1  0  0  0  0
108109  1  0  0  0  0
109110  2  0  0  0  0
110111  1  0  0  0  0
111112  2  0  0  0  0
112113  1  0  0  0  0
112114  1  0  0  0  0
114115  2  0  0  0  0
108116  1  0  0  0  0
116117  2  0  0  0  0
117118  1  0  0  0  0
118119  2  0  0  0  0
119120  1  0  0  0  0
119121  1  0  0  0  0
121122  2  0  0  0  0
107123  1  0  0  0  0
123124  1  0  0  0  0
106125  1  0  0  0  0
125126  2  0  0  0  0
126127  1  0  0  0  0
127128  2  0  0  0  0
127129  1  0  0  0  0
129130  2  0  0  0  0
130131  1  0  0  0  0
131132  2  0  0  0  0
132133  1  0  0  0  0
133134  2  0  0  0  0
134135  1  0  0  0  0
135136  2  0  0  0  0
136137  1  0  0  0  0
137138  3  0  0  0  0
136139  1  0  0  0  0
139140  3  0  0  0  0
132141  1  0  0  0  0
141142  1  0  0  0  0
142143  1  0  0  0  0
143144  2  0  0  0  0
144145  1  0  0  0  0
145146  1  0  0  0  0
145147  1  0  0  0  0
 15  2  1  0  0  0  0
 58 21  1  0  0  0  0
 83 59  1  0  0  0  0
124 87  1  0  0  0  0
135126  1  0  0  0  0
147141  1  0  0  0  0
 14  5  1  0  0  0  0
 30 24  1  0  0  0  0
 37 31  1  0  0  0  0
 57 38  2  0  0  0  0
 82 61  1  0  0  0  0
 96 90  1  0  0  0  0
103 97  1  0  0  0  0
123104  2  0  0  0  0
134129  1  0  0  0  0
146142  1  0  0  0  0
 49 43  1  0  0  0  0
 56 50  1  0  0  0  0
 70 63  1  0  0  0  0
 86 71  1  0  0  0  0
115109  1  0  0  0  0
122116  1  0  0  0  0
147131  1  0  0  0  0
 81 74  1  0  0  0  0
  1148  1  0  0  0  0
 25149  1  0  0  0  0
 26150  1  0  0  0  0
 28151  1  0  0  0  0
 28152  1  0  0  0  0
 28153  1  0  0  0  0
 29154  1  0  0  0  0
 30155  1  0  0  0  0
 32156  1  0  0  0  0
 33157  1  0  0  0  0
 35158  1  0  0  0  0
 35159  1  0  0  0  0
 35160  1  0  0  0  0
 36161  1  0  0  0  0
 37162  1  0  0  0  0
 44163  1  0  0  0  0
 45164  1  0  0  0  0
 47165  1  0  0  0  0
 47166  1  0  0  0  0
 47167  1  0  0  0  0
 48168  1  0  0  0  0
 49169  1  0  0  0  0
 51170  1  0  0  0  0
 52171  1  0  0  0  0
 54172  1  0  0  0  0
 54173  1  0  0  0  0
 54174  1  0  0  0  0
 55175  1  0  0  0  0
 56176  1  0  0  0  0
 60177  1  0  0  0  0
 64178  1  0  0  0  0
 65179  1  0  0  0  0
 67180  1  0  0  0  0
 67181  1  0  0  0  0
 68182  1  0  0  0  0
 68183  1  0  0  0  0
 68184  1  0  0  0  0
 69185  1  0  0  0  0
 70186  1  0  0  0  0
 75187  1  0  0  0  0
 76188  1  0  0  0  0
 78189  1  0  0  0  0
 78190  1  0  0  0  0
 79191  1  0  0  0  0
 79192  1  0  0  0  0
 79193  1  0  0  0  0
 80194  1  0  0  0  0
 81195  1  0  0  0  0
 84196  1  0  0  0  0
 91197  1  0  0  0  0
 92198  1  0  0  0  0
 94199  1  0  0  0  0
 94200  1  0  0  0  0
 94201  1  0  0  0  0
 95202  1  0  0  0  0
 96203  1  0  0  0  0
 98204  1  0  0  0  0
 99205  1  0  0  0  0
101206  1  0  0  0  0
101207  1  0  0  0  0
101208  1  0  0  0  0
102209  1  0  0  0  0
103210  1  0  0  0  0
110211  1  0  0  0  0
111212  1  0  0  0  0
113213  1  0  0  0  0
113214  1  0  0  0  0
113215  1  0  0  0  0
114216  1  0  0  0  0
115217  1  0  0  0  0
117218  1  0  0  0  0
118219  1  0  0  0  0
120220  1  0  0  0  0
120221  1  0  0  0  0
120222  1  0  0  0  0
121223  1  0  0  0  0
122224  1  0  0  0  0
125225  1  0  0  0  0
130226  1  0  0  0  0
133227  1  0  0  0  0
141228  1  0  0  0  0
142229  1  0  0  0  0
143230  1  0  0  0  0
144231  1  0  0  0  0
145232  1  0  0  0  0
146233  1  0  0  0  0
146234  1  0  0  0  0
147235  1  0  0  0  0
M  END
