
  xtb     02112206243D
 energy: -416.293700727982 gnorm: 0.000530074182 xtb: 6.4.1 (unknown)
244265  0     0  0            999 V2000
   -6.2141   -4.1848   -4.8988 C   0  0  0  0  0  0  0  0  0  0  0  0
   -5.8408   -5.0966   -5.8449 C   0  0  0  0  0  0  0  0  0  0  0  0
   -6.3963   -4.9516   -7.2086 C   0  0  0  0  0  0  0  0  0  0  0  0
   -7.2472   -4.1721   -7.5677 O   0  0  0  0  0  0  0  0  0  0  0  0
   -5.6531   -5.9320   -8.0343 C   0  0  0  0  0  0  0  0  0  0  0  0
   -5.7116   -6.1136   -9.4046 C   0  0  0  0  0  0  0  0  0  0  0  0
   -6.7787   -5.2047  -10.3769 Cl  0  0  0  0  0  0  0  0  0  0  0  0
   -4.8667   -7.0701   -9.9846 C   0  0  0  0  0  0  0  0  0  0  0  0
   -4.9131   -7.3408  -11.6722 Cl  0  0  0  0  0  0  0  0  0  0  0  0
   -3.9792   -7.7870   -9.1867 C   0  0  0  0  0  0  0  0  0  0  0  0
   -2.9225   -8.9146   -9.9203 Cl  0  0  0  0  0  0  0  0  0  0  0  0
   -3.9307   -7.6030   -7.7944 C   0  0  0  0  0  0  0  0  0  0  0  0
   -2.7522   -8.4750   -6.9142 Cl  0  0  0  0  0  0  0  0  0  0  0  0
   -4.7945   -6.6882   -7.2074 C   0  0  0  0  0  0  0  0  0  0  0  0
   -5.0404   -6.2976   -5.8160 C   0  0  0  0  0  0  0  0  0  0  0  0
   -4.9051   -7.0666   -4.6883 C   0  0  0  0  0  0  0  0  0  0  0  0
   -5.4788   -6.6683   -3.4597 C   0  0  0  0  0  0  0  0  0  0  0  0
   -5.9843   -6.4153   -2.4607 N   0  0  0  0  0  0  0  0  0  0  0  0
   -4.4299   -8.3889   -4.5837 C   0  0  0  0  0  0  0  0  0  0  0  0
   -4.1371   -9.4795   -4.3757 N   0  0  0  0  0  0  0  0  0  0  0  0
   -5.6227   -3.7584   -3.6912 C   0  0  0  0  0  0  0  0  0  0  0  0
   -4.2836   -3.5589   -3.3482 C   0  0  0  0  0  0  0  0  0  0  0  0
   -3.1496   -3.8422   -4.1133 N   0  0  0  0  0  0  0  0  0  0  0  0
   -2.5542   -5.1111   -4.0618 C   0  0  0  0  0  0  0  0  0  0  0  0
   -2.7532   -5.9544   -2.9722 C   0  0  0  0  0  0  0  0  0  0  0  0
   -2.1429   -7.1944   -2.9343 C   0  0  0  0  0  0  0  0  0  0  0  0
   -1.2999   -7.6107   -3.9560 C   0  0  0  0  0  0  0  0  0  0  0  0
   -0.6813   -8.9729   -3.9235 C   0  0  0  0  0  0  0  0  0  0  0  0
   -1.0828   -6.7466   -5.0249 C   0  0  0  0  0  0  0  0  0  0  0  0
   -1.7137   -5.5212   -5.0932 C   0  0  0  0  0  0  0  0  0  0  0  0
   -2.3346   -2.7108   -4.3459 C   0  0  0  0  0  0  0  0  0  0  0  0
   -2.9391   -1.5387   -4.7984 C   0  0  0  0  0  0  0  0  0  0  0  0
   -2.1891   -0.3963   -4.9845 C   0  0  0  0  0  0  0  0  0  0  0  0
   -0.8200   -0.3873   -4.7371 C   0  0  0  0  0  0  0  0  0  0  0  0
   -0.0248    0.8644   -4.9439 C   0  0  0  0  0  0  0  0  0  0  0  0
   -0.2266   -1.5629   -4.2962 C   0  0  0  0  0  0  0  0  0  0  0  0
   -0.9665   -2.7130   -4.0950 C   0  0  0  0  0  0  0  0  0  0  0  0
   -4.1842   -2.7849   -2.1737 C   0  0  0  0  0  0  0  0  0  0  0  0
   -2.8256   -2.2145   -1.2838 S   0  0  0  0  0  0  0  0  0  0  0  0
   -3.9069   -1.4818   -0.1005 C   0  0  0  0  0  0  0  0  0  0  0  0
   -5.2393   -1.7307   -0.3554 C   0  0  0  0  0  0  0  0  0  0  0  0
   -6.2835   -1.3877    0.4823 N   0  0  0  0  0  0  0  0  0  0  0  0
   -6.1268   -1.5098    1.8717 C   0  0  0  0  0  0  0  0  0  0  0  0
   -6.8070   -0.6637    2.7432 C   0  0  0  0  0  0  0  0  0  0  0  0
   -6.6317   -0.7749    4.1088 C   0  0  0  0  0  0  0  0  0  0  0  0
   -5.7776   -1.7267    4.6495 C   0  0  0  0  0  0  0  0  0  0  0  0
   -5.5851   -1.8528    6.1298 C   0  0  0  0  0  0  0  0  0  0  0  0
   -5.1186   -2.5840    3.7763 C   0  0  0  0  0  0  0  0  0  0  0  0
   -5.2915   -2.4868    2.4109 C   0  0  0  0  0  0  0  0  0  0  0  0
   -7.5114   -1.0310   -0.0959 C   0  0  0  0  0  0  0  0  0  0  0  0
   -8.7202   -1.3987    0.4871 C   0  0  0  0  0  0  0  0  0  0  0  0
   -9.9144   -1.0247   -0.0993 C   0  0  0  0  0  0  0  0  0  0  0  0
   -9.9403   -0.2973   -1.2830 C   0  0  0  0  0  0  0  0  0  0  0  0
  -11.2306    0.1145   -1.9210 C   0  0  0  0  0  0  0  0  0  0  0  0
   -8.7281    0.0453   -1.8705 C   0  0  0  0  0  0  0  0  0  0  0  0
   -7.5291   -0.3073   -1.2868 C   0  0  0  0  0  0  0  0  0  0  0  0
   -5.3864   -2.4459   -1.5757 C   0  0  0  0  0  0  0  0  0  0  0  0
   -6.7135   -3.0232   -2.5120 S   0  0  0  0  0  0  0  0  0  0  0  0
   -3.2224   -0.7542    0.9382 C   0  0  0  0  0  0  0  0  0  0  0  0
   -2.9589    0.5970    0.9746 C   0  0  0  0  0  0  0  0  0  0  0  0
   -3.3630    1.5348    0.0178 N   0  0  0  0  0  0  0  0  0  0  0  0
   -2.2708    2.1236   -0.6494 C   0  0  0  0  0  0  0  0  0  0  0  0
   -2.1642    3.5020   -0.8260 C   0  0  0  0  0  0  0  0  0  0  0  0
   -0.9907    4.0491   -1.3012 C   0  0  0  0  0  0  0  0  0  0  0  0
    0.1000    3.2366   -1.6009 C   0  0  0  0  0  0  0  0  0  0  0  0
    1.6147    4.0142   -2.0890 S   0  0  0  0  0  0  0  0  0  0  0  0
    2.8526    2.7950   -1.5556 C   0  0  0  0  0  0  0  0  0  0  0  0
   -0.0301    1.8573   -1.5024 C   0  0  0  0  0  0  0  0  0  0  0  0
   -1.2073    1.3090   -1.0388 C   0  0  0  0  0  0  0  0  0  0  0  0
   -4.6767    1.9346   -0.1769 C   0  0  0  0  0  0  0  0  0  0  0  0
   -5.6091    1.8344    0.8515 C   0  0  0  0  0  0  0  0  0  0  0  0
   -6.9130    2.2496    0.6616 C   0  0  0  0  0  0  0  0  0  0  0  0
   -7.3124    2.7629   -0.5629 C   0  0  0  0  0  0  0  0  0  0  0  0
   -8.9547    3.3087   -0.9158 S   0  0  0  0  0  0  0  0  0  0  0  0
   -9.9158    2.7541    0.5195 C   0  0  0  0  0  0  0  0  0  0  0  0
   -6.3818    2.8671   -1.5945 C   0  0  0  0  0  0  0  0  0  0  0  0
   -5.0814    2.4568   -1.4081 C   0  0  0  0  0  0  0  0  0  0  0  0
   -1.8833    0.8867    1.8582 C   0  0  0  0  0  0  0  0  0  0  0  0
   -0.9903    2.3264    2.2160 S   0  0  0  0  0  0  0  0  0  0  0  0
    0.3662    1.3579    2.7900 C   0  0  0  0  0  0  0  0  0  0  0  0
    0.0598    0.0044    2.8339 C   0  0  0  0  0  0  0  0  0  0  0  0
    0.9660   -1.0268    3.0603 N   0  0  0  0  0  0  0  0  0  0  0  0
    1.7821   -1.0602    4.1848 C   0  0  0  0  0  0  0  0  0  0  0  0
    2.9954   -1.7520    4.1667 C   0  0  0  0  0  0  0  0  0  0  0  0
    3.8101   -1.7507    5.2749 C   0  0  0  0  0  0  0  0  0  0  0  0
    3.4435   -1.0566    6.4268 C   0  0  0  0  0  0  0  0  0  0  0  0
    4.5796   -1.1222    7.7784 S   0  0  0  0  0  0  0  0  0  0  0  0
    3.7858   -0.1226    9.0690 C   0  0  0  0  0  0  0  0  0  0  0  0
    2.2398   -0.3661    6.4484 C   0  0  0  0  0  0  0  0  0  0  0  0
    1.4167   -0.3718    5.3395 C   0  0  0  0  0  0  0  0  0  0  0  0
    0.9900   -2.0051    2.0489 C   0  0  0  0  0  0  0  0  0  0  0  0
    0.9945   -3.3652    2.3320 C   0  0  0  0  0  0  0  0  0  0  0  0
    0.8865   -4.2946    1.3129 C   0  0  0  0  0  0  0  0  0  0  0  0
    0.7599   -3.8772   -0.0052 C   0  0  0  0  0  0  0  0  0  0  0  0
    0.5692   -4.9585   -1.3883 S   0  0  0  0  0  0  0  0  0  0  0  0
    0.5546   -6.6162   -0.6578 C   0  0  0  0  0  0  0  0  0  0  0  0
    0.7862   -2.5139   -0.2958 C   0  0  0  0  0  0  0  0  0  0  0  0
    0.9121   -1.5927    0.7161 C   0  0  0  0  0  0  0  0  0  0  0  0
   -1.2470   -0.2381    2.3507 C   0  0  0  0  0  0  0  0  0  0  0  0
   -2.1343   -1.6729    1.9765 S   0  0  0  0  0  0  0  0  0  0  0  0
    1.6598    1.9361    2.7989 C   0  0  0  0  0  0  0  0  0  0  0  0
    1.9687    3.2940    2.8336 C   0  0  0  0  0  0  0  0  0  0  0  0
    1.0916    4.2773    3.2473 N   0  0  0  0  0  0  0  0  0  0  0  0
    1.1198    5.5166    2.5825 C   0  0  0  0  0  0  0  0  0  0  0  0
    1.0552    6.7155    3.2859 C   0  0  0  0  0  0  0  0  0  0  0  0
    1.1050    7.9149    2.6049 C   0  0  0  0  0  0  0  0  0  0  0  0
    1.2301    7.9545    1.2197 C   0  0  0  0  0  0  0  0  0  0  0  0
    1.3111    9.2668    0.5028 C   0  0  0  0  0  0  0  0  0  0  0  0
    1.2943    6.7523    0.5280 C   0  0  0  0  0  0  0  0  0  0  0  0
    1.2342    5.5466    1.1973 C   0  0  0  0  0  0  0  0  0  0  0  0
    0.2766    4.0758    4.3678 C   0  0  0  0  0  0  0  0  0  0  0  0
   -0.9702    4.6921    4.4488 C   0  0  0  0  0  0  0  0  0  0  0  0
   -1.7768    4.4894    5.5509 C   0  0  0  0  0  0  0  0  0  0  0  0
   -1.3754    3.6661    6.5952 C   0  0  0  0  0  0  0  0  0  0  0  0
   -2.2613    3.4245    7.7791 C   0  0  0  0  0  0  0  0  0  0  0  0
   -0.1303    3.0540    6.5060 C   0  0  0  0  0  0  0  0  0  0  0  0
    0.6902    3.2541    5.4148 C   0  0  0  0  0  0  0  0  0  0  0  0
    3.2928    3.5206    2.4031 C   0  0  0  0  0  0  0  0  0  0  0  0
    4.2507    4.9361    2.1832 S   0  0  0  0  0  0  0  0  0  0  0  0
    5.5969    3.9558    1.5692 C   0  0  0  0  0  0  0  0  0  0  0  0
    5.3277    2.5672    1.6727 C   0  0  0  0  0  0  0  0  0  0  0  0
    6.2122    1.5476    1.5060 N   0  0  0  0  0  0  0  0  0  0  0  0
    5.7336    0.2362    1.2674 C   0  0  0  0  0  0  0  0  0  0  0  0
    6.1703   -0.8126    2.0698 C   0  0  0  0  0  0  0  0  0  0  0  0
    5.7173   -2.0940    1.8292 C   0  0  0  0  0  0  0  0  0  0  0  0
    4.8255   -2.3589    0.7940 C   0  0  0  0  0  0  0  0  0  0  0  0
    4.3586   -3.7590    0.5412 C   0  0  0  0  0  0  0  0  0  0  0  0
    4.4033   -1.3034   -0.0037 C   0  0  0  0  0  0  0  0  0  0  0  0
    4.8532   -0.0161    0.2218 C   0  0  0  0  0  0  0  0  0  0  0  0
    7.6033    1.7055    1.5999 C   0  0  0  0  0  0  0  0  0  0  0  0
    8.4312    1.0255    0.7098 C   0  0  0  0  0  0  0  0  0  0  0  0
    9.8018    1.1985    0.7639 C   0  0  0  0  0  0  0  0  0  0  0  0
   10.3819    2.0385    1.7045 C   0  0  0  0  0  0  0  0  0  0  0  0
   11.8597    2.2658    1.7415 C   0  0  0  0  0  0  0  0  0  0  0  0
    9.5486    2.6749    2.6229 C   0  0  0  0  0  0  0  0  0  0  0  0
    8.1802    2.5157    2.5768 C   0  0  0  0  0  0  0  0  0  0  0  0
    3.9981    2.3619    2.0950 C   0  0  0  0  0  0  0  0  0  0  0  0
    3.0446    0.9413    2.3708 S   0  0  0  0  0  0  0  0  0  0  0  0
    6.7002    4.6396    1.0738 C   0  0  0  0  0  0  0  0  0  0  0  0
    7.6142    4.1362    0.1606 C   0  0  0  0  0  0  0  0  0  0  0  0
    7.2796    3.1136   -0.8320 C   0  0  0  0  0  0  0  0  0  0  0  0
    6.2114    2.5483   -0.9928 O   0  0  0  0  0  0  0  0  0  0  0  0
    8.4768    2.9987   -1.7000 C   0  0  0  0  0  0  0  0  0  0  0  0
    8.6777    2.1723   -2.7838 C   0  0  0  0  0  0  0  0  0  0  0  0
    9.9061    2.2262   -3.4343 C   0  0  0  0  0  0  0  0  0  0  0  0
   10.2267    1.2050   -4.7839 Cl  0  0  0  0  0  0  0  0  0  0  0  0
   10.8823    3.1125   -2.9835 C   0  0  0  0  0  0  0  0  0  0  0  0
   12.0631    3.1608   -3.6170 F   0  0  0  0  0  0  0  0  0  0  0  0
   10.6829    3.9532   -1.8972 C   0  0  0  0  0  0  0  0  0  0  0  0
    9.4634    3.8903   -1.2476 C   0  0  0  0  0  0  0  0  0  0  0  0
    8.9479    4.5994   -0.0771 C   0  0  0  0  0  0  0  0  0  0  0  0
    9.6730    5.4336    0.7407 C   0  0  0  0  0  0  0  0  0  0  0  0
   11.0211    5.7696    0.5252 C   0  0  0  0  0  0  0  0  0  0  0  0
   12.1266    6.0602    0.4076 N   0  0  0  0  0  0  0  0  0  0  0  0
    9.1753    5.9828    1.9382 C   0  0  0  0  0  0  0  0  0  0  0  0
    8.8425    6.4359    2.9400 N   0  0  0  0  0  0  0  0  0  0  0  0
   -7.0914   -3.6072   -5.1840 H   0  0  0  0  0  0  0  0  0  0  0  0
   -3.3684   -5.6282   -2.1470 H   0  0  0  0  0  0  0  0  0  0  0  0
   -2.3237   -7.8472   -2.0925 H   0  0  0  0  0  0  0  0  0  0  0  0
   -0.3582   -9.2362   -2.9177 H   0  0  0  0  0  0  0  0  0  0  0  0
    0.1688   -9.0350   -4.5989 H   0  0  0  0  0  0  0  0  0  0  0  0
   -1.4235   -9.7104   -4.2325 H   0  0  0  0  0  0  0  0  0  0  0  0
   -0.4138   -7.0413   -5.8201 H   0  0  0  0  0  0  0  0  0  0  0  0
   -1.5500   -4.8655   -5.9356 H   0  0  0  0  0  0  0  0  0  0  0  0
   -4.0007   -1.5318   -5.0002 H   0  0  0  0  0  0  0  0  0  0  0  0
   -2.6717    0.5059   -5.3315 H   0  0  0  0  0  0  0  0  0  0  0  0
    1.0355    0.6848   -4.7854 H   0  0  0  0  0  0  0  0  0  0  0  0
   -0.3543    1.6410   -4.2537 H   0  0  0  0  0  0  0  0  0  0  0  0
   -0.1645    1.2406   -5.9562 H   0  0  0  0  0  0  0  0  0  0  0  0
    0.8353   -1.5827   -4.0953 H   0  0  0  0  0  0  0  0  0  0  0  0
   -0.4873   -3.6055   -3.7220 H   0  0  0  0  0  0  0  0  0  0  0  0
   -7.4769    0.0810    2.3443 H   0  0  0  0  0  0  0  0  0  0  0  0
   -7.1663   -0.1027    4.7650 H   0  0  0  0  0  0  0  0  0  0  0  0
   -4.5284   -1.9515    6.3719 H   0  0  0  0  0  0  0  0  0  0  0  0
   -5.9866   -0.9870    6.6505 H   0  0  0  0  0  0  0  0  0  0  0  0
   -6.0956   -2.7420    6.5005 H   0  0  0  0  0  0  0  0  0  0  0  0
   -4.4612   -3.3449    4.1714 H   0  0  0  0  0  0  0  0  0  0  0  0
   -4.7819   -3.1801    1.7583 H   0  0  0  0  0  0  0  0  0  0  0  0
   -8.7221   -1.9794    1.3975 H   0  0  0  0  0  0  0  0  0  0  0  0
  -10.8442   -1.3118    0.3711 H   0  0  0  0  0  0  0  0  0  0  0  0
  -12.0685   -0.0394   -1.2456 H   0  0  0  0  0  0  0  0  0  0  0  0
  -11.4056   -0.4701   -2.8238 H   0  0  0  0  0  0  0  0  0  0  0  0
  -11.1931    1.1642   -2.2073 H   0  0  0  0  0  0  0  0  0  0  0  0
   -8.7240    0.6125   -2.7891 H   0  0  0  0  0  0  0  0  0  0  0  0
   -6.5975   -0.0038   -1.7406 H   0  0  0  0  0  0  0  0  0  0  0  0
   -2.9876    4.1424   -0.5487 H   0  0  0  0  0  0  0  0  0  0  0  0
   -0.8943    5.1186   -1.4046 H   0  0  0  0  0  0  0  0  0  0  0  0
    2.9211    1.9851   -2.2763 H   0  0  0  0  0  0  0  0  0  0  0  0
    3.8055    3.3134   -1.5045 H   0  0  0  0  0  0  0  0  0  0  0  0
    2.5810    2.4206   -0.5724 H   0  0  0  0  0  0  0  0  0  0  0  0
    0.7799    1.2014   -1.7793 H   0  0  0  0  0  0  0  0  0  0  0  0
   -1.2951    0.2349   -0.9597 H   0  0  0  0  0  0  0  0  0  0  0  0
   -5.3021    1.4392    1.8091 H   0  0  0  0  0  0  0  0  0  0  0  0
   -7.6067    2.1848    1.4841 H   0  0  0  0  0  0  0  0  0  0  0  0
   -9.6176    3.3044    1.4074 H   0  0  0  0  0  0  0  0  0  0  0  0
   -9.7893    1.6828    0.6491 H   0  0  0  0  0  0  0  0  0  0  0  0
  -10.9511    2.9782    0.2824 H   0  0  0  0  0  0  0  0  0  0  0  0
   -6.6962    3.2668   -2.5464 H   0  0  0  0  0  0  0  0  0  0  0  0
   -4.3679    2.5299   -2.2153 H   0  0  0  0  0  0  0  0  0  0  0  0
    3.3022   -2.2638    3.2683 H   0  0  0  0  0  0  0  0  0  0  0  0
    4.7513   -2.2784    5.2588 H   0  0  0  0  0  0  0  0  0  0  0  0
    4.4668   -0.1444    9.9142 H   0  0  0  0  0  0  0  0  0  0  0  0
    2.8352   -0.5660    9.3511 H   0  0  0  0  0  0  0  0  0  0  0  0
    3.6606    0.8997    8.7240 H   0  0  0  0  0  0  0  0  0  0  0  0
    1.9254    0.1791    7.3236 H   0  0  0  0  0  0  0  0  0  0  0  0
    0.4811    0.1675    5.3676 H   0  0  0  0  0  0  0  0  0  0  0  0
    1.0591   -3.6979    3.3573 H   0  0  0  0  0  0  0  0  0  0  0  0
    0.8794   -5.3425    1.5665 H   0  0  0  0  0  0  0  0  0  0  0  0
   -0.2916   -6.7155    0.0154 H   0  0  0  0  0  0  0  0  0  0  0  0
    0.4421   -7.2963   -1.4959 H   0  0  0  0  0  0  0  0  0  0  0  0
    1.4944   -6.8074   -0.1478 H   0  0  0  0  0  0  0  0  0  0  0  0
    0.6942   -2.1945   -1.3229 H   0  0  0  0  0  0  0  0  0  0  0  0
    0.9338   -0.5378    0.4864 H   0  0  0  0  0  0  0  0  0  0  0  0
    0.9719    6.7007    4.3626 H   0  0  0  0  0  0  0  0  0  0  0  0
    1.0570    8.8408    3.1597 H   0  0  0  0  0  0  0  0  0  0  0  0
    1.1512    9.1370   -0.5645 H   0  0  0  0  0  0  0  0  0  0  0  0
    0.5707    9.9648    0.8891 H   0  0  0  0  0  0  0  0  0  0  0  0
    2.2957    9.7114    0.6491 H   0  0  0  0  0  0  0  0  0  0  0  0
    1.3897    6.7510   -0.5480 H   0  0  0  0  0  0  0  0  0  0  0  0
    1.2659    4.6182    0.6487 H   0  0  0  0  0  0  0  0  0  0  0  0
   -1.3022    5.3239    3.6389 H   0  0  0  0  0  0  0  0  0  0  0  0
   -2.7408    4.9752    5.5951 H   0  0  0  0  0  0  0  0  0  0  0  0
   -3.0111    4.2065    7.8688 H   0  0  0  0  0  0  0  0  0  0  0  0
   -1.6785    3.3885    8.6973 H   0  0  0  0  0  0  0  0  0  0  0  0
   -2.7775    2.4694    7.6727 H   0  0  0  0  0  0  0  0  0  0  0  0
    0.2063    2.4171    7.3119 H   0  0  0  0  0  0  0  0  0  0  0  0
    1.6591    2.7773    5.3742 H   0  0  0  0  0  0  0  0  0  0  0  0
    6.8598   -0.6161    2.8775 H   0  0  0  0  0  0  0  0  0  0  0  0
    6.0600   -2.9048    2.4557 H   0  0  0  0  0  0  0  0  0  0  0  0
    5.1984   -4.3869    0.2447 H   0  0  0  0  0  0  0  0  0  0  0  0
    3.6103   -3.7832   -0.2462 H   0  0  0  0  0  0  0  0  0  0  0  0
    3.9262   -4.1879    1.4444 H   0  0  0  0  0  0  0  0  0  0  0  0
    3.7199   -1.4947   -0.8177 H   0  0  0  0  0  0  0  0  0  0  0  0
    4.5590    0.7998   -0.4195 H   0  0  0  0  0  0  0  0  0  0  0  0
    7.9922    0.3741   -0.0308 H   0  0  0  0  0  0  0  0  0  0  0  0
   10.4271    0.6796    0.0522 H   0  0  0  0  0  0  0  0  0  0  0  0
   12.2549    2.0458    2.7318 H   0  0  0  0  0  0  0  0  0  0  0  0
   12.3689    1.6409    1.0129 H   0  0  0  0  0  0  0  0  0  0  0  0
   12.0886    3.3086    1.5215 H   0  0  0  0  0  0  0  0  0  0  0  0
    9.9816    3.3108    3.3811 H   0  0  0  0  0  0  0  0  0  0  0  0
    7.5543    3.0214    3.2965 H   0  0  0  0  0  0  0  0  0  0  0  0
    6.8081    5.6671    1.3993 H   0  0  0  0  0  0  0  0  0  0  0  0
    7.9058    1.4958   -3.1142 H   0  0  0  0  0  0  0  0  0  0  0  0
   11.4750    4.6217   -1.6018 H   0  0  0  0  0  0  0  0  0  0  0  0
  1  2  2  0  0  0  0
  2  3  1  0  0  0  0
  3  4  2  0  0  0  0
  3  5  1  0  0  0  0
  5  6  2  0  0  0  0
  6  7  1  0  0  0  0
  6  8  1  0  0  0  0
  8  9  1  0  0  0  0
  8 10  2  0  0  0  0
 10 11  1  0  0  0  0
 10 12  1  0  0  0  0
 12 13  1  0  0  0  0
 12 14  2  0  0  0  0
 14 15  1  0  0  0  0
 15 16  2  0  0  0  0
 16 17  1  0  0  0  0
 17 18  3  0  0  0  0
 16 19  1  0  0  0  0
 19 20  3  0  0  0  0
  1 21  1  0  0  0  0
 21 22  2  0  0  0  0
 22 23  1  0  0  0  0
 23 24  1  0  0  0  0
 24 25  2  0  0  0  0
 25 26  1  0  0  0  0
 26 27  2  0  0  0  0
 27 28  1  0  0  0  0
 27 29  1  0  0  0  0
 29 30  2  0  0  0  0
 23 31  1  0  0  0  0
 31 32  2  0  0  0  0
 32 33  1  0  0  0  0
 33 34  2  0  0  0  0
 34 35  1  0  0  0  0
 34 36  1  0  0  0  0
 36 37  2  0  0  0  0
 22 38  1  0  0  0  0
 38 39  1  0  0  0  0
 39 40  1  0  0  0  0
 40 41  2  0  0  0  0
 41 42  1  0  0  0  0
 42 43  1  0  0  0  0
 43 44  2  0  0  0  0
 44 45  1  0  0  0  0
 45 46  2  0  0  0  0
 46 47  1  0  0  0  0
 46 48  1  0  0  0  0
 48 49  2  0  0  0  0
 42 50  1  0  0  0  0
 50 51  2  0  0  0  0
 51 52  1  0  0  0  0
 52 53  2  0  0  0  0
 53 54  1  0  0  0  0
 53 55  1  0  0  0  0
 55 56  2  0  0  0  0
 41 57  1  0  0  0  0
 57 58  1  0  0  0  0
 40 59  1  0  0  0  0
 59 60  2  0  0  0  0
 60 61  1  0  0  0  0
 61 62  1  0  0  0  0
 62 63  2  0  0  0  0
 63 64  1  0  0  0  0
 64 65  2  0  0  0  0
 65 66  1  0  0  0  0
 66 67  1  0  0  0  0
 65 68  1  0  0  0  0
 68 69  2  0  0  0  0
 61 70  1  0  0  0  0
 70 71  2  0  0  0  0
 71 72  1  0  0  0  0
 72 73  2  0  0  0  0
 73 74  1  0  0  0  0
 74 75  1  0  0  0  0
 73 76  1  0  0  0  0
 76 77  2  0  0  0  0
 60 78  1  0  0  0  0
 78 79  1  0  0  0  0
 79 80  1  0  0  0  0
 80 81  2  0  0  0  0
 81 82  1  0  0  0  0
 82 83  1  0  0  0  0
 83 84  2  0  0  0  0
 84 85  1  0  0  0  0
 85 86  2  0  0  0  0
 86 87  1  0  0  0  0
 87 88  1  0  0  0  0
 86 89  1  0  0  0  0
 89 90  2  0  0  0  0
 82 91  1  0  0  0  0
 91 92  2  0  0  0  0
 92 93  1  0  0  0  0
 93 94  2  0  0  0  0
 94 95  1  0  0  0  0
 95 96  1  0  0  0  0
 94 97  1  0  0  0  0
 97 98  2  0  0  0  0
 81 99  1  0  0  0  0
 99100  1  0  0  0  0
 80101  1  0  0  0  0
101102  2  0  0  0  0
102103  1  0  0  0  0
103104  1  0  0  0  0
104105  2  0  0  0  0
105106  1  0  0  0  0
106107  2  0  0  0  0
107108  1  0  0  0  0
107109  1  0  0  0  0
109110  2  0  0  0  0
103111  1  0  0  0  0
111112  2  0  0  0  0
112113  1  0  0  0  0
113114  2  0  0  0  0
114115  1  0  0  0  0
114116  1  0  0  0  0
116117  2  0  0  0  0
102118  1  0  0  0  0
118119  1  0  0  0  0
119120  1  0  0  0  0
120121  2  0  0  0  0
121122  1  0  0  0  0
122123  1  0  0  0  0
123124  2  0  0  0  0
124125  1  0  0  0  0
125126  2  0  0  0  0
126127  1  0  0  0  0
126128  1  0  0  0  0
128129  2  0  0  0  0
122130  1  0  0  0  0
130131  2  0  0  0  0
131132  1  0  0  0  0
132133  2  0  0  0  0
133134  1  0  0  0  0
133135  1  0  0  0  0
135136  2  0  0  0  0
121137  1  0  0  0  0
137138  1  0  0  0  0
120139  1  0  0  0  0
139140  2  0  0  0  0
140141  1  0  0  0  0
141142  2  0  0  0  0
141143  1  0  0  0  0
143144  2  0  0  0  0
144145  1  0  0  0  0
145146  1  0  0  0  0
145147  2  0  0  0  0
147148  1  0  0  0  0
147149  1  0  0  0  0
149150  2  0  0  0  0
150151  1  0  0  0  0
151152  2  0  0  0  0
152153  1  0  0  0  0
153154  3  0  0  0  0
152155  1  0  0  0  0
155156  3  0  0  0  0
 15  2  1  0  0  0  0
 58 21  1  0  0  0  0
100 59  1  0  0  0  0
138101  1  0  0  0  0
151140  1  0  0  0  0
 14  5  1  0  0  0  0
 30 24  1  0  0  0  0
 37 31  1  0  0  0  0
 57 38  2  0  0  0  0
 69 62  1  0  0  0  0
 77 70  1  0  0  0  0
 99 78  2  0  0  0  0
110104  1  0  0  0  0
117111  1  0  0  0  0
137118  2  0  0  0  0
150143  1  0  0  0  0
 49 43  1  0  0  0  0
 56 50  1  0  0  0  0
 90 83  1  0  0  0  0
 98 91  1  0  0  0  0
129123  1  0  0  0  0
136130  1  0  0  0  0
  1157  1  0  0  0  0
 25158  1  0  0  0  0
 26159  1  0  0  0  0
 28160  1  0  0  0  0
 28161  1  0  0  0  0
 28162  1  0  0  0  0
 29163  1  0  0  0  0
 30164  1  0  0  0  0
 32165  1  0  0  0  0
 33166  1  0  0  0  0
 35167  1  0  0  0  0
 35168  1  0  0  0  0
 35169  1  0  0  0  0
 36170  1  0  0  0  0
 37171  1  0  0  0  0
 44172  1  0  0  0  0
 45173  1  0  0  0  0
 47174  1  0  0  0  0
 47175  1  0  0  0  0
 47176  1  0  0  0  0
 48177  1  0  0  0  0
 49178  1  0  0  0  0
 51179  1  0  0  0  0
 52180  1  0  0  0  0
 54181  1  0  0  0  0
 54182  1  0  0  0  0
 54183  1  0  0  0  0
 55184  1  0  0  0  0
 56185  1  0  0  0  0
 63186  1  0  0  0  0
 64187  1  0  0  0  0
 67188  1  0  0  0  0
 67189  1  0  0  0  0
 67190  1  0  0  0  0
 68191  1  0  0  0  0
 69192  1  0  0  0  0
 71193  1  0  0  0  0
 72194  1  0  0  0  0
 75195  1  0  0  0  0
 75196  1  0  0  0  0
 75197  1  0  0  0  0
 76198  1  0  0  0  0
 77199  1  0  0  0  0
 84200  1  0  0  0  0
 85201  1  0  0  0  0
 88202  1  0  0  0  0
 88203  1  0  0  0  0
 88204  1  0  0  0  0
 89205  1  0  0  0  0
 90206  1  0  0  0  0
 92207  1  0  0  0  0
 93208  1  0  0  0  0
 96209  1  0  0  0  0
 96210  1  0  0  0  0
 96211  1  0  0  0  0
 97212  1  0  0  0  0
 98213  1  0  0  0  0
105214  1  0  0  0  0
106215  1  0  0  0  0
108216  1  0  0  0  0
108217  1  0  0  0  0
108218  1  0  0  0  0
109219  1  0  0  0  0
110220  1  0  0  0  0
112221  1  0  0  0  0
113222  1  0  0  0  0
115223  1  0  0  0  0
115224  1  0  0  0  0
115225  1  0  0  0  0
116226  1  0  0  0  0
117227  1  0  0  0  0
124228  1  0  0  0  0
125229  1  0  0  0  0
127230  1  0  0  0  0
127231  1  0  0  0  0
127232  1  0  0  0  0
128233  1  0  0  0  0
129234  1  0  0  0  0
131235  1  0  0  0  0
132236  1  0  0  0  0
134237  1  0  0  0  0
134238  1  0  0  0  0
134239  1  0  0  0  0
135240  1  0  0  0  0
136241  1  0  0  0  0
139242  1  0  0  0  0
144243  1  0  0  0  0
149244  1  0  0  0  0
M  END
