
  xtb     02122205043D
 energy: -424.286847736686 gnorm: 0.000507437601 xtb: 6.4.1 (unknown)
223242  0     0  0            999 V2000
    6.4426    2.8590   -5.8994 C   0  0  0  0  0  0  0  0  0  0  0  0
    7.8162    2.9296   -5.8268 C   0  0  0  0  0  0  0  0  0  0  0  0
    8.6018    2.6193   -7.0277 C   0  0  0  0  0  0  0  0  0  0  0  0
    8.1938    2.4474   -8.1545 O   0  0  0  0  0  0  0  0  0  0  0  0
    9.9978    2.4851   -6.5404 C   0  0  0  0  0  0  0  0  0  0  0  0
   11.1029    2.0497   -7.2466 C   0  0  0  0  0  0  0  0  0  0  0  0
   10.9945    1.6338   -8.8988 Cl  0  0  0  0  0  0  0  0  0  0  0  0
   12.3240    1.9351   -6.5702 C   0  0  0  0  0  0  0  0  0  0  0  0
   13.7139    1.3780   -7.3972 Cl  0  0  0  0  0  0  0  0  0  0  0  0
   12.3962    2.2555   -5.2186 C   0  0  0  0  0  0  0  0  0  0  0  0
   13.8878    2.0706   -4.3982 Cl  0  0  0  0  0  0  0  0  0  0  0  0
   11.2708    2.7034   -4.5083 C   0  0  0  0  0  0  0  0  0  0  0  0
   11.4607    3.0077   -2.8321 Cl  0  0  0  0  0  0  0  0  0  0  0  0
   10.0571    2.8224   -5.1719 C   0  0  0  0  0  0  0  0  0  0  0  0
    8.7128    3.2216   -4.7407 C   0  0  0  0  0  0  0  0  0  0  0  0
    8.3223    3.9856   -3.6626 C   0  0  0  0  0  0  0  0  0  0  0  0
    9.0249    4.4229   -2.5240 C   0  0  0  0  0  0  0  0  0  0  0  0
    9.4151    4.8566   -1.5338 N   0  0  0  0  0  0  0  0  0  0  0  0
    7.0433    4.5777   -3.6161 C   0  0  0  0  0  0  0  0  0  0  0  0
    6.0374    5.1266   -3.5257 N   0  0  0  0  0  0  0  0  0  0  0  0
    5.4867    2.6058   -4.9142 C   0  0  0  0  0  0  0  0  0  0  0  0
    5.5637    2.0519   -3.6209 C   0  0  0  0  0  0  0  0  0  0  0  0
    6.6723    1.5662   -2.9735 N   0  0  0  0  0  0  0  0  0  0  0  0
    7.7101    0.8672   -3.5996 C   0  0  0  0  0  0  0  0  0  0  0  0
    7.5358    0.2311   -4.8278 C   0  0  0  0  0  0  0  0  0  0  0  0
    8.5891   -0.4332   -5.4227 C   0  0  0  0  0  0  0  0  0  0  0  0
    9.8347   -0.5083   -4.8101 C   0  0  0  0  0  0  0  0  0  0  0  0
   10.9699   -1.2270   -5.4675 C   0  0  0  0  0  0  0  0  0  0  0  0
    9.9857    0.0803   -3.5595 C   0  0  0  0  0  0  0  0  0  0  0  0
    8.9501    0.7707   -2.9650 C   0  0  0  0  0  0  0  0  0  0  0  0
    6.6091    1.5384   -1.5531 C   0  0  0  0  0  0  0  0  0  0  0  0
    6.7761    0.3461   -0.8575 C   0  0  0  0  0  0  0  0  0  0  0  0
    6.6570    0.3290    0.5188 C   0  0  0  0  0  0  0  0  0  0  0  0
    6.3716    1.4884    1.2301 C   0  0  0  0  0  0  0  0  0  0  0  0
    6.1767    1.4620    2.7126 C   0  0  0  0  0  0  0  0  0  0  0  0
    6.2341    2.6792    0.5258 C   0  0  0  0  0  0  0  0  0  0  0  0
    6.3491    2.7110   -0.8491 C   0  0  0  0  0  0  0  0  0  0  0  0
    4.2795    1.9965   -3.0351 C   0  0  0  0  0  0  0  0  0  0  0  0
    3.7121    1.3659   -1.5332 S   0  0  0  0  0  0  0  0  0  0  0  0
    2.0572    1.7182   -1.9946 C   0  0  0  0  0  0  0  0  0  0  0  0
    1.9633    2.4034   -3.2010 C   0  0  0  0  0  0  0  0  0  0  0  0
    0.8114    3.0219   -3.6387 N   0  0  0  0  0  0  0  0  0  0  0  0
   -0.1341    3.4589   -2.6853 C   0  0  0  0  0  0  0  0  0  0  0  0
    0.2637    4.0587   -1.4932 C   0  0  0  0  0  0  0  0  0  0  0  0
   -0.6775    4.4267   -0.5542 C   0  0  0  0  0  0  0  0  0  0  0  0
   -2.0351    4.2248   -0.7770 C   0  0  0  0  0  0  0  0  0  0  0  0
   -3.0393    4.5618    0.2808 C   0  0  0  0  0  0  0  0  0  0  0  0
   -2.4253    3.6889   -1.9977 C   0  0  0  0  0  0  0  0  0  0  0  0
   -1.4909    3.3058   -2.9430 C   0  0  0  0  0  0  0  0  0  0  0  0
    0.6638    3.4743   -4.9610 C   0  0  0  0  0  0  0  0  0  0  0  0
    0.1297    4.7370   -5.2116 C   0  0  0  0  0  0  0  0  0  0  0  0
   -0.0279    5.1794   -6.5086 C   0  0  0  0  0  0  0  0  0  0  0  0
    0.3430    4.3889   -7.5913 C   0  0  0  0  0  0  0  0  0  0  0  0
    0.1963    4.8926   -8.9937 C   0  0  0  0  0  0  0  0  0  0  0  0
    0.8717    3.1321   -7.3331 C   0  0  0  0  0  0  0  0  0  0  0  0
    1.0290    2.6747   -6.0383 C   0  0  0  0  0  0  0  0  0  0  0  0
    3.2398    2.4866   -3.8152 C   0  0  0  0  0  0  0  0  0  0  0  0
    3.8196    3.0091   -5.3516 S   0  0  0  0  0  0  0  0  0  0  0  0
    1.0301    1.3219   -1.0792 C   0  0  0  0  0  0  0  0  0  0  0  0
   -0.1183    0.5705   -1.2945 C   0  0  0  0  0  0  0  0  0  0  0  0
   -0.4008   -0.0929   -2.4743 N   0  0  0  0  0  0  0  0  0  0  0  0
    0.6561   -0.4888   -3.3160 C   0  0  0  0  0  0  0  0  0  0  0  0
    1.8604   -0.9642   -2.7950 C   0  0  0  0  0  0  0  0  0  0  0  0
    2.9334   -1.1995   -3.6251 C   0  0  0  0  0  0  0  0  0  0  0  0
    2.8171   -1.0000   -4.9982 C   0  0  0  0  0  0  0  0  0  0  0  0
    4.2800   -1.1929   -5.9693 S   0  0  0  0  0  0  0  0  0  0  0  0
    3.9134   -0.2226   -7.4626 C   0  0  0  0  0  0  0  0  0  0  0  0
    1.5818   -0.6619   -5.5333 C   0  0  0  0  0  0  0  0  0  0  0  0
    0.5139   -0.3943   -4.6957 C   0  0  0  0  0  0  0  0  0  0  0  0
   -1.6903   -0.5753   -2.7373 C   0  0  0  0  0  0  0  0  0  0  0  0
   -1.8679   -1.8476   -3.2835 C   0  0  0  0  0  0  0  0  0  0  0  0
   -3.1360   -2.3495   -3.4733 C   0  0  0  0  0  0  0  0  0  0  0  0
   -4.2509   -1.6015   -3.1059 C   0  0  0  0  0  0  0  0  0  0  0  0
   -5.8437   -2.3531   -3.2715 S   0  0  0  0  0  0  0  0  0  0  0  0
   -6.8107   -1.5041   -1.9886 C   0  0  0  0  0  0  0  0  0  0  0  0
   -4.0830   -0.3114   -2.6286 C   0  0  0  0  0  0  0  0  0  0  0  0
   -2.8115    0.1985   -2.4514 C   0  0  0  0  0  0  0  0  0  0  0  0
   -0.8858    0.4854   -0.1037 C   0  0  0  0  0  0  0  0  0  0  0  0
   -2.3922   -0.2603    0.3127 S   0  0  0  0  0  0  0  0  0  0  0  0
   -2.2482    0.3300    1.9517 C   0  0  0  0  0  0  0  0  0  0  0  0
   -1.0023    0.9189    2.2101 C   0  0  0  0  0  0  0  0  0  0  0  0
   -0.4909    1.1557    3.4617 N   0  0  0  0  0  0  0  0  0  0  0  0
   -0.9308    0.4091    4.5724 C   0  0  0  0  0  0  0  0  0  0  0  0
   -1.1915   -0.9551    4.4679 C   0  0  0  0  0  0  0  0  0  0  0  0
   -1.7779   -1.6408    5.5129 C   0  0  0  0  0  0  0  0  0  0  0  0
   -2.1083   -0.9722    6.6871 C   0  0  0  0  0  0  0  0  0  0  0  0
   -3.0014   -1.6935    8.0232 S   0  0  0  0  0  0  0  0  0  0  0  0
   -3.5616   -3.2931    7.3748 C   0  0  0  0  0  0  0  0  0  0  0  0
   -1.7429    0.3658    6.8330 C   0  0  0  0  0  0  0  0  0  0  0  0
   -1.1577    1.0494    5.7908 C   0  0  0  0  0  0  0  0  0  0  0  0
    0.5805    2.0468    3.6210 C   0  0  0  0  0  0  0  0  0  0  0  0
    1.6788    1.6914    4.4042 C   0  0  0  0  0  0  0  0  0  0  0  0
    2.7686    2.5277    4.4796 C   0  0  0  0  0  0  0  0  0  0  0  0
    2.7861    3.7337    3.7783 C   0  0  0  0  0  0  0  0  0  0  0  0
    4.2700    4.6787    3.8750 S   0  0  0  0  0  0  0  0  0  0  0  0
    4.0766    5.9136    2.5583 C   0  0  0  0  0  0  0  0  0  0  0  0
    1.6636    4.1220    3.0585 C   0  0  0  0  0  0  0  0  0  0  0  0
    0.5684    3.2838    2.9836 C   0  0  0  0  0  0  0  0  0  0  0  0
   -0.2745    1.0577    1.0051 C   0  0  0  0  0  0  0  0  0  0  0  0
    1.2586    1.7439    0.6095 S   0  0  0  0  0  0  0  0  0  0  0  0
   -3.3205    0.1291    2.8613 C   0  0  0  0  0  0  0  0  0  0  0  0
   -4.1383   -1.0353    2.7666 C   0  0  0  0  0  0  0  0  0  0  0  0
   -4.0557   -1.8006    1.6789 N   0  0  0  0  0  0  0  0  0  0  0  0
   -4.7183   -2.9347    1.6251 C   0  0  0  0  0  0  0  0  0  0  0  0
   -4.6137   -3.7114    0.3830 C   0  0  0  0  0  0  0  0  0  0  0  0
   -3.3717   -3.9127   -0.2261 C   0  0  0  0  0  0  0  0  0  0  0  0
   -3.2477   -4.6918   -1.3592 C   0  0  0  0  0  0  0  0  0  0  0  0
   -4.3455   -5.3224   -1.9765 C   0  0  0  0  0  0  0  0  0  0  0  0
   -4.0485   -6.0633   -3.0451 O   0  0  0  0  0  0  0  0  0  0  0  0
   -5.0446   -6.7159   -3.8288 C   0  0  0  0  0  0  0  0  0  0  0  0
   -5.7468   -5.7592   -4.7822 C   0  0  0  0  0  0  0  0  0  0  0  0
   -5.5872   -5.1018   -1.3703 C   0  0  0  0  0  0  0  0  0  0  0  0
   -5.7041   -4.3164   -0.2313 C   0  0  0  0  0  0  0  0  0  0  0  0
   -6.9406   -4.1278    0.2647 F   0  0  0  0  0  0  0  0  0  0  0  0
   -6.7226   -5.6409   -1.8558 F   0  0  0  0  0  0  0  0  0  0  0  0
   -2.0348   -4.8783   -1.8982 F   0  0  0  0  0  0  0  0  0  0  0  0
   -2.2689   -3.3947    0.3169 F   0  0  0  0  0  0  0  0  0  0  0  0
   -5.4619   -3.3719    2.7579 C   0  0  0  0  0  0  0  0  0  0  0  0
   -6.1184   -4.6861    2.8208 C   0  0  0  0  0  0  0  0  0  0  0  0
   -7.4370   -4.7976    3.2549 C   0  0  0  0  0  0  0  0  0  0  0  0
   -8.1090   -3.7101    3.6290 F   0  0  0  0  0  0  0  0  0  0  0  0
   -8.1107   -6.0137    3.2724 C   0  0  0  0  0  0  0  0  0  0  0  0
   -9.3923   -5.9978    3.6870 F   0  0  0  0  0  0  0  0  0  0  0  0
   -7.4898   -7.2034    2.8745 C   0  0  0  0  0  0  0  0  0  0  0  0
   -7.9973   -8.4368    2.8053 O   0  0  0  0  0  0  0  0  0  0  0  0
   -9.2706   -8.7705    3.3527 C   0  0  0  0  0  0  0  0  0  0  0  0
   -9.2451   -8.8323    4.8740 C   0  0  0  0  0  0  0  0  0  0  0  0
   -6.1484   -7.0824    2.4636 C   0  0  0  0  0  0  0  0  0  0  0  0
   -5.5004   -8.1933    2.0842 F   0  0  0  0  0  0  0  0  0  0  0  0
   -5.4882   -5.8700    2.4376 C   0  0  0  0  0  0  0  0  0  0  0  0
   -4.1969   -5.8503    2.0663 F   0  0  0  0  0  0  0  0  0  0  0  0
   -5.6001   -2.5953    3.8081 N   0  0  0  0  0  0  0  0  0  0  0  0
   -4.9929   -1.4042    3.8377 C   0  0  0  0  0  0  0  0  0  0  0  0
   -5.1899   -0.5446    4.9605 C   0  0  0  0  0  0  0  0  0  0  0  0
   -4.4958    0.6661    4.9325 C   0  0  0  0  0  0  0  0  0  0  0  0
   -3.6026    0.9914    3.9203 C   0  0  0  0  0  0  0  0  0  0  0  0
   -3.0030    2.1975    3.9624 F   0  0  0  0  0  0  0  0  0  0  0  0
   -4.5955    1.5227    5.9604 F   0  0  0  0  0  0  0  0  0  0  0  0
   -5.9691   -1.0302    6.0494 C   0  0  0  0  0  0  0  0  0  0  0  0
   -6.5944   -0.4088    7.0841 C   0  0  0  0  0  0  0  0  0  0  0  0
   -6.8889   -1.2301    8.3034 C   0  0  0  0  0  0  0  0  0  0  0  0
   -6.7644   -2.4289    8.4064 O   0  0  0  0  0  0  0  0  0  0  0  0
   -7.2878   -0.2531    9.3217 C   0  0  0  0  0  0  0  0  0  0  0  0
   -7.6069   -0.2550   10.6410 C   0  0  0  0  0  0  0  0  0  0  0  0
   -7.9843    1.3384   11.1809 S   0  0  0  0  0  0  0  0  0  0  0  0
   -7.7193    2.0146    9.6155 C   0  0  0  0  0  0  0  0  0  0  0  0
   -7.3506    1.0514    8.7294 C   0  0  0  0  0  0  0  0  0  0  0  0
   -7.0280    0.9526    7.3188 C   0  0  0  0  0  0  0  0  0  0  0  0
   -7.3101    1.9181    6.3872 C   0  0  0  0  0  0  0  0  0  0  0  0
   -7.8208    3.1769    6.7620 C   0  0  0  0  0  0  0  0  0  0  0  0
   -8.2371    4.2057    7.0541 N   0  0  0  0  0  0  0  0  0  0  0  0
   -7.1738    1.7399    4.9996 C   0  0  0  0  0  0  0  0  0  0  0  0
   -7.0660    1.6148    3.8630 N   0  0  0  0  0  0  0  0  0  0  0  0
    6.0484    2.9408   -6.9086 H   0  0  0  0  0  0  0  0  0  0  0  0
    6.5689    0.2324   -5.3047 H   0  0  0  0  0  0  0  0  0  0  0  0
    8.4352   -0.9085   -6.3798 H   0  0  0  0  0  0  0  0  0  0  0  0
   10.9540   -1.0681   -6.5433 H   0  0  0  0  0  0  0  0  0  0  0  0
   11.9247   -0.8888   -5.0729 H   0  0  0  0  0  0  0  0  0  0  0  0
   10.8885   -2.2992   -5.2870 H   0  0  0  0  0  0  0  0  0  0  0  0
   10.9344    0.0100   -3.0489 H   0  0  0  0  0  0  0  0  0  0  0  0
    9.0971    1.2461   -2.0064 H   0  0  0  0  0  0  0  0  0  0  0  0
    6.9831   -0.5640   -1.4014 H   0  0  0  0  0  0  0  0  0  0  0  0
    6.7750   -0.6059    1.0468 H   0  0  0  0  0  0  0  0  0  0  0  0
    5.1097    1.4301    2.9372 H   0  0  0  0  0  0  0  0  0  0  0  0
    6.6456    0.5869    3.1551 H   0  0  0  0  0  0  0  0  0  0  0  0
    6.5841    2.3586    3.1738 H   0  0  0  0  0  0  0  0  0  0  0  0
    6.0328    3.5935    1.0630 H   0  0  0  0  0  0  0  0  0  0  0  0
    6.2242    3.6408   -1.3823 H   0  0  0  0  0  0  0  0  0  0  0  0
    1.3128    4.2343   -1.3060 H   0  0  0  0  0  0  0  0  0  0  0  0
   -0.3517    4.8861    0.3674 H   0  0  0  0  0  0  0  0  0  0  0  0
   -4.0319    4.6832   -0.1451 H   0  0  0  0  0  0  0  0  0  0  0  0
   -3.0854    3.7602    1.0199 H   0  0  0  0  0  0  0  0  0  0  0  0
   -2.7644    5.4769    0.8012 H   0  0  0  0  0  0  0  0  0  0  0  0
   -3.4774    3.5610   -2.2102 H   0  0  0  0  0  0  0  0  0  0  0  0
   -1.8062    2.8796   -3.8843 H   0  0  0  0  0  0  0  0  0  0  0  0
   -0.1560    5.3705   -4.3849 H   0  0  0  0  0  0  0  0  0  0  0  0
   -0.4398    6.1625   -6.6849 H   0  0  0  0  0  0  0  0  0  0  0  0
   -0.6723    5.5407   -9.0847 H   0  0  0  0  0  0  0  0  0  0  0  0
    0.0979    4.0678   -9.6955 H   0  0  0  0  0  0  0  0  0  0  0  0
    1.0774    5.4708   -9.2737 H   0  0  0  0  0  0  0  0  0  0  0  0
    1.1610    2.4960   -8.1575 H   0  0  0  0  0  0  0  0  0  0  0  0
    1.4141    1.6865   -5.8516 H   0  0  0  0  0  0  0  0  0  0  0  0
    1.9585   -1.1271   -1.7326 H   0  0  0  0  0  0  0  0  0  0  0  0
    3.8772   -1.5277   -3.2173 H   0  0  0  0  0  0  0  0  0  0  0  0
    3.2266   -0.7636   -8.1070 H   0  0  0  0  0  0  0  0  0  0  0  0
    4.8643   -0.0922   -7.9705 H   0  0  0  0  0  0  0  0  0  0  0  0
    3.5108    0.7450   -7.1762 H   0  0  0  0  0  0  0  0  0  0  0  0
    1.4452   -0.5857   -6.6008 H   0  0  0  0  0  0  0  0  0  0  0  0
   -0.4332   -0.0870   -5.1140 H   0  0  0  0  0  0  0  0  0  0  0  0
   -1.0097   -2.4539   -3.5294 H   0  0  0  0  0  0  0  0  0  0  0  0
   -3.2705   -3.3352   -3.8901 H   0  0  0  0  0  0  0  0  0  0  0  0
   -6.1990   -1.3896   -1.0984 H   0  0  0  0  0  0  0  0  0  0  0  0
   -7.1571   -0.5410   -2.3517 H   0  0  0  0  0  0  0  0  0  0  0  0
   -7.6638   -2.1423   -1.7792 H   0  0  0  0  0  0  0  0  0  0  0  0
   -4.9336    0.3058   -2.3884 H   0  0  0  0  0  0  0  0  0  0  0  0
   -2.6844    1.2047   -2.0872 H   0  0  0  0  0  0  0  0  0  0  0  0
   -0.9572   -1.4798    3.5533 H   0  0  0  0  0  0  0  0  0  0  0  0
   -1.9734   -2.6949    5.3990 H   0  0  0  0  0  0  0  0  0  0  0  0
   -4.3644   -3.6074    8.0355 H   0  0  0  0  0  0  0  0  0  0  0  0
   -3.9456   -3.1677    6.3676 H   0  0  0  0  0  0  0  0  0  0  0  0
   -2.7480   -4.0128    7.4003 H   0  0  0  0  0  0  0  0  0  0  0  0
   -1.9612    0.8708    7.7609 H   0  0  0  0  0  0  0  0  0  0  0  0
   -0.9202    2.0972    5.8924 H   0  0  0  0  0  0  0  0  0  0  0  0
    1.6788    0.7470    4.9276 H   0  0  0  0  0  0  0  0  0  0  0  0
    3.6303    2.2506    5.0674 H   0  0  0  0  0  0  0  0  0  0  0  0
    3.3235    6.6458    2.8349 H   0  0  0  0  0  0  0  0  0  0  0  0
    3.8224    5.4155    1.6273 H   0  0  0  0  0  0  0  0  0  0  0  0
    5.0424    6.4012    2.4676 H   0  0  0  0  0  0  0  0  0  0  0  0
    1.6307    5.0730    2.5523 H   0  0  0  0  0  0  0  0  0  0  0  0
   -0.3090    3.5826    2.4306 H   0  0  0  0  0  0  0  0  0  0  0  0
   -5.7623   -7.2389   -3.1921 H   0  0  0  0  0  0  0  0  0  0  0  0
   -4.4730   -7.4573   -4.3933 H   0  0  0  0  0  0  0  0  0  0  0  0
   -5.0161   -5.2514   -5.4064 H   0  0  0  0  0  0  0  0  0  0  0  0
   -6.3168   -5.0093   -4.2412 H   0  0  0  0  0  0  0  0  0  0  0  0
   -6.4243   -6.3212   -5.4177 H   0  0  0  0  0  0  0  0  0  0  0  0
   -9.4656   -9.7632    2.9400 H   0  0  0  0  0  0  0  0  0  0  0  0
  -10.0429   -8.0840    2.9967 H   0  0  0  0  0  0  0  0  0  0  0  0
   -8.4501   -9.4961    5.2052 H   0  0  0  0  0  0  0  0  0  0  0  0
  -10.1962   -9.2147    5.2319 H   0  0  0  0  0  0  0  0  0  0  0  0
   -9.0852   -7.8487    5.3074 H   0  0  0  0  0  0  0  0  0  0  0  0
   -6.0214   -2.1143    6.0926 H   0  0  0  0  0  0  0  0  0  0  0  0
   -7.6476   -1.0786   11.3252 H   0  0  0  0  0  0  0  0  0  0  0  0
   -7.8437    3.0685    9.4669 H   0  0  0  0  0  0  0  0  0  0  0  0
  1  2  2  0  0  0  0
  2  3  1  0  0  0  0
  3  4  2  0  0  0  0
  3  5  1  0  0  0  0
  5  6  2  0  0  0  0
  6  7  1  0  0  0  0
  6  8  1  0  0  0  0
  8  9  1  0  0  0  0
  8 10  2  0  0  0  0
 10 11  1  0  0  0  0
 10 12  1  0  0  0  0
 12 13  1  0  0  0  0
 12 14  2  0  0  0  0
 14 15  1  0  0  0  0
 15 16  2  0  0  0  0
 16 17  1  0  0  0  0
 17 18  3  0  0  0  0
 16 19  1  0  0  0  0
 19 20  3  0  0  0  0
  1 21  1  0  0  0  0
 21 22  2  0  0  0  0
 22 23  1  0  0  0  0
 23 24  1  0  0  0  0
 24 25  2  0  0  0  0
 25 26  1  0  0  0  0
 26 27  2  0  0  0  0
 27 28  1  0  0  0  0
 27 29  1  0  0  0  0
 29 30  2  0  0  0  0
 23 31  1  0  0  0  0
 31 32  2  0  0  0  0
 32 33  1  0  0  0  0
 33 34  2  0  0  0  0
 34 35  1  0  0  0  0
 34 36  1  0  0  0  0
 36 37  2  0  0  0  0
 22 38  1  0  0  0  0
 38 39  1  0  0  0  0
 39 40  1  0  0  0  0
 40 41  2  0  0  0  0
 41 42  1  0  0  0  0
 42 43  1  0  0  0  0
 43 44  2  0  0  0  0
 44 45  1  0  0  0  0
 45 46  2  0  0  0  0
 46 47  1  0  0  0  0
 46 48  1  0  0  0  0
 48 49  2  0  0  0  0
 42 50  1  0  0  0  0
 50 51  2  0  0  0  0
 51 52  1  0  0  0  0
 52 53  2  0  0  0  0
 53 54  1  0  0  0  0
 53 55  1  0  0  0  0
 55 56  2  0  0  0  0
 41 57  1  0  0  0  0
 57 58  1  0  0  0  0
 40 59  1  0  0  0  0
 59 60  2  0  0  0  0
 60 61  1  0  0  0  0
 61 62  1  0  0  0  0
 62 63  2  0  0  0  0
 63 64  1  0  0  0  0
 64 65  2  0  0  0  0
 65 66  1  0  0  0  0
 66 67  1  0  0  0  0
 65 68  1  0  0  0  0
 68 69  2  0  0  0  0
 61 70  1  0  0  0  0
 70 71  2  0  0  0  0
 71 72  1  0  0  0  0
 72 73  2  0  0  0  0
 73 74  1  0  0  0  0
 74 75  1  0  0  0  0
 73 76  1  0  0  0  0
 76 77  2  0  0  0  0
 60 78  1  0  0  0  0
 78 79  1  0  0  0  0
 79 80  1  0  0  0  0
 80 81  2  0  0  0  0
 81 82  1  0  0  0  0
 82 83  1  0  0  0  0
 83 84  2  0  0  0  0
 84 85  1  0  0  0  0
 85 86  2  0  0  0  0
 86 87  1  0  0  0  0
 87 88  1  0  0  0  0
 86 89  1  0  0  0  0
 89 90  2  0  0  0  0
 82 91  1  0  0  0  0
 91 92  2  0  0  0  0
 92 93  1  0  0  0  0
 93 94  2  0  0  0  0
 94 95  1  0  0  0  0
 95 96  1  0  0  0  0
 94 97  1  0  0  0  0
 97 98  2  0  0  0  0
 81 99  1  0  0  0  0
 99100  1  0  0  0  0
 80101  1  0  0  0  0
101102  1  0  0  0  0
102103  2  0  0  0  0
103104  1  0  0  0  0
104105  1  0  0  0  0
105106  2  0  0  0  0
106107  1  0  0  0  0
107108  2  0  0  0  0
108109  1  0  0  0  0
109110  1  0  0  0  0
110111  1  0  0  0  0
108112  1  0  0  0  0
112113  2  0  0  0  0
113114  1  0  0  0  0
112115  1  0  0  0  0
107116  1  0  0  0  0
106117  1  0  0  0  0
104118  2  0  0  0  0
118119  1  0  0  0  0
119120  2  0  0  0  0
120121  1  0  0  0  0
120122  1  0  0  0  0
122123  1  0  0  0  0
122124  2  0  0  0  0
124125  1  0  0  0  0
125126  1  0  0  0  0
126127  1  0  0  0  0
124128  1  0  0  0  0
128129  1  0  0  0  0
128130  2  0  0  0  0
130131  1  0  0  0  0
118132  1  0  0  0  0
132133  2  0  0  0  0
133134  1  0  0  0  0
134135  2  0  0  0  0
135136  1  0  0  0  0
136137  1  0  0  0  0
135138  1  0  0  0  0
134139  1  0  0  0  0
139140  2  0  0  0  0
140141  1  0  0  0  0
141142  2  0  0  0  0
141143  1  0  0  0  0
143144  2  0  0  0  0
144145  1  0  0  0  0
145146  1  0  0  0  0
146147  2  0  0  0  0
147148  1  0  0  0  0
148149  2  0  0  0  0
149150  1  0  0  0  0
150151  3  0  0  0  0
149152  1  0  0  0  0
152153  3  0  0  0  0
 15  2  1  0  0  0  0
 58 21  1  0  0  0  0
100 59  1  0  0  0  0
136101  2  0  0  0  0
148140  1  0  0  0  0
 14  5  1  0  0  0  0
 30 24  1  0  0  0  0
 37 31  1  0  0  0  0
 57 38  2  0  0  0  0
 69 62  1  0  0  0  0
 77 70  1  0  0  0  0
 99 78  2  0  0  0  0
133102  1  0  0  0  0
147143  1  0  0  0  0
 49 43  1  0  0  0  0
 56 50  1  0  0  0  0
 90 83  1  0  0  0  0
 98 91  1  0  0  0  0
113105  1  0  0  0  0
130119  1  0  0  0  0
  1154  1  0  0  0  0
 25155  1  0  0  0  0
 26156  1  0  0  0  0
 28157  1  0  0  0  0
 28158  1  0  0  0  0
 28159  1  0  0  0  0
 29160  1  0  0  0  0
 30161  1  0  0  0  0
 32162  1  0  0  0  0
 33163  1  0  0  0  0
 35164  1  0  0  0  0
 35165  1  0  0  0  0
 35166  1  0  0  0  0
 36167  1  0  0  0  0
 37168  1  0  0  0  0
 44169  1  0  0  0  0
 45170  1  0  0  0  0
 47171  1  0  0  0  0
 47172  1  0  0  0  0
 47173  1  0  0  0  0
 48174  1  0  0  0  0
 49175  1  0  0  0  0
 51176  1  0  0  0  0
 52177  1  0  0  0  0
 54178  1  0  0  0  0
 54179  1  0  0  0  0
 54180  1  0  0  0  0
 55181  1  0  0  0  0
 56182  1  0  0  0  0
 63183  1  0  0  0  0
 64184  1  0  0  0  0
 67185  1  0  0  0  0
 67186  1  0  0  0  0
 67187  1  0  0  0  0
 68188  1  0  0  0  0
 69189  1  0  0  0  0
 71190  1  0  0  0  0
 72191  1  0  0  0  0
 75192  1  0  0  0  0
 75193  1  0  0  0  0
 75194  1  0  0  0  0
 76195  1  0  0  0  0
 77196  1  0  0  0  0
 84197  1  0  0  0  0
 85198  1  0  0  0  0
 88199  1  0  0  0  0
 88200  1  0  0  0  0
 88201  1  0  0  0  0
 89202  1  0  0  0  0
 90203  1  0  0  0  0
 92204  1  0  0  0  0
 93205  1  0  0  0  0
 96206  1  0  0  0  0
 96207  1  0  0  0  0
 96208  1  0  0  0  0
 97209  1  0  0  0  0
 98210  1  0  0  0  0
110211  1  0  0  0  0
110212  1  0  0  0  0
111213  1  0  0  0  0
111214  1  0  0  0  0
111215  1  0  0  0  0
126216  1  0  0  0  0
126217  1  0  0  0  0
127218  1  0  0  0  0
127219  1  0  0  0  0
127220  1  0  0  0  0
139221  1  0  0  0  0
144222  1  0  0  0  0
146223  1  0  0  0  0
M  END
