
  xtb     02112211423D
 energy: -417.607022922592 gnorm: 0.000418576878 xtb: 6.4.1 (unknown)
250272  0     0  0            999 V2000
    0.3285    9.1702    3.2761 C   0  0  0  0  0  0  0  0  0  0  0  0
    1.4829    9.8214    2.8789 C   0  0  0  0  0  0  0  0  0  0  0  0
    2.7319    9.1266    2.5688 C   0  0  0  0  0  0  0  0  0  0  0  0
    2.9485    7.9316    2.6246 O   0  0  0  0  0  0  0  0  0  0  0  0
    3.7341   10.1968    2.3366 C   0  0  0  0  0  0  0  0  0  0  0  0
    5.0734   10.0714    2.0252 C   0  0  0  0  0  0  0  0  0  0  0  0
    5.7663    8.5461    1.6899 Cl  0  0  0  0  0  0  0  0  0  0  0  0
    5.8561   11.2328    1.9728 C   0  0  0  0  0  0  0  0  0  0  0  0
    7.5092   11.1315    1.5427 Cl  0  0  0  0  0  0  0  0  0  0  0  0
    5.2967   12.4632    2.3068 C   0  0  0  0  0  0  0  0  0  0  0  0
    6.2917   13.8562    2.3347 Cl  0  0  0  0  0  0  0  0  0  0  0  0
    3.9343   12.5822    2.6290 C   0  0  0  0  0  0  0  0  0  0  0  0
    3.3603   14.0996    3.1869 Cl  0  0  0  0  0  0  0  0  0  0  0  0
    3.1349   11.4497    2.5710 C   0  0  0  0  0  0  0  0  0  0  0  0
    1.7013   11.2366    2.7731 C   0  0  0  0  0  0  0  0  0  0  0  0
    0.6923   12.1543    2.6017 C   0  0  0  0  0  0  0  0  0  0  0  0
    0.8177   13.4516    2.0727 C   0  0  0  0  0  0  0  0  0  0  0  0
    0.7894   14.4694    1.5399 N   0  0  0  0  0  0  0  0  0  0  0  0
   -0.6732   11.8213    2.7281 C   0  0  0  0  0  0  0  0  0  0  0  0
   -1.8025   11.6257    2.8009 N   0  0  0  0  0  0  0  0  0  0  0  0
   -0.0115    7.8521    2.9833 C   0  0  0  0  0  0  0  0  0  0  0  0
    0.4151    6.9753    1.9579 C   0  0  0  0  0  0  0  0  0  0  0  0
    1.1677    7.2830    0.8670 N   0  0  0  0  0  0  0  0  0  0  0  0
    1.2361    8.5682    0.3128 C   0  0  0  0  0  0  0  0  0  0  0  0
    2.4415    9.0256   -0.2172 C   0  0  0  0  0  0  0  0  0  0  0  0
    2.5256   10.2908   -0.7674 C   0  0  0  0  0  0  0  0  0  0  0  0
    1.4193   11.1284   -0.8154 C   0  0  0  0  0  0  0  0  0  0  0  0
    1.5042   12.4989   -1.4063 C   0  0  0  0  0  0  0  0  0  0  0  0
    0.2124   10.6535   -0.3039 C   0  0  0  0  0  0  0  0  0  0  0  0
    0.1158    9.3970    0.2550 C   0  0  0  0  0  0  0  0  0  0  0  0
    1.8790    6.2495    0.2111 C   0  0  0  0  0  0  0  0  0  0  0  0
    2.6786    5.3733    0.9370 C   0  0  0  0  0  0  0  0  0  0  0  0
    3.3588    4.3613    0.2865 C   0  0  0  0  0  0  0  0  0  0  0  0
    3.2639    4.2065   -1.0908 C   0  0  0  0  0  0  0  0  0  0  0  0
    3.9907    3.1087   -1.8045 C   0  0  0  0  0  0  0  0  0  0  0  0
    2.4752    5.1016   -1.8075 C   0  0  0  0  0  0  0  0  0  0  0  0
    1.7870    6.1142   -1.1704 C   0  0  0  0  0  0  0  0  0  0  0  0
   -0.1424    5.6896    2.1558 C   0  0  0  0  0  0  0  0  0  0  0  0
   -0.0445    4.2073    1.2759 S   0  0  0  0  0  0  0  0  0  0  0  0
   -1.1351    3.4320    2.4170 C   0  0  0  0  0  0  0  0  0  0  0  0
   -1.5855    4.2917    3.3943 C   0  0  0  0  0  0  0  0  0  0  0  0
   -2.4677    3.9634    4.4060 N   0  0  0  0  0  0  0  0  0  0  0  0
   -3.5686    3.1331    4.1469 C   0  0  0  0  0  0  0  0  0  0  0  0
   -4.0536    2.2761    5.1330 C   0  0  0  0  0  0  0  0  0  0  0  0
   -5.1697    1.5011    4.8962 C   0  0  0  0  0  0  0  0  0  0  0  0
   -5.8332    1.5461    3.6742 C   0  0  0  0  0  0  0  0  0  0  0  0
   -7.0685    0.7270    3.4563 C   0  0  0  0  0  0  0  0  0  0  0  0
   -5.3285    2.3790    2.6855 C   0  0  0  0  0  0  0  0  0  0  0  0
   -4.2166    3.1677    2.9150 C   0  0  0  0  0  0  0  0  0  0  0  0
   -2.2773    4.5490    5.6683 C   0  0  0  0  0  0  0  0  0  0  0  0
   -3.3590    4.9126    6.4648 C   0  0  0  0  0  0  0  0  0  0  0  0
   -3.1465    5.4832    7.7052 C   0  0  0  0  0  0  0  0  0  0  0  0
   -1.8622    5.7265    8.1768 C   0  0  0  0  0  0  0  0  0  0  0  0
   -1.6272    6.3533    9.5165 C   0  0  0  0  0  0  0  0  0  0  0  0
   -0.7879    5.3795    7.3661 C   0  0  0  0  0  0  0  0  0  0  0  0
   -0.9863    4.7899    6.1350 C   0  0  0  0  0  0  0  0  0  0  0  0
   -1.0089    5.5815    3.2318 C   0  0  0  0  0  0  0  0  0  0  0  0
   -1.1934    7.0823    4.0582 S   0  0  0  0  0  0  0  0  0  0  0  0
   -1.3172    2.0108    2.2235 C   0  0  0  0  0  0  0  0  0  0  0  0
   -0.4524    1.0549    2.6978 C   0  0  0  0  0  0  0  0  0  0  0  0
    0.6726    1.2893    3.4995 N   0  0  0  0  0  0  0  0  0  0  0  0
    0.5615    1.6157    4.8454 C   0  0  0  0  0  0  0  0  0  0  0  0
    1.6472    2.1679    5.5288 C   0  0  0  0  0  0  0  0  0  0  0  0
    1.5350    2.4931    6.8620 C   0  0  0  0  0  0  0  0  0  0  0  0
    0.3386    2.2849    7.5450 C   0  0  0  0  0  0  0  0  0  0  0  0
    0.3030    2.7516    9.2487 S   0  0  0  0  0  0  0  0  0  0  0  0
   -1.4362    2.5466    9.7217 C   0  0  0  0  0  0  0  0  0  0  0  0
   -0.7420    1.7391    6.8694 C   0  0  0  0  0  0  0  0  0  0  0  0
   -0.6316    1.4091    5.5328 C   0  0  0  0  0  0  0  0  0  0  0  0
    1.8515    0.7797    2.9199 C   0  0  0  0  0  0  0  0  0  0  0  0
    2.6973   -0.1009    3.5886 C   0  0  0  0  0  0  0  0  0  0  0  0
    3.7233   -0.7315    2.9107 C   0  0  0  0  0  0  0  0  0  0  0  0
    3.9113   -0.5022    1.5539 C   0  0  0  0  0  0  0  0  0  0  0  0
    5.1367   -1.3462    0.5916 S   0  0  0  0  0  0  0  0  0  0  0  0
    5.1307   -3.0018    1.3402 C   0  0  0  0  0  0  0  0  0  0  0  0
    3.1134    0.4307    0.9006 C   0  0  0  0  0  0  0  0  0  0  0  0
    2.1003    1.0716    1.5769 C   0  0  0  0  0  0  0  0  0  0  0  0
   -0.6709   -0.1964    2.0706 C   0  0  0  0  0  0  0  0  0  0  0  0
    0.1886   -1.6876    2.1135 S   0  0  0  0  0  0  0  0  0  0  0  0
   -0.6883   -2.2478    0.6949 C   0  0  0  0  0  0  0  0  0  0  0  0
   -1.6153   -1.3254    0.2413 C   0  0  0  0  0  0  0  0  0  0  0  0
   -2.3231   -1.4064   -0.9490 N   0  0  0  0  0  0  0  0  0  0  0  0
   -3.6263   -0.9077   -0.9826 C   0  0  0  0  0  0  0  0  0  0  0  0
   -4.1557   -0.3427   -2.1396 C   0  0  0  0  0  0  0  0  0  0  0  0
   -5.4430    0.1580   -2.1581 C   0  0  0  0  0  0  0  0  0  0  0  0
   -6.2266    0.1080   -1.0140 C   0  0  0  0  0  0  0  0  0  0  0  0
   -7.8763    0.7330   -0.9006 S   0  0  0  0  0  0  0  0  0  0  0  0
   -8.2516    1.2945   -2.5838 C   0  0  0  0  0  0  0  0  0  0  0  0
   -5.7028   -0.4567    0.1459 C   0  0  0  0  0  0  0  0  0  0  0  0
   -4.4218   -0.9552    0.1646 C   0  0  0  0  0  0  0  0  0  0  0  0
   -1.6790   -1.8869   -2.1017 C   0  0  0  0  0  0  0  0  0  0  0  0
   -2.3593   -2.6826   -3.0218 C   0  0  0  0  0  0  0  0  0  0  0  0
   -1.6846   -3.2584   -4.0743 C   0  0  0  0  0  0  0  0  0  0  0  0
   -0.3194   -3.0444   -4.2485 C   0  0  0  0  0  0  0  0  0  0  0  0
    0.4636   -3.9530   -5.5459 S   0  0  0  0  0  0  0  0  0  0  0  0
    2.0427   -3.0978   -5.7873 C   0  0  0  0  0  0  0  0  0  0  0  0
    0.3426   -2.1748   -3.3922 C   0  0  0  0  0  0  0  0  0  0  0  0
   -0.3355   -1.5986   -2.3344 C   0  0  0  0  0  0  0  0  0  0  0  0
   -1.6293   -0.1744    1.0768 C   0  0  0  0  0  0  0  0  0  0  0  0
   -2.4046    1.3722    0.9939 S   0  0  0  0  0  0  0  0  0  0  0  0
   -0.0990   -3.3438   -0.0211 C   0  0  0  0  0  0  0  0  0  0  0  0
   -0.6403   -4.4842   -0.5806 C   0  0  0  0  0  0  0  0  0  0  0  0
   -1.8830   -4.9916   -0.1742 N   0  0  0  0  0  0  0  0  0  0  0  0
   -2.0675   -5.3730    1.1593 C   0  0  0  0  0  0  0  0  0  0  0  0
   -1.1066   -5.1643    2.1482 C   0  0  0  0  0  0  0  0  0  0  0  0
   -1.3203   -5.5863    3.4466 C   0  0  0  0  0  0  0  0  0  0  0  0
   -2.4872   -6.2378    3.8158 C   0  0  0  0  0  0  0  0  0  0  0  0
   -2.7131   -6.7007    5.2232 C   0  0  0  0  0  0  0  0  0  0  0  0
   -3.4282   -6.4799    2.8226 C   0  0  0  0  0  0  0  0  0  0  0  0
   -3.2255   -6.0672    1.5226 C   0  0  0  0  0  0  0  0  0  0  0  0
   -3.0040   -4.9514   -1.0386 C   0  0  0  0  0  0  0  0  0  0  0  0
   -3.0320   -5.6477   -2.2392 C   0  0  0  0  0  0  0  0  0  0  0  0
   -4.1486   -5.5778   -3.0519 C   0  0  0  0  0  0  0  0  0  0  0  0
   -5.2573   -4.8204   -2.6931 C   0  0  0  0  0  0  0  0  0  0  0  0
   -6.4613   -4.7586   -3.5826 C   0  0  0  0  0  0  0  0  0  0  0  0
   -5.2271   -4.1391   -1.4814 C   0  0  0  0  0  0  0  0  0  0  0  0
   -4.1176   -4.2044   -0.6627 C   0  0  0  0  0  0  0  0  0  0  0  0
    0.2938   -5.1076   -1.4456 C   0  0  0  0  0  0  0  0  0  0  0  0
    0.2637   -6.4895   -2.4734 S   0  0  0  0  0  0  0  0  0  0  0  0
    1.9272   -6.2069   -2.9504 C   0  0  0  0  0  0  0  0  0  0  0  0
    2.5062   -5.1337   -2.2433 C   0  0  0  0  0  0  0  0  0  0  0  0
    3.8687   -4.8163   -2.3046 N   0  0  0  0  0  0  0  0  0  0  0  0
    4.8184   -5.6843   -1.7634 C   0  0  0  0  0  0  0  0  0  0  0  0
    4.4765   -6.9431   -1.2687 C   0  0  0  0  0  0  0  0  0  0  0  0
    5.4323   -7.7576   -0.6934 C   0  0  0  0  0  0  0  0  0  0  0  0
    6.7554   -7.3550   -0.5774 C   0  0  0  0  0  0  0  0  0  0  0  0
    7.7947   -8.2521    0.0222 C   0  0  0  0  0  0  0  0  0  0  0  0
    7.0874   -6.0897   -1.0453 C   0  0  0  0  0  0  0  0  0  0  0  0
    6.1437   -5.2641   -1.6212 C   0  0  0  0  0  0  0  0  0  0  0  0
    4.3000   -3.6452   -2.9876 C   0  0  0  0  0  0  0  0  0  0  0  0
    3.9220   -2.3713   -2.5892 C   0  0  0  0  0  0  0  0  0  0  0  0
    4.3449   -1.2634   -3.3029 C   0  0  0  0  0  0  0  0  0  0  0  0
    5.1599   -1.3943   -4.4175 C   0  0  0  0  0  0  0  0  0  0  0  0
    5.6300   -0.1951   -5.1810 C   0  0  0  0  0  0  0  0  0  0  0  0
    5.5557   -2.6728   -4.7966 C   0  0  0  0  0  0  0  0  0  0  0  0
    5.1353   -3.7836   -4.0952 C   0  0  0  0  0  0  0  0  0  0  0  0
    1.5570   -4.5048   -1.4364 C   0  0  0  0  0  0  0  0  0  0  0  0
    1.6128   -3.1619   -0.3516 S   0  0  0  0  0  0  0  0  0  0  0  0
    2.5838   -6.8606   -4.0044 C   0  0  0  0  0  0  0  0  0  0  0  0
    2.1940   -7.9572   -4.7259 C   0  0  0  0  0  0  0  0  0  0  0  0
    1.0985   -8.8750   -4.3783 C   0  0  0  0  0  0  0  0  0  0  0  0
    0.2145   -8.6864   -3.5606 O   0  0  0  0  0  0  0  0  0  0  0  0
    1.3072  -10.0813   -5.1988 C   0  0  0  0  0  0  0  0  0  0  0  0
    2.3912   -9.8771   -6.0513 C   0  0  0  0  0  0  0  0  0  0  0  0
    2.8091  -10.8877   -6.9262 C   0  0  0  0  0  0  0  0  0  0  0  0
    2.1304  -12.0789   -6.9280 C   0  0  0  0  0  0  0  0  0  0  0  0
    1.0232  -12.3132   -6.0842 C   0  0  0  0  0  0  0  0  0  0  0  0
    0.3273  -13.5393   -6.0988 C   0  0  0  0  0  0  0  0  0  0  0  0
   -0.7431  -13.7435   -5.2725 C   0  0  0  0  0  0  0  0  0  0  0  0
   -1.1678  -12.7335   -4.3940 C   0  0  0  0  0  0  0  0  0  0  0  0
   -0.5182  -11.5312   -4.3492 C   0  0  0  0  0  0  0  0  0  0  0  0
    0.5887  -11.2920   -5.1894 C   0  0  0  0  0  0  0  0  0  0  0  0
    2.9031   -8.5249   -5.8514 C   0  0  0  0  0  0  0  0  0  0  0  0
    3.7921   -7.8736   -6.6662 C   0  0  0  0  0  0  0  0  0  0  0  0
    4.4580   -8.4654   -7.7587 C   0  0  0  0  0  0  0  0  0  0  0  0
    5.0430   -8.8876   -8.6520 N   0  0  0  0  0  0  0  0  0  0  0  0
    4.0886   -6.4996   -6.5739 C   0  0  0  0  0  0  0  0  0  0  0  0
    4.3402   -5.3788   -6.5939 N   0  0  0  0  0  0  0  0  0  0  0  0
   -0.3634    9.6988    3.9202 H   0  0  0  0  0  0  0  0  0  0  0  0
    3.3088    8.3834   -0.1914 H   0  0  0  0  0  0  0  0  0  0  0  0
    3.4714   10.6310   -1.1631 H   0  0  0  0  0  0  0  0  0  0  0  0
    2.4812   12.6721   -1.8494 H   0  0  0  0  0  0  0  0  0  0  0  0
    0.7415   12.6297   -2.1721 H   0  0  0  0  0  0  0  0  0  0  0  0
    1.3314   13.2558   -0.6414 H   0  0  0  0  0  0  0  0  0  0  0  0
   -0.6654   11.2816   -0.3467 H   0  0  0  0  0  0  0  0  0  0  0  0
   -0.8322    9.0508    0.6388 H   0  0  0  0  0  0  0  0  0  0  0  0
    2.7780    5.5130    2.0019 H   0  0  0  0  0  0  0  0  0  0  0  0
    3.9755    3.6841    0.8591 H   0  0  0  0  0  0  0  0  0  0  0  0
    4.6245    3.5198   -2.5889 H   0  0  0  0  0  0  0  0  0  0  0  0
    4.6118    2.5393   -1.1181 H   0  0  0  0  0  0  0  0  0  0  0  0
    3.2765    2.4340   -2.2767 H   0  0  0  0  0  0  0  0  0  0  0  0
    2.3958    4.9993   -2.8801 H   0  0  0  0  0  0  0  0  0  0  0  0
    1.1727    6.8002   -1.7353 H   0  0  0  0  0  0  0  0  0  0  0  0
   -3.5581    2.2361    6.0906 H   0  0  0  0  0  0  0  0  0  0  0  0
   -5.5382    0.8503    5.6765 H   0  0  0  0  0  0  0  0  0  0  0  0
   -7.7990    0.9318    4.2379 H   0  0  0  0  0  0  0  0  0  0  0  0
   -6.8341   -0.3370    3.4980 H   0  0  0  0  0  0  0  0  0  0  0  0
   -7.5208    0.9518    2.4935 H   0  0  0  0  0  0  0  0  0  0  0  0
   -5.8180    2.4248    1.7237 H   0  0  0  0  0  0  0  0  0  0  0  0
   -3.8592    3.8294    2.1394 H   0  0  0  0  0  0  0  0  0  0  0  0
   -4.3654    4.7492    6.1091 H   0  0  0  0  0  0  0  0  0  0  0  0
   -3.9983    5.7528    8.3135 H   0  0  0  0  0  0  0  0  0  0  0  0
   -1.3714    7.4061    9.3959 H   0  0  0  0  0  0  0  0  0  0  0  0
   -2.5153    6.2886   10.1405 H   0  0  0  0  0  0  0  0  0  0  0  0
   -0.7980    5.8654   10.0252 H   0  0  0  0  0  0  0  0  0  0  0  0
    0.2195    5.5567    7.7116 H   0  0  0  0  0  0  0  0  0  0  0  0
   -0.1364    4.5015    5.5344 H   0  0  0  0  0  0  0  0  0  0  0  0
    2.5739    2.3424    5.0030 H   0  0  0  0  0  0  0  0  0  0  0  0
    2.3732    2.9216    7.3900 H   0  0  0  0  0  0  0  0  0  0  0  0
   -2.0642    3.1512    9.0730 H   0  0  0  0  0  0  0  0  0  0  0  0
   -1.5053    2.9063   10.7436 H   0  0  0  0  0  0  0  0  0  0  0  0
   -1.7136    1.4969    9.6845 H   0  0  0  0  0  0  0  0  0  0  0  0
   -1.6746    1.5518    7.3765 H   0  0  0  0  0  0  0  0  0  0  0  0
   -1.4770    0.9770    5.0170 H   0  0  0  0  0  0  0  0  0  0  0  0
    2.5265   -0.3189    4.6323 H   0  0  0  0  0  0  0  0  0  0  0  0
    4.3557   -1.4267    3.4403 H   0  0  0  0  0  0  0  0  0  0  0  0
    5.5784   -3.6685    0.6087 H   0  0  0  0  0  0  0  0  0  0  0  0
    5.7184   -3.0098    2.2535 H   0  0  0  0  0  0  0  0  0  0  0  0
    4.1036   -3.2958    1.5323 H   0  0  0  0  0  0  0  0  0  0  0  0
    3.2817    0.6277   -0.1462 H   0  0  0  0  0  0  0  0  0  0  0  0
    1.4694    1.7797    1.0593 H   0  0  0  0  0  0  0  0  0  0  0  0
   -3.5500   -0.2829   -3.0311 H   0  0  0  0  0  0  0  0  0  0  0  0
   -5.8150    0.5939   -3.0714 H   0  0  0  0  0  0  0  0  0  0  0  0
   -8.1685    0.4635   -3.2784 H   0  0  0  0  0  0  0  0  0  0  0  0
   -9.2774    1.6484   -2.5528 H   0  0  0  0  0  0  0  0  0  0  0  0
   -7.5893    2.1095   -2.8613 H   0  0  0  0  0  0  0  0  0  0  0  0
   -6.3155   -0.5051    1.0309 H   0  0  0  0  0  0  0  0  0  0  0  0
   -4.0340   -1.3901    1.0738 H   0  0  0  0  0  0  0  0  0  0  0  0
   -3.4149   -2.8589   -2.8985 H   0  0  0  0  0  0  0  0  0  0  0  0
   -2.2073   -3.9018   -4.7642 H   0  0  0  0  0  0  0  0  0  0  0  0
    2.5309   -3.6002   -6.6166 H   0  0  0  0  0  0  0  0  0  0  0  0
    2.6620   -3.1925   -4.9023 H   0  0  0  0  0  0  0  0  0  0  0  0
    1.8594   -2.0557   -6.0311 H   0  0  0  0  0  0  0  0  0  0  0  0
    1.3879   -1.9472   -3.5303 H   0  0  0  0  0  0  0  0  0  0  0  0
    0.1886   -0.9244   -1.6719 H   0  0  0  0  0  0  0  0  0  0  0  0
   -0.1716   -4.6778    1.9192 H   0  0  0  0  0  0  0  0  0  0  0  0
   -0.5552   -5.3979    4.1865 H   0  0  0  0  0  0  0  0  0  0  0  0
   -3.7565   -6.5789    5.5073 H   0  0  0  0  0  0  0  0  0  0  0  0
   -2.4629   -7.7583    5.3158 H   0  0  0  0  0  0  0  0  0  0  0  0
   -2.0906   -6.1434    5.9192 H   0  0  0  0  0  0  0  0  0  0  0  0
   -4.3379   -7.0095    3.0682 H   0  0  0  0  0  0  0  0  0  0  0  0
   -3.9695   -6.2971    0.7757 H   0  0  0  0  0  0  0  0  0  0  0  0
   -2.1903   -6.2525   -2.5343 H   0  0  0  0  0  0  0  0  0  0  0  0
   -4.1593   -6.1279   -3.9816 H   0  0  0  0  0  0  0  0  0  0  0  0
   -6.1660   -4.6864   -4.6274 H   0  0  0  0  0  0  0  0  0  0  0  0
   -7.0854   -3.9044   -3.3307 H   0  0  0  0  0  0  0  0  0  0  0  0
   -7.0594   -5.6628   -3.4669 H   0  0  0  0  0  0  0  0  0  0  0  0
   -6.0746   -3.5409   -1.1778 H   0  0  0  0  0  0  0  0  0  0  0  0
   -4.1080   -3.6791    0.2799 H   0  0  0  0  0  0  0  0  0  0  0  0
    3.4578   -7.2951   -1.3205 H   0  0  0  0  0  0  0  0  0  0  0  0
    5.1352   -8.7289   -0.3240 H   0  0  0  0  0  0  0  0  0  0  0  0
    8.3471   -8.7661   -0.7655 H   0  0  0  0  0  0  0  0  0  0  0  0
    7.3369   -9.0042    0.6603 H   0  0  0  0  0  0  0  0  0  0  0  0
    8.5084   -7.6777    0.6093 H   0  0  0  0  0  0  0  0  0  0  0  0
    8.1043   -5.7362   -0.9512 H   0  0  0  0  0  0  0  0  0  0  0  0
    6.4349   -4.2791   -1.9529 H   0  0  0  0  0  0  0  0  0  0  0  0
    3.3164   -2.2352   -1.7099 H   0  0  0  0  0  0  0  0  0  0  0  0
    4.0430   -0.2800   -2.9726 H   0  0  0  0  0  0  0  0  0  0  0  0
    5.0265    0.6783   -4.9463 H   0  0  0  0  0  0  0  0  0  0  0  0
    6.6656    0.0278   -4.9239 H   0  0  0  0  0  0  0  0  0  0  0  0
    5.5852   -0.3808   -6.2521 H   0  0  0  0  0  0  0  0  0  0  0  0
    6.1928   -2.8042   -5.6578 H   0  0  0  0  0  0  0  0  0  0  0  0
    5.4546   -4.7663   -4.4067 H   0  0  0  0  0  0  0  0  0  0  0  0
    3.5417   -6.4189   -4.2589 H   0  0  0  0  0  0  0  0  0  0  0  0
    3.6528  -10.7403   -7.5802 H   0  0  0  0  0  0  0  0  0  0  0  0
    2.4433  -12.8713   -7.5926 H   0  0  0  0  0  0  0  0  0  0  0  0
    0.6559  -14.3142   -6.7763 H   0  0  0  0  0  0  0  0  0  0  0  0
   -1.2703  -14.6860   -5.2900 H   0  0  0  0  0  0  0  0  0  0  0  0
   -2.0157  -12.9156   -3.7506 H   0  0  0  0  0  0  0  0  0  0  0  0
   -0.8357  -10.7490   -3.6779 H   0  0  0  0  0  0  0  0  0  0  0  0
  1  2  2  0  0  0  0
  2  3  1  0  0  0  0
  3  4  2  0  0  0  0
  3  5  1  0  0  0  0
  5  6  2  0  0  0  0
  6  7  1  0  0  0  0
  6  8  1  0  0  0  0
  8  9  1  0  0  0  0
  8 10  2  0  0  0  0
 10 11  1  0  0  0  0
 10 12  1  0  0  0  0
 12 13  1  0  0  0  0
 12 14  2  0  0  0  0
 14 15  1  0  0  0  0
 15 16  2  0  0  0  0
 16 17  1  0  0  0  0
 17 18  3  0  0  0  0
 16 19  1  0  0  0  0
 19 20  3  0  0  0  0
  1 21  1  0  0  0  0
 21 22  2  0  0  0  0
 22 23  1  0  0  0  0
 23 24  1  0  0  0  0
 24 25  2  0  0  0  0
 25 26  1  0  0  0  0
 26 27  2  0  0  0  0
 27 28  1  0  0  0  0
 27 29  1  0  0  0  0
 29 30  2  0  0  0  0
 23 31  1  0  0  0  0
 31 32  2  0  0  0  0
 32 33  1  0  0  0  0
 33 34  2  0  0  0  0
 34 35  1  0  0  0  0
 34 36  1  0  0  0  0
 36 37  2  0  0  0  0
 22 38  1  0  0  0  0
 38 39  1  0  0  0  0
 39 40  1  0  0  0  0
 40 41  2  0  0  0  0
 41 42  1  0  0  0  0
 42 43  1  0  0  0  0
 43 44  2  0  0  0  0
 44 45  1  0  0  0  0
 45 46  2  0  0  0  0
 46 47  1  0  0  0  0
 46 48  1  0  0  0  0
 48 49  2  0  0  0  0
 42 50  1  0  0  0  0
 50 51  2  0  0  0  0
 51 52  1  0  0  0  0
 52 53  2  0  0  0  0
 53 54  1  0  0  0  0
 53 55  1  0  0  0  0
 55 56  2  0  0  0  0
 41 57  1  0  0  0  0
 57 58  1  0  0  0  0
 40 59  1  0  0  0  0
 59 60  2  0  0  0  0
 60 61  1  0  0  0  0
 61 62  1  0  0  0  0
 62 63  2  0  0  0  0
 63 64  1  0  0  0  0
 64 65  2  0  0  0  0
 65 66  1  0  0  0  0
 66 67  1  0  0  0  0
 65 68  1  0  0  0  0
 68 69  2  0  0  0  0
 61 70  1  0  0  0  0
 70 71  2  0  0  0  0
 71 72  1  0  0  0  0
 72 73  2  0  0  0  0
 73 74  1  0  0  0  0
 74 75  1  0  0  0  0
 73 76  1  0  0  0  0
 76 77  2  0  0  0  0
 60 78  1  0  0  0  0
 78 79  1  0  0  0  0
 79 80  1  0  0  0  0
 80 81  2  0  0  0  0
 81 82  1  0  0  0  0
 82 83  1  0  0  0  0
 83 84  2  0  0  0  0
 84 85  1  0  0  0  0
 85 86  2  0  0  0  0
 86 87  1  0  0  0  0
 87 88  1  0  0  0  0
 86 89  1  0  0  0  0
 89 90  2  0  0  0  0
 82 91  1  0  0  0  0
 91 92  2  0  0  0  0
 92 93  1  0  0  0  0
 93 94  2  0  0  0  0
 94 95  1  0  0  0  0
 95 96  1  0  0  0  0
 94 97  1  0  0  0  0
 97 98  2  0  0  0  0
 81 99  1  0  0  0  0
 99100  1  0  0  0  0
 80101  1  0  0  0  0
101102  2  0  0  0  0
102103  1  0  0  0  0
103104  1  0  0  0  0
104105  2  0  0  0  0
105106  1  0  0  0  0
106107  2  0  0  0  0
107108  1  0  0  0  0
107109  1  0  0  0  0
109110  2  0  0  0  0
103111  1  0  0  0  0
111112  2  0  0  0  0
112113  1  0  0  0  0
113114  2  0  0  0  0
114115  1  0  0  0  0
114116  1  0  0  0  0
116117  2  0  0  0  0
102118  1  0  0  0  0
118119  1  0  0  0  0
119120  1  0  0  0  0
120121  2  0  0  0  0
121122  1  0  0  0  0
122123  1  0  0  0  0
123124  2  0  0  0  0
124125  1  0  0  0  0
125126  2  0  0  0  0
126127  1  0  0  0  0
126128  1  0  0  0  0
128129  2  0  0  0  0
122130  1  0  0  0  0
130131  2  0  0  0  0
131132  1  0  0  0  0
132133  2  0  0  0  0
133134  1  0  0  0  0
133135  1  0  0  0  0
135136  2  0  0  0  0
121137  1  0  0  0  0
137138  1  0  0  0  0
120139  1  0  0  0  0
139140  2  0  0  0  0
140141  1  0  0  0  0
141142  2  0  0  0  0
141143  1  0  0  0  0
143144  2  0  0  0  0
144145  1  0  0  0  0
145146  2  0  0  0  0
146147  1  0  0  0  0
147148  2  0  0  0  0
148149  1  0  0  0  0
149150  2  0  0  0  0
150151  1  0  0  0  0
151152  2  0  0  0  0
144153  1  0  0  0  0
153154  2  0  0  0  0
154155  1  0  0  0  0
155156  3  0  0  0  0
154157  1  0  0  0  0
157158  3  0  0  0  0
 15  2  1  0  0  0  0
 58 21  1  0  0  0  0
100 59  1  0  0  0  0
138101  1  0  0  0  0
153140  1  0  0  0  0
 14  5  1  0  0  0  0
 30 24  1  0  0  0  0
 37 31  1  0  0  0  0
 57 38  2  0  0  0  0
 69 62  1  0  0  0  0
 77 70  1  0  0  0  0
 99 78  2  0  0  0  0
110104  1  0  0  0  0
117111  1  0  0  0  0
137118  2  0  0  0  0
152143  1  0  0  0  0
 49 43  1  0  0  0  0
 56 50  1  0  0  0  0
 90 83  1  0  0  0  0
 98 91  1  0  0  0  0
129123  1  0  0  0  0
136130  1  0  0  0  0
152147  1  0  0  0  0
  1159  1  0  0  0  0
 25160  1  0  0  0  0
 26161  1  0  0  0  0
 28162  1  0  0  0  0
 28163  1  0  0  0  0
 28164  1  0  0  0  0
 29165  1  0  0  0  0
 30166  1  0  0  0  0
 32167  1  0  0  0  0
 33168  1  0  0  0  0
 35169  1  0  0  0  0
 35170  1  0  0  0  0
 35171  1  0  0  0  0
 36172  1  0  0  0  0
 37173  1  0  0  0  0
 44174  1  0  0  0  0
 45175  1  0  0  0  0
 47176  1  0  0  0  0
 47177  1  0  0  0  0
 47178  1  0  0  0  0
 48179  1  0  0  0  0
 49180  1  0  0  0  0
 51181  1  0  0  0  0
 52182  1  0  0  0  0
 54183  1  0  0  0  0
 54184  1  0  0  0  0
 54185  1  0  0  0  0
 55186  1  0  0  0  0
 56187  1  0  0  0  0
 63188  1  0  0  0  0
 64189  1  0  0  0  0
 67190  1  0  0  0  0
 67191  1  0  0  0  0
 67192  1  0  0  0  0
 68193  1  0  0  0  0
 69194  1  0  0  0  0
 71195  1  0  0  0  0
 72196  1  0  0  0  0
 75197  1  0  0  0  0
 75198  1  0  0  0  0
 75199  1  0  0  0  0
 76200  1  0  0  0  0
 77201  1  0  0  0  0
 84202  1  0  0  0  0
 85203  1  0  0  0  0
 88204  1  0  0  0  0
 88205  1  0  0  0  0
 88206  1  0  0  0  0
 89207  1  0  0  0  0
 90208  1  0  0  0  0
 92209  1  0  0  0  0
 93210  1  0  0  0  0
 96211  1  0  0  0  0
 96212  1  0  0  0  0
 96213  1  0  0  0  0
 97214  1  0  0  0  0
 98215  1  0  0  0  0
105216  1  0  0  0  0
106217  1  0  0  0  0
108218  1  0  0  0  0
108219  1  0  0  0  0
108220  1  0  0  0  0
109221  1  0  0  0  0
110222  1  0  0  0  0
112223  1  0  0  0  0
113224  1  0  0  0  0
115225  1  0  0  0  0
115226  1  0  0  0  0
115227  1  0  0  0  0
116228  1  0  0  0  0
117229  1  0  0  0  0
124230  1  0  0  0  0
125231  1  0  0  0  0
127232  1  0  0  0  0
127233  1  0  0  0  0
127234  1  0  0  0  0
128235  1  0  0  0  0
129236  1  0  0  0  0
131237  1  0  0  0  0
132238  1  0  0  0  0
134239  1  0  0  0  0
134240  1  0  0  0  0
134241  1  0  0  0  0
135242  1  0  0  0  0
136243  1  0  0  0  0
139244  1  0  0  0  0
145245  1  0  0  0  0
146246  1  0  0  0  0
148247  1  0  0  0  0
149248  1  0  0  0  0
150249  1  0  0  0  0
151250  1  0  0  0  0
M  END
