244

C          1.22160       -5.21850       -8.20450
C          0.57990       -6.41090       -8.51120
C          0.01870       -7.28480       -7.48790
O         -0.00150       -7.10630       -6.28430
C         -0.41040       -8.50680       -8.21290
C         -1.10280       -9.59010       -7.71100
Cl        -1.46580       -9.71670       -6.04580
C         -1.54300      -10.57330       -8.60610
Cl        -2.39460      -11.94060       -8.02850
C         -1.32650      -10.40960       -9.97050
Cl        -1.94620      -11.57960      -11.05870
C         -0.63310       -9.29720      -10.47600
Cl        -0.55080       -9.12210      -12.17980
C         -0.11540       -8.36580       -9.58480
C          0.58750       -7.09470       -9.77170
C          1.13180       -6.57040      -10.92470
C          1.44060       -5.20080      -11.06340
N          1.62710       -4.09090      -11.29760
C          1.54770       -7.26420      -12.07600
N          2.04040       -7.72760      -13.00510
C          0.93910       -4.40170       -7.11870
C         -0.21010       -4.28700       -6.29310
N         -1.42530       -4.87910       -6.47290
C         -1.90510       -5.30070       -7.71860
C         -1.64230       -4.57710       -8.88110
C         -2.08600       -5.04140      -10.10170
C         -2.80610       -6.22890      -10.20440
C         -3.25850       -6.73090      -11.53870
C         -3.10490       -6.91910       -9.03680
C         -2.66390       -6.46740       -7.80810
C         -2.25620       -5.07310       -5.34470
C         -1.73930       -5.63700       -4.18140
C         -2.55000       -5.80130       -3.07750
C         -3.88990       -5.42840       -3.10870
C         -4.74720       -5.60340       -1.89300
C         -4.40230       -4.90260       -4.28760
C         -3.59800       -4.71600       -5.39600
C          0.03210       -3.37340       -5.24790
S         -0.91810       -2.80490       -3.91570
C          0.38900       -1.76340       -3.39300
C          1.52050       -1.88960       -4.19870
N          2.75010       -1.27300       -3.94490
C          3.27690       -0.45910       -4.96010
C          4.61300       -0.53010       -5.33840
C          5.09330        0.29450       -6.33820
C          4.26200        1.19640       -6.98840
C          4.77890        2.10320       -8.06210
C          2.92250        1.24440       -6.61770
C          2.43170        0.43110       -5.61860
C          3.51170       -1.69600       -2.85310
C          3.27290       -2.92620       -2.24490
C          3.98180       -3.29880       -1.11900
C          4.95000       -2.47010       -0.56950
C          5.69830       -2.86000        0.66910
C          5.19230       -1.24780       -1.18850
C          4.48670       -0.85950       -2.30660
C          1.28600       -2.76930       -5.26920
S          2.22030       -3.27500       -6.62430
C          0.24730       -0.95930       -2.24070
C         -0.84190       -0.89430       -1.37280
N         -2.08810       -1.46650       -1.60550
C         -2.86490       -1.06290       -2.69170
C         -4.00350       -1.79060       -3.03290
C         -4.76790       -1.43990       -4.12660
C         -4.40330       -0.35890       -4.91650
S         -5.28160        0.16490       -6.35630
C         -6.65660       -1.01330       -6.48370
C         -3.27250        0.37950       -4.57510
C         -2.51740        0.03980       -3.47590
C         -2.69680       -2.11770       -0.50880
C         -3.84620       -1.60940        0.08470
C         -4.41900       -2.24680        1.16800
C         -3.85550       -3.41770        1.65960
S         -4.48750       -4.31750        3.03660
C         -5.97770       -3.40140        3.51330
C         -2.71030       -3.93640        1.05350
C         -2.12500       -3.28480       -0.00990
C         -0.54130       -0.10090       -0.24700
S         -1.35740        0.25690        1.22790
C         -0.02450        1.29680        1.74260
C          0.99090        1.36460        0.79230
N          2.15570        2.10760        0.84730
C          2.72680        2.52240       -0.36980
C          1.93110        3.08080       -1.37120
C          2.48130        3.41960       -2.58670
C          3.83970        3.22240       -2.82800
S          4.42720        3.67260       -4.42780
C          6.12650        3.03880       -4.46340
C          4.64270        2.70920       -1.81720
C          4.08840        2.35970       -0.60130
C          2.83540        2.36690        2.04200
C          3.45290        3.59930        2.24390
C          4.06730        3.89100        3.44610
C          4.07180        2.95350        4.46980
S          4.77060        3.21720        6.07020
C          5.45810        4.89280        5.99760
C          3.49310        1.70360        4.25340
C          2.89060        1.40810        3.05210
C          0.68990        0.53240       -0.31260
S          1.55530        0.09800       -1.74160
C         -0.17070        1.95140        2.99530
C         -0.85500        1.45670        4.10290
N         -1.35080        0.15660        4.18630
C         -0.45050       -0.90280        3.98330
C          0.85590       -0.80390        4.45040
C          1.77030       -1.80500        4.18260
C          1.40720       -2.92840        3.45160
C          2.41300       -3.98340        3.10570
C          0.08740       -3.03870        3.02760
C         -0.83510       -2.04650        3.28830
C         -2.64170       -0.05500        4.67000
C         -3.63230        0.89930        4.44400
C         -4.90800        0.70840        4.93320
C         -5.23940       -0.43560        5.65030
C         -6.62330       -0.61930        6.19710
C         -4.24870       -1.38690        5.86210
C         -2.96630       -1.20520        5.38490
C         -0.88620        2.39270        5.15530
S         -1.44020        2.32870        6.79030
C         -0.73200        3.92200        7.10030
C         -0.04940        4.42670        5.95870
N          0.70180        5.57190        5.91440
C          0.78500        6.25740        4.68780
C          2.00700        6.70510        4.19490
C          2.07040        7.34580        2.97580
C          0.92470        7.56240        2.21670
C          1.01790        8.24870        0.88940
C         -0.29330        7.13120        2.72530
C         -0.36950        6.48860        3.94530
C          1.58030        5.92480        6.95680
C          2.21880        4.94200        7.70890
C          3.09540        5.30160        8.71260
C          3.36820        6.63770        8.98320
C          4.30730        7.02910       10.08190
C          2.73770        7.61000        8.21530
C          1.84930        7.26650        7.21560
C         -0.20650        3.57100        4.86320
S          0.43080        3.57890        3.25180
C         -0.87040        4.65480        8.27100
C         -1.47260        4.33130        9.47250
C         -2.05630        3.03920        9.82140
O         -2.19590        2.05670        9.11470
C         -2.44700        3.14290       11.24580
C         -3.03260        2.18560       12.04810
C         -3.29910        2.52730       13.36490
F         -3.86760        1.62860       14.18150
C         -2.98210        3.79560       13.84690
F         -3.24910        4.09910       15.12410
C         -2.39520        4.75860       13.03770
C         -2.12480        4.42460       11.72100
C         -1.53760        5.19640       10.62250
C         -1.15160        6.51380       10.70670
C         -0.69820        7.30830        9.63720
N         -0.35070        8.04000        8.82070
C         -1.18930        7.27300       11.89300
N         -1.17570        7.94190       12.82670
H          2.04720       -4.90010       -8.82940
H         -1.08540       -3.65390       -8.82760
H         -1.86110       -4.47530      -10.99360
H         -3.53170       -7.78170      -11.48630
H         -4.12810       -6.16690      -11.87680
H         -2.47400       -6.60630      -12.28200
H         -3.67420       -7.83570       -9.08870
H         -2.88860       -7.02380       -6.91070
H         -0.71130       -5.96350       -4.17050
H         -2.14340       -6.23530       -2.17600
H         -4.78800       -6.65320       -1.60590
H         -5.76120       -5.25530       -2.07430
H         -4.33030       -5.04840       -1.05240
H         -5.44670       -4.63100       -4.33930
H         -4.00220       -4.29270       -6.30410
H          5.26970       -1.23770       -4.85370
H          6.13410        0.22600       -6.62280
H          5.84340        1.95200       -8.22380
H          4.60820        3.14410       -7.78880
H          4.25710        1.91600       -8.99950
H          2.26030        1.93830       -7.11410
H          1.39130        0.48340       -5.33110
H          2.52970       -3.59400       -2.65540
H          3.77930       -4.25880       -0.66510
H          6.75420       -2.61390        0.57560
H          5.60320       -3.92580        0.86250
H          5.30520       -2.31890        1.53090
H          5.93890       -0.58370       -0.77670
H          4.65980        0.10850       -2.75110
H         -4.28380       -2.64680       -2.44050
H         -5.64200       -2.02650       -4.35590
H         -7.29270       -0.93940       -5.60640
H         -6.27260       -2.02130       -6.61130
H         -7.21320       -0.71680       -7.36730
H         -2.99690        1.22830       -5.18220
H         -1.65180        0.63280       -3.22220
H         -4.28660       -0.70200       -0.30070
H         -5.29420       -1.81520        1.62490
H         -6.68270       -3.38490        2.68720
H         -6.40210       -3.95300        4.34650
H         -5.70830       -2.39900        3.83420
H         -2.29310       -4.85580        1.43520
H         -1.23280       -3.67630       -0.47480
H          0.87790        3.23630       -1.18920
H          1.86670        3.83950       -3.36790
H          6.12170        1.97150       -4.26340
H          6.74590        3.57840       -3.75270
H          6.48290        3.21980       -5.47230
H          5.70070        2.56520       -1.96700
H          4.71210        1.94160        0.17480
H          3.42740        4.34160        1.46040
H          4.52450        4.85830        3.57400
H          5.93680        5.05220        6.95860
H          6.19370        4.96020        5.20160
H          4.66050        5.61860        5.86870
H          3.53000        0.96820        5.04280
H          2.44860        0.43750        2.88660
H          1.14680        0.06200        5.02690
H          2.78260       -1.71130        4.55030
H          3.24710       -3.97040        3.80320
H          1.95810       -4.97130        3.11740
H          2.80500       -3.80470        2.10320
H         -0.22100       -3.91200        2.47310
H         -1.85280       -2.14200        2.94390
H         -3.39530        1.78880        3.87850
H         -5.66370        1.46000        4.75330
H         -6.79740       -1.65440        6.48140
H         -7.37410       -0.32250        5.46640
H         -6.75760        0.00260        7.08240
H         -4.47920       -2.28240        6.42140
H         -2.20890       -1.94950        5.57720
H          2.90400        6.54160        4.77230
H          3.02650        7.68050        2.59960
H          1.66840        7.68860        0.21850
H          1.44090        9.24560        1.00610
H          0.03850        8.33910        0.42750
H         -1.19860        7.30270        2.16160
H         -1.32440        6.16480        4.33260
H          2.03530        3.89900        7.49880
H          3.58610        4.52680        9.28330
H          3.74450        7.41480       10.93210
H          4.89240        6.17670       10.41830
H          4.98360        7.81460        9.75000
H          2.93280        8.65330        8.41190
H          1.35690        8.03160        6.63670
H         -0.42390        5.64000        8.22390
H         -3.27650        1.20580       11.66970
H         -2.17110        5.72430       13.45970
