244

C         -6.21410       -4.18480       -4.89880
C         -5.84080       -5.09660       -5.84490
C         -6.39630       -4.95160       -7.20860
O         -7.24720       -4.17210       -7.56770
C         -5.65310       -5.93200       -8.03430
C         -5.71160       -6.11360       -9.40460
Cl        -6.77870       -5.20470      -10.37690
C         -4.86670       -7.07010       -9.98460
Cl        -4.91310       -7.34080      -11.67220
C         -3.97920       -7.78700       -9.18670
Cl        -2.92250       -8.91460       -9.92030
C         -3.93070       -7.60300       -7.79440
Cl        -2.75220       -8.47500       -6.91420
C         -4.79450       -6.68820       -7.20740
C         -5.04040       -6.29760       -5.81600
C         -4.90510       -7.06660       -4.68830
C         -5.47880       -6.66830       -3.45970
N         -5.98430       -6.41530       -2.46070
C         -4.42990       -8.38890       -4.58370
N         -4.13710       -9.47950       -4.37570
C         -5.62270       -3.75840       -3.69120
C         -4.28360       -3.55890       -3.34820
N         -3.14960       -3.84220       -4.11330
C         -2.55420       -5.11110       -4.06180
C         -2.75320       -5.95440       -2.97220
C         -2.14290       -7.19440       -2.93430
C         -1.29990       -7.61070       -3.95600
C         -0.68130       -8.97290       -3.92350
C         -1.08280       -6.74660       -5.02490
C         -1.71370       -5.52120       -5.09320
C         -2.33460       -2.71080       -4.34590
C         -2.93910       -1.53870       -4.79840
C         -2.18910       -0.39630       -4.98450
C         -0.82000       -0.38730       -4.73710
C         -0.02480        0.86440       -4.94390
C         -0.22660       -1.56290       -4.29620
C         -0.96650       -2.71300       -4.09500
C         -4.18420       -2.78490       -2.17370
S         -2.82560       -2.21450       -1.28380
C         -3.90690       -1.48180       -0.10050
C         -5.23930       -1.73070       -0.35540
N         -6.28350       -1.38770        0.48230
C         -6.12680       -1.50980        1.87170
C         -6.80700       -0.66370        2.74320
C         -6.63170       -0.77490        4.10880
C         -5.77760       -1.72670        4.64950
C         -5.58510       -1.85280        6.12980
C         -5.11860       -2.58400        3.77630
C         -5.29150       -2.48680        2.41090
C         -7.51140       -1.03100       -0.09590
C         -8.72020       -1.39870        0.48710
C         -9.91440       -1.02470       -0.09930
C         -9.94030       -0.29730       -1.28300
C        -11.23060        0.11450       -1.92100
C         -8.72810        0.04530       -1.87050
C         -7.52910       -0.30730       -1.28680
C         -5.38640       -2.44590       -1.57570
S         -6.71350       -3.02320       -2.51200
C         -3.22240       -0.75420        0.93820
C         -2.95890        0.59700        0.97460
N         -3.36300        1.53480        0.01780
C         -2.27080        2.12360       -0.64940
C         -2.16420        3.50200       -0.82600
C         -0.99070        4.04910       -1.30120
C          0.10000        3.23660       -1.60090
S          1.61470        4.01420       -2.08900
C          2.85260        2.79500       -1.55560
C         -0.03010        1.85730       -1.50240
C         -1.20730        1.30900       -1.03880
C         -4.67670        1.93460       -0.17690
C         -5.60910        1.83440        0.85150
C         -6.91300        2.24960        0.66160
C         -7.31240        2.76290       -0.56290
S         -8.95470        3.30870       -0.91580
C         -9.91580        2.75410        0.51950
C         -6.38180        2.86710       -1.59450
C         -5.08140        2.45680       -1.40810
C         -1.88330        0.88670        1.85820
S         -0.99030        2.32640        2.21600
C          0.36620        1.35790        2.79000
C          0.05980        0.00440        2.83390
N          0.96600       -1.02680        3.06030
C          1.78210       -1.06020        4.18480
C          2.99540       -1.75200        4.16670
C          3.81010       -1.75070        5.27490
C          3.44350       -1.05660        6.42680
S          4.57960       -1.12220        7.77840
C          3.78580       -0.12260        9.06900
C          2.23980       -0.36610        6.44840
C          1.41670       -0.37180        5.33950
C          0.99000       -2.00510        2.04890
C          0.99450       -3.36520        2.33200
C          0.88650       -4.29460        1.31290
C          0.75990       -3.87720       -0.00520
S          0.56920       -4.95850       -1.38830
C          0.55460       -6.61620       -0.65780
C          0.78620       -2.51390       -0.29580
C          0.91210       -1.59270        0.71610
C         -1.24700       -0.23810        2.35070
S         -2.13430       -1.67290        1.97650
C          1.65980        1.93610        2.79890
C          1.96870        3.29400        2.83360
N          1.09160        4.27730        3.24730
C          1.11980        5.51660        2.58250
C          1.05520        6.71550        3.28590
C          1.10500        7.91490        2.60490
C          1.23010        7.95450        1.21970
C          1.31110        9.26680        0.50280
C          1.29430        6.75230        0.52800
C          1.23420        5.54660        1.19730
C          0.27660        4.07580        4.36780
C         -0.97020        4.69210        4.44880
C         -1.77680        4.48940        5.55090
C         -1.37540        3.66610        6.59520
C         -2.26130        3.42450        7.77910
C         -0.13030        3.05400        6.50600
C          0.69020        3.25410        5.41480
C          3.29280        3.52060        2.40310
S          4.25070        4.93610        2.18320
C          5.59690        3.95580        1.56920
C          5.32770        2.56720        1.67270
N          6.21220        1.54760        1.50600
C          5.73360        0.23620        1.26740
C          6.17030       -0.81260        2.06980
C          5.71730       -2.09400        1.82920
C          4.82550       -2.35890        0.79400
C          4.35860       -3.75900        0.54120
C          4.40330       -1.30340       -0.00370
C          4.85320       -0.01610        0.22180
C          7.60330        1.70550        1.59990
C          8.43120        1.02550        0.70980
C          9.80180        1.19850        0.76390
C         10.38190        2.03850        1.70450
C         11.85970        2.26580        1.74150
C          9.54860        2.67490        2.62290
C          8.18020        2.51570        2.57680
C          3.99810        2.36190        2.09500
S          3.04460        0.94130        2.37080
C          6.70020        4.63960        1.07380
C          7.61420        4.13620        0.16060
C          7.27960        3.11360       -0.83200
O          6.21140        2.54830       -0.99280
C          8.47680        2.99870       -1.70000
C          8.67770        2.17230       -2.78380
C          9.90610        2.22620       -3.43430
Cl        10.22670        1.20500       -4.78390
C         10.88230        3.11250       -2.98350
F         12.06310        3.16080       -3.61700
C         10.68290        3.95320       -1.89720
C          9.46340        3.89030       -1.24760
C          8.94790        4.59940       -0.07710
C          9.67300        5.43360        0.74070
C         11.02110        5.76960        0.52520
N         12.12660        6.06020        0.40760
C          9.17530        5.98280        1.93820
N          8.84250        6.43590        2.94000
H         -7.09140       -3.60720       -5.18400
H         -3.36840       -5.62820       -2.14700
H         -2.32370       -7.84720       -2.09250
H         -0.35820       -9.23620       -2.91770
H          0.16880       -9.03500       -4.59890
H         -1.42350       -9.71040       -4.23250
H         -0.41380       -7.04130       -5.82010
H         -1.55000       -4.86550       -5.93560
H         -4.00070       -1.53180       -5.00020
H         -2.67170        0.50590       -5.33150
H          1.03550        0.68480       -4.78540
H         -0.35430        1.64100       -4.25370
H         -0.16450        1.24060       -5.95620
H          0.83530       -1.58270       -4.09530
H         -0.48730       -3.60550       -3.72200
H         -7.47690        0.08100        2.34430
H         -7.16630       -0.10270        4.76500
H         -4.52840       -1.95150        6.37190
H         -5.98660       -0.98700        6.65050
H         -6.09560       -2.74200        6.50050
H         -4.46120       -3.34490        4.17140
H         -4.78190       -3.18010        1.75830
H         -8.72210       -1.97940        1.39750
H        -10.84420       -1.31180        0.37110
H        -12.06850       -0.03940       -1.24560
H        -11.40560       -0.47010       -2.82380
H        -11.19310        1.16420       -2.20730
H         -8.72400        0.61250       -2.78910
H         -6.59750       -0.00380       -1.74060
H         -2.98760        4.14240       -0.54870
H         -0.89430        5.11860       -1.40460
H          2.92110        1.98510       -2.27630
H          3.80550        3.31340       -1.50450
H          2.58100        2.42060       -0.57240
H          0.77990        1.20140       -1.77930
H         -1.29510        0.23490       -0.95970
H         -5.30210        1.43920        1.80910
H         -7.60670        2.18480        1.48410
H         -9.61760        3.30440        1.40740
H         -9.78930        1.68280        0.64910
H        -10.95110        2.97820        0.28240
H         -6.69620        3.26680       -2.54640
H         -4.36790        2.52990       -2.21530
H          3.30220       -2.26380        3.26830
H          4.75130       -2.27840        5.25880
H          4.46680       -0.14440        9.91420
H          2.83520       -0.56600        9.35110
H          3.66060        0.89970        8.72400
H          1.92540        0.17910        7.32360
H          0.48110        0.16750        5.36760
H          1.05910       -3.69790        3.35730
H          0.87940       -5.34250        1.56650
H         -0.29160       -6.71550        0.01540
H          0.44210       -7.29630       -1.49590
H          1.49440       -6.80740       -0.14780
H          0.69420       -2.19450       -1.32290
H          0.93380       -0.53780        0.48640
H          0.97190        6.70070        4.36260
H          1.05700        8.84080        3.15970
H          1.15120        9.13700       -0.56450
H          0.57070        9.96480        0.88910
H          2.29570        9.71140        0.64910
H          1.38970        6.75100       -0.54800
H          1.26590        4.61820        0.64870
H         -1.30220        5.32390        3.63890
H         -2.74080        4.97520        5.59510
H         -3.01110        4.20650        7.86880
H         -1.67850        3.38850        8.69730
H         -2.77750        2.46940        7.67270
H          0.20630        2.41710        7.31190
H          1.65910        2.77730        5.37420
H          6.85980       -0.61610        2.87750
H          6.06000       -2.90480        2.45570
H          5.19840       -4.38690        0.24470
H          3.61030       -3.78320       -0.24620
H          3.92620       -4.18790        1.44440
H          3.71990       -1.49470       -0.81770
H          4.55900        0.79980       -0.41950
H          7.99220        0.37410       -0.03080
H         10.42710        0.67960        0.05220
H         12.25490        2.04580        2.73180
H         12.36890        1.64090        1.01290
H         12.08860        3.30860        1.52150
H          9.98160        3.31080        3.38110
H          7.55430        3.02140        3.29650
H          6.80810        5.66710        1.39930
H          7.90580        1.49580       -3.11420
H         11.47500        4.62170       -1.60180
