
  xtb     02112215363D
 energy: -347.840234711772 gnorm: 0.000830847835 xtb: 6.4.1 (unknown)
191208  0     0  0            999 V2000
    3.1221   -0.3660    7.1318 C   0  0  0  0  0  0  0  0  0  0  0  0
    4.4148   -0.5276    7.5943 C   0  0  0  0  0  0  0  0  0  0  0  0
    5.5911   -0.4365    6.7306 C   0  0  0  0  0  0  0  0  0  0  0  0
    5.6172   -0.2075    5.5374 O   0  0  0  0  0  0  0  0  0  0  0  0
    6.7591   -0.4989    7.6456 C   0  0  0  0  0  0  0  0  0  0  0  0
    8.1023   -0.4426    7.3318 C   0  0  0  0  0  0  0  0  0  0  0  0
    8.6328   -0.4579    5.7067 Cl  0  0  0  0  0  0  0  0  0  0  0  0
    9.0291   -0.3896    8.3818 C   0  0  0  0  0  0  0  0  0  0  0  0
   10.7059   -0.3645    8.0423 Cl  0  0  0  0  0  0  0  0  0  0  0  0
    8.5827   -0.3198    9.6987 C   0  0  0  0  0  0  0  0  0  0  0  0
    9.7257   -0.1530   10.9626 Cl  0  0  0  0  0  0  0  0  0  0  0  0
    7.2136   -0.3755   10.0100 C   0  0  0  0  0  0  0  0  0  0  0  0
    6.7397   -0.1244   11.6397 Cl  0  0  0  0  0  0  0  0  0  0  0  0
    6.3016   -0.5392    8.9773 C   0  0  0  0  0  0  0  0  0  0  0  0
    4.8471   -0.7005    8.9523 C   0  0  0  0  0  0  0  0  0  0  0  0
    4.0439   -1.2029    9.9483 C   0  0  0  0  0  0  0  0  0  0  0  0
    2.6597   -1.4175    9.7751 C   0  0  0  0  0  0  0  0  0  0  0  0
    1.5338   -1.6336    9.7079 N   0  0  0  0  0  0  0  0  0  0  0  0
    4.4592   -1.7716   11.1660 C   0  0  0  0  0  0  0  0  0  0  0  0
    4.6852   -2.3604   12.1266 N   0  0  0  0  0  0  0  0  0  0  0  0
    2.6722   -0.5866    5.8309 C   0  0  0  0  0  0  0  0  0  0  0  0
    3.1623   -1.3997    4.7797 C   0  0  0  0  0  0  0  0  0  0  0  0
    4.1973   -2.2879    4.8555 N   0  0  0  0  0  0  0  0  0  0  0  0
    5.0021   -2.5220    3.7199 C   0  0  0  0  0  0  0  0  0  0  0  0
    5.5388   -3.7861    3.4932 C   0  0  0  0  0  0  0  0  0  0  0  0
    6.4121   -3.9877    2.4441 C   0  0  0  0  0  0  0  0  0  0  0  0
    6.7365   -2.9559    1.5698 C   0  0  0  0  0  0  0  0  0  0  0  0
    7.7019   -3.1887    0.4505 C   0  0  0  0  0  0  0  0  0  0  0  0
    6.1659   -1.7084    1.7844 C   0  0  0  0  0  0  0  0  0  0  0  0
    5.3212   -1.4829    2.8527 C   0  0  0  0  0  0  0  0  0  0  0  0
    4.5335   -2.9313    6.0552 C   0  0  0  0  0  0  0  0  0  0  0  0
    3.5401   -3.3879    6.9221 C   0  0  0  0  0  0  0  0  0  0  0  0
    3.8808   -4.0274    8.0948 C   0  0  0  0  0  0  0  0  0  0  0  0
    5.2141   -4.2305    8.4484 C   0  0  0  0  0  0  0  0  0  0  0  0
    5.5642   -4.9274    9.7241 C   0  0  0  0  0  0  0  0  0  0  0  0
    6.1968   -3.7789    7.5783 C   0  0  0  0  0  0  0  0  0  0  0  0
    5.8696   -3.1403    6.3964 C   0  0  0  0  0  0  0  0  0  0  0  0
    2.3809   -1.2215    3.6151 C   0  0  0  0  0  0  0  0  0  0  0  0
    2.3898   -1.9272    2.0256 S   0  0  0  0  0  0  0  0  0  0  0  0
    1.0317   -0.9214    1.5455 C   0  0  0  0  0  0  0  0  0  0  0  0
    0.5555   -0.1432    2.5974 C   0  0  0  0  0  0  0  0  0  0  0  0
   -0.5263    0.7269    2.5382 N   0  0  0  0  0  0  0  0  0  0  0  0
   -1.7204    0.3417    1.9203 C   0  0  0  0  0  0  0  0  0  0  0  0
   -2.4714    1.2602    1.1864 C   0  0  0  0  0  0  0  0  0  0  0  0
   -3.6165    0.8565    0.5318 C   0  0  0  0  0  0  0  0  0  0  0  0
   -4.0572   -0.4605    0.5953 C   0  0  0  0  0  0  0  0  0  0  0  0
   -5.2690   -0.9058   -0.1660 C   0  0  0  0  0  0  0  0  0  0  0  0
   -3.3243   -1.3608    1.3601 C   0  0  0  0  0  0  0  0  0  0  0  0
   -2.1655   -0.9744    2.0062 C   0  0  0  0  0  0  0  0  0  0  0  0
   -0.3561    2.0247    3.0460 C   0  0  0  0  0  0  0  0  0  0  0  0
   -1.4091    2.6910    3.6642 C   0  0  0  0  0  0  0  0  0  0  0  0
   -1.2285    3.9694    4.1543 C   0  0  0  0  0  0  0  0  0  0  0  0
    0.0021    4.6067    4.0663 C   0  0  0  0  0  0  0  0  0  0  0  0
    0.1994    5.9982    4.5808 C   0  0  0  0  0  0  0  0  0  0  0  0
    1.0535    3.9252    3.4648 C   0  0  0  0  0  0  0  0  0  0  0  0
    0.8805    2.6581    2.9482 C   0  0  0  0  0  0  0  0  0  0  0  0
    1.3250   -0.3321    3.7626 C   0  0  0  0  0  0  0  0  0  0  0  0
    1.2043    0.2866    5.3630 S   0  0  0  0  0  0  0  0  0  0  0  0
    0.5443   -0.7900    0.2074 C   0  0  0  0  0  0  0  0  0  0  0  0
    0.1973   -1.7048   -0.7734 C   0  0  0  0  0  0  0  0  0  0  0  0
    0.3094   -3.0839   -0.6947 N   0  0  0  0  0  0  0  0  0  0  0  0
    1.5196   -3.7133   -0.3859 C   0  0  0  0  0  0  0  0  0  0  0  0
    2.7463   -3.1543   -0.7443 C   0  0  0  0  0  0  0  0  0  0  0  0
    3.9132   -3.8591   -0.5401 C   0  0  0  0  0  0  0  0  0  0  0  0
    3.8787   -5.1316    0.0220 C   0  0  0  0  0  0  0  0  0  0  0  0
    5.3961   -6.0290    0.0949 S   0  0  0  0  0  0  0  0  0  0  0  0
    5.0720   -7.3111    1.3402 C   0  0  0  0  0  0  0  0  0  0  0  0
    2.6647   -5.6684    0.4309 C   0  0  0  0  0  0  0  0  0  0  0  0
    1.4981   -4.9613    0.2330 C   0  0  0  0  0  0  0  0  0  0  0  0
   -0.7292   -3.8408   -1.2676 C   0  0  0  0  0  0  0  0  0  0  0  0
   -2.0499   -3.4548   -1.0533 C   0  0  0  0  0  0  0  0  0  0  0  0
   -3.0900   -4.1234   -1.6650 C   0  0  0  0  0  0  0  0  0  0  0  0
   -2.8251   -5.1951   -2.5068 C   0  0  0  0  0  0  0  0  0  0  0  0
   -4.0888   -6.0756   -3.3684 S   0  0  0  0  0  0  0  0  0  0  0  0
   -5.4092   -4.8335   -3.5040 C   0  0  0  0  0  0  0  0  0  0  0  0
   -1.5091   -5.6123   -2.6897 C   0  0  0  0  0  0  0  0  0  0  0  0
   -0.4700   -4.9428   -2.0821 C   0  0  0  0  0  0  0  0  0  0  0  0
   -0.4257   -1.0516   -1.8730 C   0  0  0  0  0  0  0  0  0  0  0  0
   -1.1810   -1.6136   -3.3198 S   0  0  0  0  0  0  0  0  0  0  0  0
   -1.6629    0.0253   -3.7248 C   0  0  0  0  0  0  0  0  0  0  0  0
   -1.2959    0.9521   -2.7554 C   0  0  0  0  0  0  0  0  0  0  0  0
   -1.7482    2.2485   -2.6772 N   0  0  0  0  0  0  0  0  0  0  0  0
   -1.0723    3.1877   -1.8862 C   0  0  0  0  0  0  0  0  0  0  0  0
    0.3154    3.2831   -1.9221 C   0  0  0  0  0  0  0  0  0  0  0  0
    0.9792    4.1776   -1.1038 C   0  0  0  0  0  0  0  0  0  0  0  0
    0.2625    4.9924   -0.2387 C   0  0  0  0  0  0  0  0  0  0  0  0
    0.9958    6.1650    0.8520 S   0  0  0  0  0  0  0  0  0  0  0  0
    2.7738    5.8211    0.7284 C   0  0  0  0  0  0  0  0  0  0  0  0
   -1.1301    4.9224   -0.2256 C   0  0  0  0  0  0  0  0  0  0  0  0
   -1.7918    4.0345   -1.0421 C   0  0  0  0  0  0  0  0  0  0  0  0
   -2.9780    2.6039   -3.2647 C   0  0  0  0  0  0  0  0  0  0  0  0
   -3.0779    3.7689   -4.0236 C   0  0  0  0  0  0  0  0  0  0  0  0
   -4.2323    4.0369   -4.7248 C   0  0  0  0  0  0  0  0  0  0  0  0
   -5.3140    3.1574   -4.6743 C   0  0  0  0  0  0  0  0  0  0  0  0
   -6.6733    3.5171   -5.7369 S   0  0  0  0  0  0  0  0  0  0  0  0
   -7.8181    2.1334   -5.4764 C   0  0  0  0  0  0  0  0  0  0  0  0
   -5.2523    2.0517   -3.8343 C   0  0  0  0  0  0  0  0  0  0  0  0
   -4.0921    1.7798   -3.1370 C   0  0  0  0  0  0  0  0  0  0  0  0
   -0.5412    0.3198   -1.7357 C   0  0  0  0  0  0  0  0  0  0  0  0
    0.2131    0.8712   -0.2918 S   0  0  0  0  0  0  0  0  0  0  0  0
   -2.4250    0.2814   -4.9235 C   0  0  0  0  0  0  0  0  0  0  0  0
   -2.1469    1.3905   -5.7358 C   0  0  0  0  0  0  0  0  0  0  0  0
   -1.0754    2.1456   -5.4513 F   0  0  0  0  0  0  0  0  0  0  0  0
   -2.9431    1.7315   -6.8122 C   0  0  0  0  0  0  0  0  0  0  0  0
   -2.6824    2.8612   -7.4763 F   0  0  0  0  0  0  0  0  0  0  0  0
   -4.0612    0.9659   -7.1594 C   0  0  0  0  0  0  0  0  0  0  0  0
   -4.3258   -0.1542   -6.3671 C   0  0  0  0  0  0  0  0  0  0  0  0
   -5.4077   -0.9007   -6.6449 F   0  0  0  0  0  0  0  0  0  0  0  0
   -3.5227   -0.5021   -5.2984 C   0  0  0  0  0  0  0  0  0  0  0  0
   -3.8661   -1.5651   -4.5496 F   0  0  0  0  0  0  0  0  0  0  0  0
   -4.9585    1.3377   -8.2387 C   0  0  0  0  0  0  0  0  0  0  0  0
   -4.5526    1.7122   -9.4661 C   0  0  0  0  0  0  0  0  0  0  0  0
   -3.1460    1.5684   -9.9851 C   0  0  0  0  0  0  0  0  0  0  0  0
   -2.2126    1.0522   -9.4140 O   0  0  0  0  0  0  0  0  0  0  0  0
   -3.2022    2.0818  -11.3507 C   0  0  0  0  0  0  0  0  0  0  0  0
   -4.5031    2.4462  -11.6585 C   0  0  0  0  0  0  0  0  0  0  0  0
   -4.6929    3.0431  -13.2609 S   0  0  0  0  0  0  0  0  0  0  0  0
   -2.9786    2.8014  -13.5504 C   0  0  0  0  0  0  0  0  0  0  0  0
   -2.3051    3.0774  -14.7293 C   0  0  0  0  0  0  0  0  0  0  0  0
   -0.9494    2.8200  -14.7835 C   0  0  0  0  0  0  0  0  0  0  0  0
   -0.2689    2.2966  -13.6822 C   0  0  0  0  0  0  0  0  0  0  0  0
   -0.9292    2.0209  -12.5070 C   0  0  0  0  0  0  0  0  0  0  0  0
   -2.3012    2.2713  -12.4276 C   0  0  0  0  0  0  0  0  0  0  0  0
   -5.3894    2.2213  -10.5524 C   0  0  0  0  0  0  0  0  0  0  0  0
   -6.7369    2.4655  -10.5518 C   0  0  0  0  0  0  0  0  0  0  0  0
   -7.6119    2.2347   -9.4738 C   0  0  0  0  0  0  0  0  0  0  0  0
   -8.3803    2.0639   -8.6383 N   0  0  0  0  0  0  0  0  0  0  0  0
   -7.3864    2.9744  -11.6979 C   0  0  0  0  0  0  0  0  0  0  0  0
   -7.9302    3.3852  -12.6204 N   0  0  0  0  0  0  0  0  0  0  0  0
    2.3826    0.0327    7.8157 H   0  0  0  0  0  0  0  0  0  0  0  0
    5.2880   -4.6005    4.1582 H   0  0  0  0  0  0  0  0  0  0  0  0
    6.8571   -4.9603    2.3006 H   0  0  0  0  0  0  0  0  0  0  0  0
    7.6898   -2.3611   -0.2543 H   0  0  0  0  0  0  0  0  0  0  0  0
    8.7133   -3.2871    0.8447 H   0  0  0  0  0  0  0  0  0  0  0  0
    7.4599   -4.1103   -0.0757 H   0  0  0  0  0  0  0  0  0  0  0  0
    6.4098   -0.8890    1.1239 H   0  0  0  0  0  0  0  0  0  0  0  0
    4.9449   -0.4921    3.0506 H   0  0  0  0  0  0  0  0  0  0  0  0
    2.4999   -3.2483    6.6685 H   0  0  0  0  0  0  0  0  0  0  0  0
    3.0988   -4.3807    8.7506 H   0  0  0  0  0  0  0  0  0  0  0  0
    6.6322   -5.1201    9.7811 H   0  0  0  0  0  0  0  0  0  0  0  0
    5.2777   -4.3208   10.5829 H   0  0  0  0  0  0  0  0  0  0  0  0
    5.0304   -5.8733    9.7991 H   0  0  0  0  0  0  0  0  0  0  0  0
    7.2384   -3.9244    7.8255 H   0  0  0  0  0  0  0  0  0  0  0  0
    6.6485   -2.8083    5.7273 H   0  0  0  0  0  0  0  0  0  0  0  0
   -2.1368    2.2844    1.1143 H   0  0  0  0  0  0  0  0  0  0  0  0
   -4.1770    1.5800   -0.0432 H   0  0  0  0  0  0  0  0  0  0  0  0
   -5.9736   -0.0863   -0.2895 H   0  0  0  0  0  0  0  0  0  0  0  0
   -4.9781   -1.2543   -1.1592 H   0  0  0  0  0  0  0  0  0  0  0  0
   -5.7685   -1.7263    0.3444 H   0  0  0  0  0  0  0  0  0  0  0  0
   -3.6702   -2.3801    1.4608 H   0  0  0  0  0  0  0  0  0  0  0  0
   -1.6022   -1.6921    2.5848 H   0  0  0  0  0  0  0  0  0  0  0  0
   -2.3667    2.2012    3.7603 H   0  0  0  0  0  0  0  0  0  0  0  0
   -2.0586    4.4752    4.6258 H   0  0  0  0  0  0  0  0  0  0  0  0
    1.1060    6.0619    5.1796 H   0  0  0  0  0  0  0  0  0  0  0  0
    0.3018    6.6891    3.7436 H   0  0  0  0  0  0  0  0  0  0  0  0
   -0.6454    6.3138    5.1873 H   0  0  0  0  0  0  0  0  0  0  0  0
    2.0210    4.4009    3.3979 H   0  0  0  0  0  0  0  0  0  0  0  0
    1.7017    2.1513    2.4611 H   0  0  0  0  0  0  0  0  0  0  0  0
    2.7757   -2.1802   -1.2091 H   0  0  0  0  0  0  0  0  0  0  0  0
    4.8605   -3.4400   -0.8395 H   0  0  0  0  0  0  0  0  0  0  0  0
    4.6522   -6.8496    2.2289 H   0  0  0  0  0  0  0  0  0  0  0  0
    6.0367   -7.7534    1.5687 H   0  0  0  0  0  0  0  0  0  0  0  0
    4.4100   -8.0727    0.9385 H   0  0  0  0  0  0  0  0  0  0  0  0
    2.6129   -6.6439    0.8867 H   0  0  0  0  0  0  0  0  0  0  0  0
    0.5524   -5.3879    0.5323 H   0  0  0  0  0  0  0  0  0  0  0  0
   -2.2562   -2.6116   -0.4113 H   0  0  0  0  0  0  0  0  0  0  0  0
   -4.1018   -3.8011   -1.4808 H   0  0  0  0  0  0  0  0  0  0  0  0
   -4.9765   -3.8860   -3.8095 H   0  0  0  0  0  0  0  0  0  0  0  0
   -5.9427   -4.7409   -2.5622 H   0  0  0  0  0  0  0  0  0  0  0  0
   -6.0843   -5.2001   -4.2707 H   0  0  0  0  0  0  0  0  0  0  0  0
   -1.3099   -6.4524   -3.3368 H   0  0  0  0  0  0  0  0  0  0  0  0
    0.5484   -5.2533   -2.2596 H   0  0  0  0  0  0  0  0  0  0  0  0
    0.8742    2.6634   -2.6072 H   0  0  0  0  0  0  0  0  0  0  0  0
    2.0542    4.2303   -1.1581 H   0  0  0  0  0  0  0  0  0  0  0  0
    3.1383    6.0786   -0.2618 H   0  0  0  0  0  0  0  0  0  0  0  0
    3.2483    6.4580    1.4686 H   0  0  0  0  0  0  0  0  0  0  0  0
    2.9598    4.7768    0.9605 H   0  0  0  0  0  0  0  0  0  0  0  0
   -1.6810    5.5665    0.4425 H   0  0  0  0  0  0  0  0  0  0  0  0
   -2.8701    3.9798   -1.0252 H   0  0  0  0  0  0  0  0  0  0  0  0
   -2.2302    4.4333   -4.0907 H   0  0  0  0  0  0  0  0  0  0  0  0
   -4.3002    4.9152   -5.3474 H   0  0  0  0  0  0  0  0  0  0  0  0
   -8.5962    2.2632   -6.2223 H   0  0  0  0  0  0  0  0  0  0  0  0
   -7.3098    1.1885   -5.6440 H   0  0  0  0  0  0  0  0  0  0  0  0
   -8.2417    2.1832   -4.4776 H   0  0  0  0  0  0  0  0  0  0  0  0
   -6.0962    1.3906   -3.7212 H   0  0  0  0  0  0  0  0  0  0  0  0
   -4.0391    0.9068   -2.5034 H   0  0  0  0  0  0  0  0  0  0  0  0
   -6.0146    1.2893   -8.0067 H   0  0  0  0  0  0  0  0  0  0  0  0
   -2.8320    3.4818  -15.5792 H   0  0  0  0  0  0  0  0  0  0  0  0
   -0.4069    3.0270  -15.6933 H   0  0  0  0  0  0  0  0  0  0  0  0
    0.7909    2.1071  -13.7588 H   0  0  0  0  0  0  0  0  0  0  0  0
   -0.4193    1.6168  -11.6468 H   0  0  0  0  0  0  0  0  0  0  0  0
  1  2  2  0  0  0  0
  2  3  1  0  0  0  0
  3  4  2  0  0  0  0
  3  5  1  0  0  0  0
  5  6  2  0  0  0  0
  6  7  1  0  0  0  0
  6  8  1  0  0  0  0
  8  9  1  0  0  0  0
  8 10  2  0  0  0  0
 10 11  1  0  0  0  0
 10 12  1  0  0  0  0
 12 13  1  0  0  0  0
 12 14  2  0  0  0  0
 14 15  1  0  0  0  0
 15 16  2  0  0  0  0
 16 17  1  0  0  0  0
 17 18  3  0  0  0  0
 16 19  1  0  0  0  0
 19 20  3  0  0  0  0
  1 21  1  0  0  0  0
 21 22  2  0  0  0  0
 22 23  1  0  0  0  0
 23 24  1  0  0  0  0
 24 25  2  0  0  0  0
 25 26  1  0  0  0  0
 26 27  2  0  0  0  0
 27 28  1  0  0  0  0
 27 29  1  0  0  0  0
 29 30  2  0  0  0  0
 23 31  1  0  0  0  0
 31 32  2  0  0  0  0
 32 33  1  0  0  0  0
 33 34  2  0  0  0  0
 34 35  1  0  0  0  0
 34 36  1  0  0  0  0
 36 37  2  0  0  0  0
 22 38  1  0  0  0  0
 38 39  1  0  0  0  0
 39 40  1  0  0  0  0
 40 41  2  0  0  0  0
 41 42  1  0  0  0  0
 42 43  1  0  0  0  0
 43 44  2  0  0  0  0
 44 45  1  0  0  0  0
 45 46  2  0  0  0  0
 46 47  1  0  0  0  0
 46 48  1  0  0  0  0
 48 49  2  0  0  0  0
 42 50  1  0  0  0  0
 50 51  2  0  0  0  0
 51 52  1  0  0  0  0
 52 53  2  0  0  0  0
 53 54  1  0  0  0  0
 53 55  1  0  0  0  0
 55 56  2  0  0  0  0
 41 57  1  0  0  0  0
 57 58  1  0  0  0  0
 40 59  1  0  0  0  0
 59 60  2  0  0  0  0
 60 61  1  0  0  0  0
 61 62  1  0  0  0  0
 62 63  2  0  0  0  0
 63 64  1  0  0  0  0
 64 65  2  0  0  0  0
 65 66  1  0  0  0  0
 66 67  1  0  0  0  0
 65 68  1  0  0  0  0
 68 69  2  0  0  0  0
 61 70  1  0  0  0  0
 70 71  2  0  0  0  0
 71 72  1  0  0  0  0
 72 73  2  0  0  0  0
 73 74  1  0  0  0  0
 74 75  1  0  0  0  0
 73 76  1  0  0  0  0
 76 77  2  0  0  0  0
 60 78  1  0  0  0  0
 78 79  1  0  0  0  0
 79 80  1  0  0  0  0
 80 81  2  0  0  0  0
 81 82  1  0  0  0  0
 82 83  1  0  0  0  0
 83 84  2  0  0  0  0
 84 85  1  0  0  0  0
 85 86  2  0  0  0  0
 86 87  1  0  0  0  0
 87 88  1  0  0  0  0
 86 89  1  0  0  0  0
 89 90  2  0  0  0  0
 82 91  1  0  0  0  0
 91 92  2  0  0  0  0
 92 93  1  0  0  0  0
 93 94  2  0  0  0  0
 94 95  1  0  0  0  0
 95 96  1  0  0  0  0
 94 97  1  0  0  0  0
 97 98  2  0  0  0  0
 81 99  1  0  0  0  0
 99100  1  0  0  0  0
 80101  1  0  0  0  0
101102  2  0  0  0  0
102103  1  0  0  0  0
102104  1  0  0  0  0
104105  1  0  0  0  0
104106  2  0  0  0  0
106107  1  0  0  0  0
107108  1  0  0  0  0
107109  2  0  0  0  0
109110  1  0  0  0  0
106111  1  0  0  0  0
111112  2  0  0  0  0
112113  1  0  0  0  0
113114  2  0  0  0  0
113115  1  0  0  0  0
115116  2  0  0  0  0
116117  1  0  0  0  0
117118  1  0  0  0  0
118119  2  0  0  0  0
119120  1  0  0  0  0
120121  2  0  0  0  0
121122  1  0  0  0  0
122123  2  0  0  0  0
116124  1  0  0  0  0
124125  2  0  0  0  0
125126  1  0  0  0  0
126127  3  0  0  0  0
125128  1  0  0  0  0
128129  3  0  0  0  0
 15  2  1  0  0  0  0
 58 21  1  0  0  0  0
100 59  1  0  0  0  0
109101  1  0  0  0  0
124112  1  0  0  0  0
 14  5  1  0  0  0  0
 30 24  1  0  0  0  0
 37 31  1  0  0  0  0
 57 38  2  0  0  0  0
 69 62  1  0  0  0  0
 77 70  1  0  0  0  0
 99 78  2  0  0  0  0
123115  1  0  0  0  0
 49 43  1  0  0  0  0
 56 50  1  0  0  0  0
 90 83  1  0  0  0  0
 98 91  1  0  0  0  0
123118  1  0  0  0  0
  1130  1  0  0  0  0
 25131  1  0  0  0  0
 26132  1  0  0  0  0
 28133  1  0  0  0  0
 28134  1  0  0  0  0
 28135  1  0  0  0  0
 29136  1  0  0  0  0
 30137  1  0  0  0  0
 32138  1  0  0  0  0
 33139  1  0  0  0  0
 35140  1  0  0  0  0
 35141  1  0  0  0  0
 35142  1  0  0  0  0
 36143  1  0  0  0  0
 37144  1  0  0  0  0
 44145  1  0  0  0  0
 45146  1  0  0  0  0
 47147  1  0  0  0  0
 47148  1  0  0  0  0
 47149  1  0  0  0  0
 48150  1  0  0  0  0
 49151  1  0  0  0  0
 51152  1  0  0  0  0
 52153  1  0  0  0  0
 54154  1  0  0  0  0
 54155  1  0  0  0  0
 54156  1  0  0  0  0
 55157  1  0  0  0  0
 56158  1  0  0  0  0
 63159  1  0  0  0  0
 64160  1  0  0  0  0
 67161  1  0  0  0  0
 67162  1  0  0  0  0
 67163  1  0  0  0  0
 68164  1  0  0  0  0
 69165  1  0  0  0  0
 71166  1  0  0  0  0
 72167  1  0  0  0  0
 75168  1  0  0  0  0
 75169  1  0  0  0  0
 75170  1  0  0  0  0
 76171  1  0  0  0  0
 77172  1  0  0  0  0
 84173  1  0  0  0  0
 85174  1  0  0  0  0
 88175  1  0  0  0  0
 88176  1  0  0  0  0
 88177  1  0  0  0  0
 89178  1  0  0  0  0
 90179  1  0  0  0  0
 92180  1  0  0  0  0
 93181  1  0  0  0  0
 96182  1  0  0  0  0
 96183  1  0  0  0  0
 96184  1  0  0  0  0
 97185  1  0  0  0  0
 98186  1  0  0  0  0
111187  1  0  0  0  0
119188  1  0  0  0  0
120189  1  0  0  0  0
121190  1  0  0  0  0
122191  1  0  0  0  0
M  END
