189

C          8.65500       -5.50540        0.51020
C          9.76590       -4.82310        0.06590
C         10.93510       -5.59620       -0.37570
O         11.12670       -6.78400       -0.24830
C         11.79660       -4.61170       -1.07870
C         12.92990       -4.85980       -1.82960
Cl        13.56590       -6.43670       -1.98420
C         13.54110       -3.78500       -2.48810
Cl        14.93380       -4.04700       -3.44620
C         12.99480       -2.51000       -2.38310
Cl        13.72390       -1.21900       -3.23990
C         11.84650       -2.26400       -1.61320
Cl        11.20810       -0.67320       -1.62670
C         11.24540       -3.32100       -0.94380
C         10.04690       -3.42200       -0.10280
C          9.43270       -2.44880        0.65260
C          8.49280       -2.77460        1.65230
N          7.74580       -2.96530        2.50460
C          9.67010       -1.06280        0.72980
N          9.73110        0.06640        0.93350
C          7.31110       -5.13430        0.55600
C          6.58760       -4.08160       -0.04840
N          7.02540       -3.22800       -1.02540
C          7.96820       -3.56330       -2.00760
C          8.65040       -2.53800       -2.66390
C          9.58940       -2.83040       -3.63180
C          9.89750       -4.14490       -3.96080
C         10.94840       -4.46470       -4.97580
C          9.18280       -5.16040       -3.33520
C          8.22260       -4.88130       -2.38390
C          6.26220       -2.04720       -1.24980
C          5.64110       -1.84640       -2.47750
C          4.86960       -0.72010       -2.68360
C          4.70490        0.22830       -1.68100
C          3.82920        1.42380       -1.88970
C          5.35090        0.02810       -0.46650
C          6.12140       -1.09690       -0.24460
C          5.26410       -4.05700        0.44230
S          3.89510       -3.04800        0.14200
C          2.89770       -4.00420        1.23140
C          3.59030       -5.09920        1.75260
N          3.10480       -6.09270        2.57580
C          3.97340       -6.61730        3.55320
C          4.05020       -7.98750        3.77850
C          4.91490       -8.48280        4.73540
C          5.72570       -7.63500        5.47900
C          6.67940       -8.16810        6.50300
C          5.64150       -6.26630        5.24600
C          4.77470       -5.75740        4.30150
C          1.83560       -6.65390        2.38700
C          1.25970       -6.70880        1.12110
C         -0.02870       -7.18380        0.96440
C         -0.77030       -7.62230        2.05240
C         -2.19060       -8.06650        1.90210
C         -0.17160       -7.60440        3.30840
C          1.11040       -7.12780        3.48130
C          4.93920       -5.08610        1.31420
S          6.27420       -6.14150        1.57630
C          1.57460       -3.52110        1.42590
S          1.11880       -2.08750        0.50590
C         -0.45930       -2.10110        1.19650
C         -1.52180       -1.21710        0.99170
C         -2.74150       -1.49190        1.60940
O         -2.93010       -2.56210        2.40490
C         -1.90620       -3.43090        2.71510
O         -2.14850       -4.34530        3.46200
C         -0.62640       -3.16940        2.07960
C          0.54040       -3.94200        2.22690
C         -3.73650       -0.54840        1.32530
C         -3.27550        0.48760        0.53800
S         -1.59810        0.24940        0.08460
C         -3.91940        1.65590        0.05830
C         -5.15780        2.22780        0.36310
N         -6.05050        1.82190        1.32910
C         -5.64580        1.36040        2.58730
C         -6.46010        0.47000        3.28800
C         -6.05230       -0.03270        4.50600
C         -4.82900        0.32860        5.06120
C         -4.37210       -0.27150        6.35380
C         -4.03720        1.23620        4.37010
C         -4.43490        1.75200        3.15190
C         -7.41620        2.10480        1.10360
C         -8.00130        1.75100       -0.10800
C         -9.31580        2.08710       -0.36500
C        -10.07470        2.77220        0.57500
C        -11.47600        3.19790        0.26800
C         -9.49020        3.08920        1.79580
C         -8.17670        2.76330        2.06390
C         -5.40220        3.36360       -0.45290
S         -6.71380        4.48530       -0.54790
C         -5.84190        5.41720       -1.77140
C         -4.53610        4.89920       -2.00170
N         -3.57140        5.47470       -2.77490
C         -3.41350        6.87010       -2.89630
C         -2.94800        7.40620       -4.09350
C         -2.77230        8.77030       -4.21580
C         -3.06230        9.62970       -3.16280
C         -2.90680       11.10940       -3.32620
C         -3.50960        9.08100       -1.96580
C         -3.67580        7.71830       -1.82340
C         -2.55140        4.65020       -3.29930
C         -1.21250        4.97680       -3.11020
C         -0.22560        4.13920       -3.58870
C         -0.54390        2.96740       -4.26640
C          0.53320        2.03850       -4.73290
C         -1.88430        2.66660       -4.47590
C         -2.88210        3.49500       -4.00130
C         -4.34750        3.70260       -1.28960
S         -3.02770        2.59300       -1.13880
C         -6.39100        6.45120       -2.51790
C         -7.62410        7.06910       -2.42920
C         -8.64160        6.83190       -1.40880
O         -8.63940        6.00560       -0.51280
C         -9.70940        7.82560       -1.66230
C        -10.88550        8.01680       -0.96870
C        -11.74490        9.02300       -1.39520
Cl       -13.22990        9.31430       -0.57490
C        -11.39360        9.79920       -2.49990
F        -12.22570       10.76710       -2.90620
C        -10.21180        9.61060       -3.20180
C         -9.35670        8.60850       -2.77420
C         -8.06910        8.13890       -3.28770
C         -7.43940        8.63650       -4.40430
C         -7.90250        9.74490       -5.14100
N         -8.21160       10.65320       -5.77230
C         -6.27660        8.10930       -4.99690
N         -5.35740        7.72310       -5.57040
H          8.85830       -6.52900        0.81250
H          8.44470       -1.51050       -2.40330
H         10.10390       -2.02180       -4.12870
H         11.61080       -3.61680       -5.12950
H         11.53810       -5.32200       -4.65880
H         10.48530       -4.71380       -5.93080
H          9.37880       -6.18940       -3.59740
H          7.66110       -5.68930       -1.94170
H          5.75770       -2.58240       -3.25960
H          4.38010       -0.58180       -3.63640
H          3.69620        1.62960       -2.94880
H          2.84760        1.24060       -1.45120
H          4.25200        2.30170       -1.40700
H          5.24730        0.75940        0.32060
H          6.60420       -1.24550        0.70910
H          3.43510       -8.65900        3.19810
H          4.96610       -9.54960        4.89770
H          6.52860       -7.67210        7.46060
H          6.54910       -9.23850        6.63880
H          7.70660       -7.98130        6.19120
H          6.26180       -5.58970        5.81470
H          4.71580       -4.69150        4.13630
H          1.82050       -6.37040        0.26220
H         -0.46490       -7.20550       -0.02400
H         -2.44520       -8.22370        0.85690
H         -2.36980       -8.98760        2.45340
H         -2.85010       -7.29960        2.30890
H         -0.73080       -7.94500        4.16670
H          1.55060       -7.09180        4.46680
H          0.58300       -4.76270        2.91360
H         -4.74160       -0.64870        1.68120
H         -7.40520        0.16720        2.86160
H         -6.68820       -0.73100        5.03000
H         -5.20700       -0.39920        7.03920
H         -3.61600        0.34990        6.82750
H         -3.93770       -1.25470        6.16910
H         -3.09110        1.54670        4.78970
H         -3.80810        2.46500        2.63750
H         -7.41450        1.22520       -0.84770
H         -9.75590        1.81900       -1.31440
H        -12.09420        3.18430        1.16280
H        -11.92570        2.55540       -0.48520
H        -11.46330        4.21720       -0.11930
H        -10.06690        3.61760        2.54030
H         -7.72570        3.03300        3.00740
H         -2.73640        6.75240       -4.92480
H         -2.42130        9.17550       -5.15250
H         -3.70140       11.49840       -3.96320
H         -2.95770       11.61690       -2.36620
H         -1.95670       11.34600       -3.80110
H         -3.72200        9.72840       -1.12730
H         -4.01220        7.30720       -0.88290
H         -0.95450        5.87870       -2.57530
H          0.81100        4.39360       -3.42300
H          0.20960        1.47280       -5.60320
H          0.77440        1.32990       -3.93960
H          1.43810        2.58740       -4.98260
H         -2.15190        1.77020       -5.01550
H         -3.92140        3.25450       -4.16990
H         -5.74050        6.82380       -3.29860
H        -11.12950        7.40220       -0.11690
H        -10.00200       10.24560       -4.04690
