171

C         -4.02760       -4.49090       -0.11460
C         -5.14750       -4.83610       -0.84700
C         -5.70460       -4.06420       -1.95100
O         -5.20920       -3.11170       -2.52380
C         -7.02500       -4.67020       -2.24020
C         -7.92580       -4.33460       -3.23330
Cl        -7.66330       -2.99650       -4.25910
C         -9.06850       -5.13260       -3.38930
Cl       -10.22950       -4.73820       -4.58110
C         -9.23750       -6.26710       -2.59940
Cl       -10.59710       -7.27230       -2.86360
C         -8.30950       -6.61020       -1.60190
Cl        -8.52250       -8.10390       -0.78580
C         -7.22800       -5.76680       -1.37630
C         -6.09710       -5.84570       -0.45450
C         -5.99020       -6.65600        0.65880
C         -4.77410       -6.96670        1.29420
N         -3.82150       -7.34070        1.82000
C         -7.06350       -7.16900        1.40920
N         -7.85190       -7.48130        2.18520
C         -3.11370       -3.46000       -0.28230
C         -2.11030       -3.15530        0.68160
N         -2.01710       -3.68200        1.93970
C         -3.14540       -4.03680        2.70480
C         -3.09990       -5.14460        3.54650
C         -4.22300       -5.51570        4.26130
C         -5.41550       -4.81350        4.14470
C         -6.65160       -5.27410        4.84860
C         -5.43690       -3.68330        3.33100
C         -4.31790       -3.28600        2.62990
C         -0.73710       -3.83770        2.50840
C         -0.49800       -3.48790        3.83260
C          0.75200       -3.68990        4.38560
C          1.78670       -4.23840        3.63840
C          3.13800       -4.49180        4.23440
C          1.54160       -4.56810        2.30920
C          0.29770       -4.37590        1.74640
C         -1.21620       -2.20020        0.17740
S          0.14000       -1.34500        0.83770
C          0.27170       -0.38320       -0.62810
C         -0.67420       -0.72830       -1.57430
N         -0.85500       -0.07870       -2.81100
C         -1.80670        0.97040       -2.77920
C         -2.93590        0.94800       -3.59510
C         -3.84670        1.98280       -3.55240
C         -3.67620        3.06070       -2.68950
C         -4.66850        4.18270       -2.67060
C         -2.56830        3.05960       -1.85500
C         -1.64530        2.02990       -1.89230
C         -0.67980       -0.82000       -3.98830
C         -0.68310       -0.15540       -5.21480
C         -0.49400       -0.85060       -6.39130
C         -0.28090       -2.22310       -6.39090
C         -0.09520       -2.98490       -7.66740
C         -0.24130       -2.87340       -5.16550
C         -0.42890       -2.18940       -3.98100
C         -1.52480       -1.75330       -1.10290
S         -2.97060       -2.45800       -1.73060
C          1.20060        0.70160       -0.61590
C          1.93490        1.30060       -1.62980
N          2.08930        0.88100       -2.93770
C          2.36400       -0.43150       -3.31450
C          2.40980       -0.76090       -4.67260
C          2.69160       -2.04480       -5.07310
C          2.91530       -3.04960       -4.13450
S          3.21170       -4.66940       -4.77170
C          3.29950       -5.71190       -3.28750
C          2.88820       -2.72880       -2.78660
C          2.62790       -1.43230       -2.38350
C          2.25370        1.94230       -3.86300
C          3.43760        2.11290       -4.57350
C          3.61350        3.22030       -5.37890
C          2.60920        4.17570       -5.47700
S          2.77120        5.64910       -6.43080
C          4.57120        5.88440       -6.50020
C          1.40730        3.98360       -4.79970
C          1.23100        2.87850       -3.99640
C          2.59860        2.45790       -1.13870
S          3.60780        3.64640       -1.87190
C          3.81260        4.47730       -0.32190
C          3.06710        3.86830        0.69820
N          2.91620        4.28930        1.99670
C          2.78410        5.63260        2.35980
C          2.26220        6.58070        1.47640
C          2.18730        7.90350        1.84870
C          2.61260        8.30960        3.11340
S          2.54840       10.03130        3.46230
C          3.50000       10.18530        4.99870
C          3.06620        7.35730        4.01940
C          3.16210        6.03680        3.63980
C          2.68790        3.29480        2.97130
C          3.53240        2.19200        3.04440
C          3.29770        1.18500        3.96010
C          2.21320        1.27260        4.82320
S          1.79660        0.04670        6.01530
C          3.17570       -1.12990        5.92510
C          1.37630        2.38740        4.76330
C          1.60820        3.38830        3.84850
C          2.41780        2.70670        0.20980
S          1.40680        1.50940        0.93910
C          4.72540        5.55280       -0.28920
C          5.36540        6.11480       -1.39550
F          5.12060        5.73430       -2.66050
C          6.26830        7.11950       -1.08350
F          6.96350        7.79800       -2.00220
C          6.37670        7.38740        0.27830
S          5.31430        6.31620        1.16180
C          7.19960        8.37900        0.83620
C          7.26650        8.76620        2.14650
C          6.47680        8.25250        3.18740
N          5.85090        7.89720        4.08370
C          8.15870        9.78350        2.54700
N          8.88190       10.60910        2.87980
H         -3.83830       -5.10340        0.75680
H         -2.19380       -5.72500        3.62060
H         -4.17720       -6.38740        4.89600
H         -6.40290       -5.80630        5.76320
H         -7.30130       -4.43580        5.08800
H         -7.20710       -5.95840        4.20400
H         -6.34500       -3.10380        3.24970
H         -4.35080       -2.40370        2.00750
H         -1.29400       -3.06270        4.42490
H          0.91920       -3.41760        5.41720
H          3.14220       -4.28360        5.30100
H          3.89220       -3.86940        3.75260
H          3.42670       -5.53080        4.08340
H          2.33420       -4.99910        1.71480
H          0.11130       -4.66030        0.72090
H         -3.10160        0.10890       -4.25350
H         -4.71660        1.94700       -4.19180
H         -5.68390        3.79420       -2.61610
H         -4.49790        4.84050       -1.82210
H         -4.58720        4.77180       -3.58420
H         -2.41830        3.87530       -1.16180
H         -0.79980        2.04970       -1.22200
H         -0.83110        0.91420       -5.24020
H         -0.50530       -0.31140       -7.32810
H          0.22160       -2.32490       -8.47160
H         -1.03360       -3.45450       -7.96440
H          0.64610       -3.77150       -7.54080
H         -0.05780       -3.93760       -5.13580
H         -0.36420       -2.73060       -3.05020
H          2.21000       -0.00690       -5.41620
H          2.72960       -2.28740       -6.12330
H          4.16090       -5.43560       -2.68610
H          3.41590       -6.72860       -3.64970
H          2.37690       -5.62520       -2.72100
H          3.07780       -3.47330       -2.02970
H          2.64930       -1.20770       -1.32880
H          4.22860        1.38400       -4.47740
H          4.54250        3.33800       -5.91240
H          4.98400        5.75240       -5.50480
H          5.01910        5.19630       -7.21140
H          4.72290        6.90550       -6.83560
H          0.62360        4.71870       -4.89780
H          0.30900        2.74110       -3.45110
H          1.92540        6.27690        0.49650
H          1.80280        8.64120        1.16120
H          3.67730       11.24810        5.13120
H          2.92420        9.80090        5.83560
H          4.44360        9.65660        4.89070
H          3.36640        7.63280        5.01490
H          3.55150        5.31010        4.33540
H          4.37620        2.12330        2.37310
H          3.96590        0.34010        3.98600
H          2.99040       -1.85750        6.70920
H          3.17900       -1.62010        4.95650
H          4.11270       -0.61620        6.11860
H          0.53640        2.44840        5.43780
H          0.95160        4.24350        3.79700
H          7.84230        8.89450        0.13160
