241

C          3.95990        0.71900       -8.58810
C          5.29350        0.68290       -8.96620
C          6.33160       -0.12540       -8.34510
O          6.24730       -0.83850       -7.36060
C          7.54700        0.07050       -9.16860
C          8.82290       -0.40640       -8.93920
Cl         9.16070       -1.44790       -7.62940
C          9.84870        0.00250       -9.80250
Cl        11.43860       -0.58930       -9.58320
C          9.57930        0.92210      -10.81260
Cl        10.86260        1.47020      -11.80440
C          8.28350        1.42350      -11.02260
Cl         8.08650        2.67560      -12.17940
C          7.24470        0.94220      -10.23470
C          5.82260        1.27650      -10.16610
C          5.09120        1.95580      -11.12190
C          5.38760        2.01130      -12.49620
N          5.44880        1.97090      -13.64320
C          3.86040        2.58840      -10.87670
N          2.90370        3.21360      -10.73930
C          3.31100        0.14070       -7.51030
C          1.90750        0.28010       -7.27560
N          1.00000        0.73680       -8.18600
C         -0.15550        1.41020       -7.73950
C         -0.06160        2.39240       -6.75770
C         -1.18540        3.09820       -6.37680
C         -2.41860        2.85430       -6.96860
C         -3.61070        3.69110       -6.63060
C         -2.50720        1.84880       -7.92460
C         -1.39400        1.12900       -8.30750
C          1.14300        0.50770       -9.56940
C          0.72540        1.46960      -10.48540
C          0.89850        1.25500      -11.83960
C          1.50450        0.09890      -12.31360
C          1.77410       -0.08050      -13.77410
C          1.88120       -0.87320      -11.39120
C          1.69270       -0.68450      -10.03800
C          1.57780       -0.13720       -5.97760
S          0.11050       -0.17190       -5.03610
C          0.98880       -0.88760       -3.69120
C          2.31410       -1.17970       -4.00630
N          3.20150       -1.84790       -3.18070
C          2.85020       -3.04740       -2.55500
C          3.50290       -3.43490       -1.38530
C          3.14740       -4.60150       -0.74020
C          2.12960       -5.41090       -1.22880
C          1.73820       -6.67840       -0.53270
C          1.48290       -5.01900       -2.39580
C          1.83600       -3.86070       -3.05660
C          4.54720       -1.42960       -3.21410
C          5.58010       -2.34120       -3.40040
C          6.88520       -1.89690       -3.47900
C          7.19050       -0.54570       -3.37880
C          8.60120       -0.06140       -3.50780
C          6.15160        0.35560       -3.17830
C          4.84400       -0.07570       -3.09340
C          2.64900       -0.69670       -5.28710
S          4.12320       -0.69270       -6.18040
C          0.40590       -0.92970       -2.40490
C         -0.90310       -0.62170       -2.06630
N         -1.93470       -0.54550       -3.02590
C         -2.58480       -1.81110       -3.15500
C         -3.74780       -2.08340       -2.43620
C         -4.34330       -3.32100       -2.53000
C         -3.78330       -4.31580       -3.33120
S         -4.64010       -5.85840       -3.37190
C         -3.65700       -6.88070       -4.50470
C         -2.61410       -4.05220       -4.02990
C         -2.02070       -2.80550       -3.93820
C         -2.71020        0.60920       -3.10420
C         -2.33160        1.79190       -2.46840
C         -3.12550        2.91380       -2.55230
C         -4.30580        2.89480       -3.28770
S         -5.27330        4.38000       -3.27140
C         -6.77280        3.93940       -4.19460
C         -4.64920        1.74650       -3.98560
C         -3.85730        0.61990       -3.89600
C         -1.05730       -0.49010       -0.67330
S         -2.36570       -0.08150        0.38380
C         -1.29560       -0.15850        1.78330
C         -0.01570       -0.57720        1.42940
N          1.00150       -0.89880        2.31440
C          0.71380       -1.59580        3.49490
C         -0.32110       -2.52860        3.54810
C         -0.65840       -3.12000        4.74560
C          0.00700       -2.77050        5.92010
S         -0.60170       -3.46300        7.42490
C          0.18890       -2.45040        8.70590
C          1.08840       -1.90240        5.85560
C          1.44270       -1.33120        4.65010
C          2.31920       -0.65420        1.91110
C          3.31520       -1.61200        2.08030
C          4.59070       -1.39100        1.59890
C          4.89050       -0.21050        0.93090
S          6.48310        0.16780        0.26430
C          7.27650       -1.45620        0.10690
C          3.90580        0.76480        0.79140
C          2.63700        0.55020        1.28100
C          0.11380       -0.71890        0.03510
S          1.43660       -1.10830       -0.99610
C         -1.63310        0.29700        3.09440
C         -2.75530        0.13080        3.89680
N         -3.93480       -0.49560        3.52830
C         -4.58360       -0.11590        2.34360
C         -4.55000        1.20640        1.90710
C         -5.20410        1.57300        0.74520
C         -5.90840        0.64050       -0.00150
C         -6.63520        1.03430       -1.24970
C         -5.93650       -0.67960        0.44130
C         -5.28640       -1.05960        1.59570
C         -4.60500       -1.28410        4.47790
C         -5.99520       -1.29360        4.56270
C         -6.62450       -2.08010        5.50620
C         -5.89870       -2.86620        6.39470
C         -6.59970       -3.69290        7.42850
C         -4.51310       -2.84330        6.31020
C         -3.87230       -2.06750        5.36510
C         -2.53340        0.66610        5.18980
S         -3.49450        0.73090        6.62020
C         -2.19330        1.57360        7.48170
C         -1.12080        1.90710        6.61690
N         -0.12020        2.78650        6.87400
C          1.03010        2.82010        6.04100
C          1.90960        1.74570        6.00960
C          3.04290        1.81530        5.22300
C          3.31340        2.93770        4.44750
C          4.54860        2.98960        3.60410
C          2.42850        4.00760        4.49840
C          1.29980        3.95990        5.29450
C         -0.17370        3.76330        7.88160
C         -1.33590        4.48990        8.13530
C         -1.35970        5.42470        9.14820
C         -0.23510        5.66720        9.93450
C         -0.29790        6.64230       11.06670
C          0.93110        4.97250        9.64350
C          0.97000        4.03510        8.62790
C         -1.31340        1.30670        5.35330
S         -0.38110        1.24660        3.90120
C         -2.36700        1.79660        8.84190
C         -1.35140        2.01580        9.75970
C          0.01550        1.49970        9.59780
O          0.45570        0.84270        8.66710
C          0.70410        1.83410       10.85460
C          1.94040        1.69110       11.38840
S          2.01540        2.40720       12.96120
C          0.35960        2.89740       12.89370
C         -0.20730        2.52360       11.71790
C         -1.48540        2.64710       11.04200
C         -2.55220        3.38020       11.50610
C         -3.73850        3.60420       10.78680
N         -4.71450        3.84420       10.22950
C         -2.49530        4.04400       12.74320
N         -2.44820        4.60740       13.74380
H          3.31430        1.30070       -9.23250
H          0.89890        2.61620       -6.31730
H         -1.10050        3.86600       -5.62230
H         -4.52740        3.11770       -6.74630
H         -3.54530        4.06850       -5.61410
H         -3.66160        4.54670       -7.30550
H         -3.46100        1.63130       -8.38280
H         -1.47350        0.35490       -9.05630
H          0.28610        2.38960      -10.13410
H          0.58590        2.01750      -12.53640
H          1.84850       -1.13400      -14.03290
H          0.99230        0.38000      -14.37330
H          2.71920        0.39980      -14.03270
H          2.32610       -1.79410      -11.73940
H          1.98620       -1.45190       -9.33680
H          4.27210       -2.79720       -0.97680
H          3.66170       -4.88030        0.16830
H          2.04180       -7.54280       -1.12370
H          0.65820       -6.72700       -0.40310
H          2.21090       -6.74820        0.44360
H          0.69060       -5.63550       -2.79590
H          1.32760       -3.58320       -3.96800
H          5.35330       -3.39280       -3.49820
H          7.67850       -2.61310       -3.63790
H          8.76860        0.31360       -4.51780
H          8.79680        0.75150       -2.81100
H          9.31060       -0.86570       -3.32650
H          6.37230        1.40850       -3.08310
H          4.04100        0.62920       -2.93300
H         -4.17310       -1.32050       -1.79970
H         -5.24370       -3.53910       -1.97630
H         -2.65810       -7.02640       -4.10400
H         -4.17370       -7.83390       -4.55890
H         -3.62670       -6.42210       -5.48870
H         -2.15340       -4.80310       -4.65120
H         -1.11430       -2.60310       -4.48560
H         -1.41610        1.83210       -1.89910
H         -2.84120        3.81890       -2.03730
H         -7.25050        3.07740       -3.73820
H         -6.52970        3.75130       -5.23620
H         -7.42390        4.80490       -4.12130
H         -5.53510        1.71010       -4.59910
H         -4.13540       -0.26850       -4.44290
H         -0.86520       -2.78130        2.65000
H         -1.44760       -3.85530        4.78630
H          0.07700       -1.39540        8.47060
H          1.23670       -2.72160        8.80460
H         -0.33570       -2.68260        9.62790
H          1.65090       -1.65340        6.74060
H          2.27170       -0.64490        4.59660
H          3.07980       -2.54100        2.57800
H          5.34160       -2.15260        1.73850
H          6.61870       -2.13030       -0.43320
H          8.17830       -1.28540       -0.47210
H          7.53620       -1.85030        1.08520
H          4.15070        1.68850        0.29000
H          1.87600        1.30900        1.17480
H         -4.01640        1.94620        2.48590
H         -5.16820        2.60200        0.41900
H         -7.68960        0.76990       -1.17580
H         -6.21770        0.51540       -2.11240
H         -6.55170        2.10500       -1.41570
H         -6.47880       -1.41890       -0.13120
H         -5.31290       -2.08650        1.92860
H         -6.57880       -0.67750        3.89510
H         -7.70360       -2.07510        5.56140
H         -6.93260       -3.05840        8.25040
H         -5.93590       -4.45280        7.83300
H         -7.47740       -4.17810        7.00600
H         -3.91970       -3.44050        6.98730
H         -2.79480       -2.06350        5.31050
H          1.69710        0.88620        6.62530
H          3.74520        0.99350        5.21480
H          4.64940        2.07900        3.01600
H          4.52520        3.84110        2.92960
H          5.43160        3.07760        4.23680
H          2.62570        4.89220        3.91070
H          0.62080        4.79910        5.33730
H         -2.22050        4.31850        7.54060
H         -2.27010        5.97400        9.33850
H          0.69880        6.90880       11.40850
H         -0.84170        6.20690       11.90620
H         -0.82470        7.54610       10.76760
H          1.82250        5.15800       10.22520
H          1.88190        3.49690        8.41620
H         -3.38640        1.75060        9.20590
H          2.81260        1.22850       10.97200
H         -0.06880        3.41600       13.72760
