223

C          6.44260        2.85900       -5.89940
C          7.81620        2.92960       -5.82680
C          8.60180        2.61930       -7.02770
O          8.19380        2.44740       -8.15450
C          9.99780        2.48510       -6.54040
C         11.10290        2.04970       -7.24660
Cl        10.99450        1.63380       -8.89880
C         12.32400        1.93510       -6.57020
Cl        13.71390        1.37800       -7.39720
C         12.39620        2.25550       -5.21860
Cl        13.88780        2.07060       -4.39820
C         11.27080        2.70340       -4.50830
Cl        11.46070        3.00770       -2.83210
C         10.05710        2.82240       -5.17190
C          8.71280        3.22160       -4.74070
C          8.32230        3.98560       -3.66260
C          9.02490        4.42290       -2.52400
N          9.41510        4.85660       -1.53380
C          7.04330        4.57770       -3.61610
N          6.03740        5.12660       -3.52570
C          5.48670        2.60580       -4.91420
C          5.56370        2.05190       -3.62090
N          6.67230        1.56620       -2.97350
C          7.71010        0.86720       -3.59960
C          7.53580        0.23110       -4.82780
C          8.58910       -0.43320       -5.42270
C          9.83470       -0.50830       -4.81010
C         10.96990       -1.22700       -5.46750
C          9.98570        0.08030       -3.55950
C          8.95010        0.77070       -2.96500
C          6.60910        1.53840       -1.55310
C          6.77610        0.34610       -0.85750
C          6.65700        0.32900        0.51880
C          6.37160        1.48840        1.23010
C          6.17670        1.46200        2.71260
C          6.23410        2.67920        0.52580
C          6.34910        2.71100       -0.84910
C          4.27950        1.99650       -3.03510
S          3.71210        1.36590       -1.53320
C          2.05720        1.71820       -1.99460
C          1.96330        2.40340       -3.20100
N          0.81140        3.02190       -3.63870
C         -0.13410        3.45890       -2.68530
C          0.26370        4.05870       -1.49320
C         -0.67750        4.42670       -0.55420
C         -2.03510        4.22480       -0.77700
C         -3.03930        4.56180        0.28080
C         -2.42530        3.68890       -1.99770
C         -1.49090        3.30580       -2.94300
C          0.66380        3.47430       -4.96100
C          0.12970        4.73700       -5.21160
C         -0.02790        5.17940       -6.50860
C          0.34300        4.38890       -7.59130
C          0.19630        4.89260       -8.99370
C          0.87170        3.13210       -7.33310
C          1.02900        2.67470       -6.03830
C          3.23980        2.48660       -3.81520
S          3.81960        3.00910       -5.35160
C          1.03010        1.32190       -1.07920
C         -0.11830        0.57050       -1.29450
N         -0.40080       -0.09290       -2.47430
C          0.65610       -0.48880       -3.31600
C          1.86040       -0.96420       -2.79500
C          2.93340       -1.19950       -3.62510
C          2.81710       -1.00000       -4.99820
S          4.28000       -1.19290       -5.96930
C          3.91340       -0.22260       -7.46260
C          1.58180       -0.66190       -5.53330
C          0.51390       -0.39430       -4.69570
C         -1.69030       -0.57530       -2.73730
C         -1.86790       -1.84760       -3.28350
C         -3.13600       -2.34950       -3.47330
C         -4.25090       -1.60150       -3.10590
S         -5.84370       -2.35310       -3.27150
C         -6.81070       -1.50410       -1.98860
C         -4.08300       -0.31140       -2.62860
C         -2.81150        0.19850       -2.45140
C         -0.88580        0.48540       -0.10370
S         -2.39220       -0.26030        0.31270
C         -2.24820        0.33000        1.95170
C         -1.00230        0.91890        2.21010
N         -0.49090        1.15570        3.46170
C         -0.93080        0.40910        4.57240
C         -1.19150       -0.95510        4.46790
C         -1.77790       -1.64080        5.51290
C         -2.10830       -0.97220        6.68710
S         -3.00140       -1.69350        8.02320
C         -3.56160       -3.29310        7.37480
C         -1.74290        0.36580        6.83300
C         -1.15770        1.04940        5.79080
C          0.58050        2.04680        3.62100
C          1.67880        1.69140        4.40420
C          2.76860        2.52770        4.47960
C          2.78610        3.73370        3.77830
S          4.27000        4.67870        3.87500
C          4.07660        5.91360        2.55830
C          1.66360        4.12200        3.05850
C          0.56840        3.28380        2.98360
C         -0.27450        1.05770        1.00510
S          1.25860        1.74390        0.60950
C         -3.32050        0.12910        2.86130
C         -4.13830       -1.03530        2.76660
N         -4.05570       -1.80060        1.67890
C         -4.71830       -2.93470        1.62510
C         -4.61370       -3.71140        0.38300
C         -3.37170       -3.91270       -0.22610
C         -3.24770       -4.69180       -1.35920
C         -4.34550       -5.32240       -1.97650
O         -4.04850       -6.06330       -3.04510
C         -5.04460       -6.71590       -3.82880
C         -5.74680       -5.75920       -4.78220
C         -5.58720       -5.10180       -1.37030
C         -5.70410       -4.31640       -0.23130
F         -6.94060       -4.12780        0.26470
F         -6.72260       -5.64090       -1.85580
F         -2.03480       -4.87830       -1.89820
F         -2.26890       -3.39470        0.31690
C         -5.46190       -3.37190        2.75790
C         -6.11840       -4.68610        2.82080
C         -7.43700       -4.79760        3.25490
F         -8.10900       -3.71010        3.62900
C         -8.11070       -6.01370        3.27240
F         -9.39230       -5.99780        3.68700
C         -7.48980       -7.20340        2.87450
O         -7.99730       -8.43680        2.80530
C         -9.27060       -8.77050        3.35270
C         -9.24510       -8.83230        4.87400
C         -6.14840       -7.08240        2.46360
F         -5.50040       -8.19330        2.08420
C         -5.48820       -5.87000        2.43760
F         -4.19690       -5.85030        2.06630
N         -5.60010       -2.59530        3.80810
C         -4.99290       -1.40420        3.83770
C         -5.18990       -0.54460        4.96050
C         -4.49580        0.66610        4.93250
C         -3.60260        0.99140        3.92030
F         -3.00300        2.19750        3.96240
F         -4.59550        1.52270        5.96040
C         -5.96910       -1.03020        6.04940
C         -6.59440       -0.40880        7.08410
C         -6.88890       -1.23010        8.30340
O         -6.76440       -2.42890        8.40640
C         -7.28780       -0.25310        9.32170
C         -7.60690       -0.25500       10.64100
S         -7.98430        1.33840       11.18090
C         -7.71930        2.01460        9.61550
C         -7.35060        1.05140        8.72940
C         -7.02800        0.95260        7.31880
C         -7.31010        1.91810        6.38720
C         -7.82080        3.17690        6.76200
N         -8.23710        4.20570        7.05410
C         -7.17380        1.73990        4.99960
N         -7.06600        1.61480        3.86300
H          6.04840        2.94080       -6.90860
H          6.56890        0.23240       -5.30470
H          8.43520       -0.90850       -6.37980
H         10.95400       -1.06810       -6.54330
H         11.92470       -0.88880       -5.07290
H         10.88850       -2.29920       -5.28700
H         10.93440        0.01000       -3.04890
H          9.09710        1.24610       -2.00640
H          6.98310       -0.56400       -1.40140
H          6.77500       -0.60590        1.04680
H          5.10970        1.43010        2.93720
H          6.64560        0.58690        3.15510
H          6.58410        2.35860        3.17380
H          6.03280        3.59350        1.06300
H          6.22420        3.64080       -1.38230
H          1.31280        4.23430       -1.30600
H         -0.35170        4.88610        0.36740
H         -4.03190        4.68320       -0.14510
H         -3.08540        3.76020        1.01990
H         -2.76440        5.47690        0.80120
H         -3.47740        3.56100       -2.21020
H         -1.80620        2.87960       -3.88430
H         -0.15600        5.37050       -4.38490
H         -0.43980        6.16250       -6.68490
H         -0.67230        5.54070       -9.08470
H          0.09790        4.06780       -9.69550
H          1.07740        5.47080       -9.27370
H          1.16100        2.49600       -8.15750
H          1.41410        1.68650       -5.85160
H          1.95850       -1.12710       -1.73260
H          3.87720       -1.52770       -3.21730
H          3.22660       -0.76360       -8.10700
H          4.86430       -0.09220       -7.97050
H          3.51080        0.74500       -7.17620
H          1.44520       -0.58570       -6.60080
H         -0.43320       -0.08700       -5.11400
H         -1.00970       -2.45390       -3.52940
H         -3.27050       -3.33520       -3.89010
H         -6.19900       -1.38960       -1.09840
H         -7.15710       -0.54100       -2.35170
H         -7.66380       -2.14230       -1.77920
H         -4.93360        0.30580       -2.38840
H         -2.68440        1.20470       -2.08720
H         -0.95720       -1.47980        3.55330
H         -1.97340       -2.69490        5.39900
H         -4.36440       -3.60740        8.03550
H         -3.94560       -3.16770        6.36760
H         -2.74800       -4.01280        7.40030
H         -1.96120        0.87080        7.76090
H         -0.92020        2.09720        5.89240
H          1.67880        0.74700        4.92760
H          3.63030        2.25060        5.06740
H          3.32350        6.64580        2.83490
H          3.82240        5.41550        1.62730
H          5.04240        6.40120        2.46760
H          1.63070        5.07300        2.55230
H         -0.30900        3.58260        2.43060
H         -5.76230       -7.23890       -3.19210
H         -4.47300       -7.45730       -4.39330
H         -5.01610       -5.25140       -5.40640
H         -6.31680       -5.00930       -4.24120
H         -6.42430       -6.32120       -5.41770
H         -9.46560       -9.76320        2.94000
H        -10.04290       -8.08400        2.99670
H         -8.45010       -9.49610        5.20520
H        -10.19620       -9.21470        5.23190
H         -9.08520       -7.84870        5.30740
H         -6.02140       -2.11430        6.09260
H         -7.64760       -1.07860       11.32520
H         -7.84370        3.06850        9.46690
