222

C         -7.67450       -3.14440        7.42060
C         -8.22120       -4.39690        7.62400
C         -7.64120       -5.67050        7.22230
O         -6.64890       -5.86970        6.54590
C         -8.48730       -6.71450        7.84980
C         -8.30810       -8.08460        7.84690
Cl        -7.08420       -8.81820        6.91370
C         -9.15840       -8.86810        8.63930
Cl        -9.00170      -10.57170        8.63710
C        -10.09870       -8.25490        9.46340
Cl       -11.05560       -9.22100       10.50250
C        -10.26690       -6.85980        9.47080
Cl       -11.30950       -6.17920       10.65080
C         -9.50800       -6.09250        8.59700
C         -9.45990       -4.65550        8.32120
C        -10.48130       -3.75310        8.50000
C        -10.39950       -2.37850        8.19540
N        -10.42750       -1.24890        7.98330
C        -11.81820       -4.06160        8.82740
N        -12.94730       -4.20260        8.98200
C         -6.54720       -2.75260        6.71180
C         -6.10930       -1.40030        6.62520
N         -6.61500       -0.34630        7.32960
C         -6.57420        0.93490        6.73950
C         -6.98980        1.10570        5.42190
C         -6.92320        2.35190        4.83270
C         -6.45300        3.45350        5.53820
C         -6.34290        4.79210        4.87730
C         -6.06620        3.27620        6.86170
C         -6.12290        2.03410        7.46200
C         -7.07740       -0.45400        8.65460
C         -8.17750        0.29420        9.06620
C         -8.62930        0.19390       10.36640
C         -8.00600       -0.64670       11.28230
C         -8.52900       -0.75890       12.68060
C         -6.89710       -1.37380       10.86500
C         -6.42750       -1.27770        9.57020
C         -5.07570       -1.27340        5.68210
S         -4.13090        0.06050        5.10030
C         -3.21030       -1.02490        4.07560
C         -3.66180       -2.34090        4.13470
N         -3.23620       -3.39170        3.34400
C         -3.21020       -4.67540        3.92470
C         -2.67460       -4.84670        5.19740
C         -2.67730       -6.09490        5.78800
C         -3.20190       -7.19740        5.12680
C         -3.24400       -8.54020        5.78580
C         -3.71710       -7.01880        3.84790
C         -3.72650       -5.77600        3.24870
C         -2.89660       -3.21620        1.99840
C         -3.47700       -2.20580        1.23360
C         -3.04820       -1.97350       -0.05660
C         -2.05780       -2.75540       -0.63900
C         -1.54650       -2.45050       -2.01190
C         -1.53620       -3.80760        0.10320
C         -1.93320       -4.03130        1.40630
C         -4.70130       -2.47250        5.08700
S         -5.58940       -3.82550        5.68250
C         -2.15190       -0.52320        3.26750
C         -1.06750       -1.22350        2.82470
C         -0.26670       -0.51650        1.90150
C          0.84500       -0.99060        1.17630
C          1.30850       -2.35850        1.31730
S          1.45790       -3.13190        2.86830
C          1.96880       -4.63600        2.18670
C          2.19310       -5.84360        3.02890
C          0.86310       -6.42790        3.51360
C          2.03110       -4.52290        0.83160
F          2.39740       -5.53020        0.02200
C          1.66710       -3.24670        0.33920
F          1.60360       -2.99490       -0.97490
C          1.43310       -0.10190        0.28420
C          0.97230        1.22730        0.09460
C         -0.15650        1.68790        0.79940
C         -0.69370        3.01970        0.59180
S         -2.40030        3.27250        0.38470
C         -2.22170        4.98150        0.19560
C         -3.39690        5.87760        0.00740
C         -4.29550        5.87570        1.24490
C         -0.90690        5.32100        0.29600
C         -0.04390        4.22060        0.51600
F          1.27560        4.37580        0.69600
F         -0.46200        6.58310        0.19180
C         -0.76070        0.79010        1.67090
S         -2.19230        1.10130        2.61380
C          1.72360        1.91390       -0.88510
C          2.71600        1.16020       -1.44640
S          2.80110       -0.43790       -0.73170
C          3.60490        1.46800       -2.51220
C          3.52550        2.44460       -3.50350
N          2.50820        3.36010       -3.69500
C          1.15980        3.03920       -3.53000
C          0.24410        4.03620       -3.19280
C         -1.08400        3.72130       -2.98340
C         -1.53980        2.41370       -3.09070
C         -2.97150        2.05710       -2.83370
C         -0.62550        1.42810       -3.44420
C          0.70200        1.72910       -3.66680
C          2.87090        4.60040       -4.26500
C          3.94600        5.30940       -3.73800
C          4.35710        6.48440       -4.33380
C          3.70750        6.98140       -5.45680
C          4.20690        8.21670       -6.13800
C          2.61360        6.28380       -5.95320
C          2.19490        5.10460       -5.37010
C          4.64030        2.36460       -4.37830
S          5.15600        3.30420       -5.73410
C          6.52260        2.21160       -5.98480
C          6.59870        1.21440       -4.97500
N          7.56580        0.25720       -4.85430
C          8.91630        0.46950       -5.18320
C          9.67400       -0.57880       -5.69870
C         11.00190       -0.37770       -6.01880
C         11.60310        0.86320       -5.84630
C         13.02950        1.07770       -6.24720
C         10.84240        1.89770       -5.31190
C          9.51830        1.70810       -4.97220
C          7.20620       -0.96830       -4.25030
C          6.05870       -1.63570       -4.67220
C          5.67180       -2.80450       -4.05080
C          6.41690       -3.34040       -3.00500
C          5.96390       -4.59520       -2.32730
C          7.57810       -2.68460       -2.61630
C          7.97490       -1.51030       -3.22730
C          5.50920        1.31950       -4.09350
S          5.00540        0.42330       -2.70140
C          7.35460        2.23250       -7.09810
C          7.44990        3.14380       -8.13030
C          6.75880        4.42970       -8.21490
O          5.90380        4.87600       -7.46680
C          7.32390        5.11970       -9.39000
C          7.01910        6.35150       -9.88890
C          7.69790        6.81660      -11.03840
C          7.42420        8.08100      -11.59670
C          8.08790        8.51920      -12.70930
C          9.05230        7.68780      -13.29300
F          9.69600        8.13570      -14.38820
C          9.35600        6.45260      -12.79170
C          8.68210        5.98590      -11.64690
C          8.97280        4.70980      -11.10750
C          8.30350        4.28190       -9.99360
C          8.36930        3.03340       -9.23540
C          9.15660        1.95280       -9.56000
C          9.12210        0.69460       -8.93090
N          9.12940       -0.37360       -8.50410
C         10.09650        1.94940      -10.60870
N         10.89550        1.88710      -11.43200
H         -8.19990       -2.32940        7.89990
H         -7.36720        0.25800        4.86900
H         -7.24430        2.47200        3.80850
H         -5.37990        4.87440        4.37220
H         -6.41090        5.59440        5.60760
H         -7.12400        4.92320        4.13230
H         -5.70540        4.12160        7.42900
H         -5.80960        1.90620        8.48750
H         -8.68090        0.93580        8.36070
H         -9.49110        0.76770       10.67200
H         -8.57460        0.22250       13.15020
H         -7.89800       -1.40620       13.28420
H         -9.53880       -1.16790       12.67200
H         -6.38690       -2.01990       11.56470
H         -5.56190       -1.84450        9.26000
H         -2.26160       -3.99480        5.71940
H         -2.26580       -6.21320        6.77990
H         -3.12250       -9.33780        5.05640
H         -2.46910       -8.62940        6.54340
H         -4.20990       -8.67430        6.27260
H         -4.13230       -7.86470        3.31980
H         -4.14260       -5.64560        2.26060
H         -4.25810       -1.59320        1.65860
H         -3.49350       -1.16830       -0.62340
H         -0.74630       -1.71060       -1.94750
H         -1.13780       -3.34090       -2.48300
H         -2.33630       -2.04420       -2.64020
H         -0.79500       -4.45480       -0.34220
H         -1.48910       -4.83210        1.97930
H         -0.85160       -2.21630        3.16580
H          2.80660       -5.57850        3.89240
H          2.72860       -6.58700        2.43520
H          0.24830       -6.72850        2.66830
H          1.04350       -7.30100        4.13440
H          0.31340       -5.69390        4.09930
H         -3.97720        5.54400       -0.85670
H         -3.03350        6.88800       -0.19000
H         -4.65090        4.86780        1.44750
H         -5.15170        6.52580        1.08640
H         -3.74470        6.23160        2.11220
H          1.54710        2.93380       -1.15740
H          0.58380        5.05610       -3.08620
H         -1.77600        4.50950       -2.72230
H         -3.04680        1.41520       -1.95590
H         -3.57050        2.94700       -2.65930
H         -3.38770        1.51540       -3.68200
H         -0.96080        0.40680       -3.55120
H          1.38900        0.94870       -3.95730
H          4.45990        4.92540       -2.86840
H          5.20120        7.02040       -3.92520
H          4.59340        8.93300       -5.41600
H          3.42060        8.68890       -6.72190
H          5.01950        7.94520       -6.81200
H          2.09260        6.65720       -6.82280
H          1.35660        4.55830       -5.77730
H          9.21420       -1.54100       -5.85960
H         11.57480       -1.19460       -6.43020
H         13.10150        1.15520       -7.33250
H         13.42570        1.99200       -5.81230
H         13.64800        0.23930       -5.93360
H         11.29510        2.86560       -5.15130
H          8.94250        2.51920       -4.55080
H          5.47530       -1.22690       -5.48450
H          4.77470       -3.30960       -4.37630
H          6.61100       -4.84400       -1.49040
H          5.96840       -5.42830       -3.02940
H          4.94530       -4.47900       -1.96050
H          8.17640       -3.08890       -1.81290
H          8.87100       -1.00030       -2.90590
H          8.04010        1.39660       -7.15090
H          6.26640        6.96480       -9.41610
H          6.67620        8.70380      -11.12910
H          7.89010        9.48400      -13.14890
H         10.10460        5.83870      -13.26780
H          9.72120        4.10510      -11.59370
