200

C         -6.19870        0.08340        6.08560
C         -7.50580       -0.30120        6.31040
C         -8.45920       -0.76490        5.31080
O         -8.34150       -0.77130        4.09990
C         -9.62200       -1.28190        6.07250
C        -10.74990       -1.92010        5.59230
Cl       -11.04870       -2.05540        3.91870
C        -11.64790       -2.46630        6.52030
Cl       -13.07720       -3.23250        5.97690
C        -11.35160       -2.42660        7.88050
Cl       -12.40650       -3.19440        8.98800
C        -10.19770       -1.78390        8.35990
Cl        -9.81480       -1.94480       10.02430
C         -9.36900       -1.13870        7.45160
C         -8.13880       -0.36120        7.60790
C         -7.75700        0.34960        8.72070
C         -6.57360        1.11020        8.81820
N         -5.63380        1.74850        8.99410
C         -8.54960        0.59490        9.86120
N         -9.14100        0.94180       10.78250
C         -5.48320        0.21580        4.90240
C         -4.10550        0.56990        4.85710
N         -3.27560        0.67490        5.94010
C         -2.24320        1.63020        5.92250
C         -0.97770        1.31260        6.40900
C          0.01610        2.26890        6.42360
C         -0.21840        3.55780        5.95480
C          0.86780        4.58800        6.00830
C         -1.48060        3.86120        5.46060
C         -2.48580        2.91420        5.44410
C         -3.36830       -0.19690        7.04190
C         -3.65120       -1.54690        6.84990
C         -3.75870       -2.39090        7.93720
C         -3.57240       -1.92050        9.23190
C         -3.70990       -2.82660       10.41580
C         -3.25940       -0.57710        9.40900
C         -3.15780        0.28130        8.33310
C         -3.68460        0.78290        3.53550
S         -2.17480        1.23750        2.80620
C         -2.86730        0.98470        1.21650
C         -4.23530        0.72840        1.25190
N         -5.07570        0.73510        0.16380
C         -6.23610       -0.06090        0.20410
C         -7.46640        0.46030       -0.18220
C         -8.60210       -0.31940       -0.09650
C         -8.54400       -1.62560        0.37500
C         -9.77950       -2.46660        0.46120
C         -7.30770       -2.14190        0.74150
C         -6.16330       -1.37480        0.65610
C         -4.83240        1.56550       -0.93970
C         -5.18770        1.14530       -2.21920
C         -4.92410        1.94540       -3.31280
C         -4.30040        3.17860       -3.16870
C         -4.01810        4.04410       -4.35860
C         -3.96670        3.59950       -1.88670
C         -4.23130        2.81290       -0.78410
C         -4.68130        0.57110        2.58780
S         -6.18480        0.09290        3.28500
C         -1.98570        1.00170        0.08780
C         -2.13540        0.17570       -1.01860
F         -3.16960       -0.68180       -1.08870
C         -1.17510        0.09700       -2.02540
F         -1.42210       -0.70850       -3.07520
C          0.01980        0.80220       -1.96510
C          0.11410        1.79060       -0.94620
N          1.13400        2.65280       -0.96680
C          1.28200        3.51640        0.01030
C          2.43650        4.46150       -0.13030
C          3.73130        3.77750        0.31360
C          0.39890        3.48450        1.12240
N         -0.63600        2.67650        1.12680
C         -0.83520        1.84160        0.10000
C          0.53780        4.37300        2.32050
C         -0.25900        5.66380        2.11780
C          1.16540        0.51320       -2.76870
C          1.58050       -0.73800       -3.22830
N          1.03260       -1.94630       -2.85760
C          0.47410       -2.12450       -1.58210
C          1.00230       -1.47710       -0.46640
C          0.36430       -1.55920        0.75570
C         -0.79790       -2.30470        0.91000
C         -1.52360       -2.35580        2.21960
C         -1.27710       -3.00860       -0.18980
C         -0.65690       -2.92320       -1.41950
C          1.14220       -3.03710       -3.73710
C          0.91910       -2.85880       -5.09970
C          1.08150       -3.91680       -5.96980
C          1.45890       -5.17260       -5.50890
C          1.67660       -6.29760       -6.47230
C          1.64880       -5.34680       -4.14400
C          1.49540       -4.29560       -3.26220
C          2.75130       -0.61680       -4.01590
S          3.73200       -1.76060       -4.86080
C          4.85400       -0.47010       -5.31170
C          4.50240        0.77180       -4.70850
N          5.25750        1.90720       -4.72970
C          4.61990        3.14970       -4.52280
C          5.09440        4.02970       -3.55720
C          4.45380        5.23570       -3.34920
C          3.33730        5.59170       -4.09490
C          2.62650        6.88890       -3.85950
C          2.88200        4.71070       -5.07040
C          3.51180        3.50270       -5.28770
C          6.66660        1.90000       -4.75970
C          7.34100        2.90130       -5.45310
C          8.72130        2.90750       -5.48740
C          9.46030        1.92090       -4.84560
C         10.95450        1.91190       -4.93810
C          8.77680        0.94060       -4.13460
C          7.39760        0.92980       -4.07850
C          3.26870        0.67370       -4.04380
S          2.32150        1.78260       -3.09340
C          5.87960       -0.60090       -6.23670
C          6.36840       -1.71710       -6.89030
C          5.96750       -3.10260       -6.66020
O          5.08200       -3.52680       -5.93900
C          6.88290       -3.92930       -7.48120
C          6.92210       -5.30190       -7.60420
C          7.88190       -5.86000       -8.44110
Cl         7.98590       -7.56700       -8.64010
C          8.76510       -5.02320       -9.12300
F          9.68850       -5.56760       -9.92740
C          8.72890       -3.64140       -9.00430
C          7.77300       -3.08780       -8.16890
C          7.45340       -1.69840       -7.83790
C          8.08160       -0.59780       -8.37350
C          9.19820       -0.66710       -9.22930
N         10.12310       -0.64830       -9.91040
C          7.69760        0.74220       -8.18080
N          7.43530        1.86020       -8.11310
H         -5.62250        0.29650        6.97600
H         -0.78200        0.31590        6.77550
H          0.99370        2.01330        6.80580
H          0.57000        5.49800        5.49450
H          1.09480        4.83750        7.04460
H          1.78060        4.20790        5.55240
H         -1.68800        4.85680        5.09670
H         -3.46920        3.17040        5.07920
H         -3.79380       -1.92560        5.84830
H         -3.98460       -3.43490        7.77500
H         -4.56760       -2.52810       11.01820
H         -2.82570       -2.76660       11.04830
H         -3.84910       -3.85880       10.10490
H         -3.10890       -0.19320       10.40670
H         -2.93540        1.32520        8.48690
H         -7.52600        1.47920       -0.53630
H         -9.55460        0.09930       -0.38780
H        -10.66170       -1.84580        0.59750
H         -9.90810       -3.04080       -0.45760
H         -9.71020       -3.16730        1.28960
H         -7.24050       -3.15840        1.10060
H         -5.20350       -1.78740        0.93030
H         -5.65120        0.17930       -2.34870
H         -5.19590        1.59770       -4.29880
H         -3.89830        3.44140       -5.25570
H         -4.84610        4.73460       -4.52390
H         -3.11610        4.63230       -4.20430
H         -3.49470        4.56190       -1.74760
H         -3.97070        3.16710        0.20240
H          2.27080        5.36770        0.45110
H          2.52920        4.72250       -1.18600
H          3.90710        2.89840       -0.30060
H          3.67110        3.46910        1.35560
H          4.57210        4.45650        0.19920
H          0.13100        3.83800        3.17960
H          1.58650        4.60500        2.50620
H         -1.30990        5.42780        1.97250
H         -0.16210        6.30650        2.98920
H          0.09520        6.20960        1.24560
H          1.90420       -0.89010       -0.56320
H          0.77370       -1.02670        1.60250
H         -1.09520       -1.65220        2.92950
H         -2.57580       -2.11100        2.07790
H         -1.47000       -3.35740        2.64600
H         -2.17020       -3.60770       -0.08940
H         -1.06540       -3.44030       -2.27440
H          0.61450       -1.88900       -5.46470
H          0.91410       -3.76660       -7.02640
H          1.72660       -7.25270       -5.95460
H          2.61630       -6.14480       -7.00470
H          0.87680       -6.33640       -7.21050
H          1.93700       -6.31650       -3.76460
H          1.66290       -4.43890       -2.20460
H          5.95820        3.75970       -2.96800
H          4.82720        5.90890       -2.59110
H          1.62180        6.70290       -3.47970
H          2.53050        7.44580       -4.79030
H          3.16110        7.50290       -3.13910
H          2.02340        4.97850       -5.66840
H          3.15560        2.82680       -6.05070
H          6.77950        3.66050       -5.97410
H          9.23230        3.68040       -6.04080
H         11.35620        2.91130       -4.78320
H         11.38880        1.23830       -4.20360
H         11.26200        1.58160       -5.93060
H          9.33180        0.17660       -3.60950
H          6.88230        0.16580       -3.51530
H          6.37270        0.33050       -6.48290
H          6.22580       -5.92330       -7.06410
H          9.44000       -3.05260       -9.56000
