
  xtb     02112206583D
 energy: -424.206595060490 gnorm: 0.000605232195 xtb: 6.4.1 (unknown)
244265  0     0  0            999 V2000
    5.7988   -7.0014    0.7785 C   0  0  0  0  0  0  0  0  0  0  0  0
    6.4767   -7.8293    1.6539 C   0  0  0  0  0  0  0  0  0  0  0  0
    6.6705   -7.5872    3.0781 C   0  0  0  0  0  0  0  0  0  0  0  0
    6.1744   -6.7158    3.7676 O   0  0  0  0  0  0  0  0  0  0  0  0
    7.6239   -8.6230    3.5375 C   0  0  0  0  0  0  0  0  0  0  0  0
    8.0704   -8.8649    4.8226 C   0  0  0  0  0  0  0  0  0  0  0  0
    7.6104   -7.8645    6.1268 Cl  0  0  0  0  0  0  0  0  0  0  0  0
    8.9057   -9.9700    5.0374 C   0  0  0  0  0  0  0  0  0  0  0  0
    9.5135  -10.2911    6.6031 Cl  0  0  0  0  0  0  0  0  0  0  0  0
    9.2091  -10.8260    3.9817 C   0  0  0  0  0  0  0  0  0  0  0  0
   10.1703  -12.2102    4.2815 Cl  0  0  0  0  0  0  0  0  0  0  0  0
    8.7299  -10.5880    2.6826 C   0  0  0  0  0  0  0  0  0  0  0  0
    9.0291  -11.7812    1.4870 Cl  0  0  0  0  0  0  0  0  0  0  0  0
    7.9805   -9.4412    2.4452 C   0  0  0  0  0  0  0  0  0  0  0  0
    7.3125   -8.9321    1.2496 C   0  0  0  0  0  0  0  0  0  0  0  0
    7.4982   -9.3577   -0.0514 C   0  0  0  0  0  0  0  0  0  0  0  0
    6.5706   -9.1435   -1.0866 C   0  0  0  0  0  0  0  0  0  0  0  0
    5.8257   -9.0966   -1.9626 N   0  0  0  0  0  0  0  0  0  0  0  0
    8.6668   -9.9372   -0.5779 C   0  0  0  0  0  0  0  0  0  0  0  0
    9.6167  -10.2452   -1.1474 N   0  0  0  0  0  0  0  0  0  0  0  0
    5.0750   -5.8378    1.0001 C   0  0  0  0  0  0  0  0  0  0  0  0
    4.5025   -5.0651   -0.0499 C   0  0  0  0  0  0  0  0  0  0  0  0
    4.7083   -5.2435   -1.3885 N   0  0  0  0  0  0  0  0  0  0  0  0
    3.6619   -4.9318   -2.2811 C   0  0  0  0  0  0  0  0  0  0  0  0
    3.9247   -4.2644   -3.4736 C   0  0  0  0  0  0  0  0  0  0  0  0
    2.8970   -3.9984   -4.3551 C   0  0  0  0  0  0  0  0  0  0  0  0
    1.5884   -4.3766   -4.0720 C   0  0  0  0  0  0  0  0  0  0  0  0
    0.4963   -4.1227   -5.0631 C   0  0  0  0  0  0  0  0  0  0  0  0
    1.3327   -5.0241   -2.8699 C   0  0  0  0  0  0  0  0  0  0  0  0
    2.3542   -5.3088   -1.9853 C   0  0  0  0  0  0  0  0  0  0  0  0
    5.9435   -5.6695   -1.9141 C   0  0  0  0  0  0  0  0  0  0  0  0
    5.9847   -6.4946   -3.0348 C   0  0  0  0  0  0  0  0  0  0  0  0
    7.2001   -6.9373   -3.5221 C   0  0  0  0  0  0  0  0  0  0  0  0
    8.3936   -6.5944   -2.9004 C   0  0  0  0  0  0  0  0  0  0  0  0
    9.6960   -7.1580   -3.3715 C   0  0  0  0  0  0  0  0  0  0  0  0
    8.3423   -5.7364   -1.8045 C   0  0  0  0  0  0  0  0  0  0  0  0
    7.1397   -5.2647   -1.3226 C   0  0  0  0  0  0  0  0  0  0  0  0
    3.6660   -4.0646    0.4755 C   0  0  0  0  0  0  0  0  0  0  0  0
    2.7283   -2.7942   -0.2305 S   0  0  0  0  0  0  0  0  0  0  0  0
    2.2331   -2.2499    1.3717 C   0  0  0  0  0  0  0  0  0  0  0  0
    2.7875   -3.0007    2.3861 C   0  0  0  0  0  0  0  0  0  0  0  0
    2.5525   -2.8360    3.7353 N   0  0  0  0  0  0  0  0  0  0  0  0
    2.6007   -3.9700    4.5668 C   0  0  0  0  0  0  0  0  0  0  0  0
    2.0939   -5.1869    4.1185 C   0  0  0  0  0  0  0  0  0  0  0  0
    2.1776   -6.3135    4.9120 C   0  0  0  0  0  0  0  0  0  0  0  0
    2.7473   -6.2572    6.1770 C   0  0  0  0  0  0  0  0  0  0  0  0
    2.8576   -7.4868    7.0240 C   0  0  0  0  0  0  0  0  0  0  0  0
    3.2353   -5.0349    6.6249 C   0  0  0  0  0  0  0  0  0  0  0  0
    3.1729   -3.9050    5.8340 C   0  0  0  0  0  0  0  0  0  0  0  0
    2.4391   -1.5606    4.3087 C   0  0  0  0  0  0  0  0  0  0  0  0
    1.5571   -1.3546    5.3671 C   0  0  0  0  0  0  0  0  0  0  0  0
    1.5022   -0.1300    5.9988 C   0  0  0  0  0  0  0  0  0  0  0  0
    2.3215    0.9215    5.6010 C   0  0  0  0  0  0  0  0  0  0  0  0
    2.2764    2.2270    6.3358 C   0  0  0  0  0  0  0  0  0  0  0  0
    3.1763    0.7186    4.5255 C   0  0  0  0  0  0  0  0  0  0  0  0
    3.2372   -0.5038    3.8828 C   0  0  0  0  0  0  0  0  0  0  0  0
    3.6160   -4.0323    1.8609 C   0  0  0  0  0  0  0  0  0  0  0  0
    4.6324   -5.2180    2.5943 S   0  0  0  0  0  0  0  0  0  0  0  0
    1.2575   -1.1814    1.3807 C   0  0  0  0  0  0  0  0  0  0  0  0
   -0.0798   -1.3766    1.1368 C   0  0  0  0  0  0  0  0  0  0  0  0
   -0.6870   -2.6214    0.9335 N   0  0  0  0  0  0  0  0  0  0  0  0
   -1.2945   -2.7827   -0.3169 C   0  0  0  0  0  0  0  0  0  0  0  0
   -2.4877   -3.4869   -0.4811 C   0  0  0  0  0  0  0  0  0  0  0  0
   -3.0842   -3.5626   -1.7214 C   0  0  0  0  0  0  0  0  0  0  0  0
   -2.5173   -2.9254   -2.8214 C   0  0  0  0  0  0  0  0  0  0  0  0
   -3.3444   -3.0817   -4.3787 S   0  0  0  0  0  0  0  0  0  0  0  0
   -2.7115   -1.6661   -5.3248 C   0  0  0  0  0  0  0  0  0  0  0  0
   -1.3260   -2.2323   -2.6677 C   0  0  0  0  0  0  0  0  0  0  0  0
   -0.7203   -2.1702   -1.4309 C   0  0  0  0  0  0  0  0  0  0  0  0
   -0.7753   -3.5540    1.9629 C   0  0  0  0  0  0  0  0  0  0  0  0
   -0.7850   -3.1334    3.2910 C   0  0  0  0  0  0  0  0  0  0  0  0
   -0.9080   -4.0457    4.3205 C   0  0  0  0  0  0  0  0  0  0  0  0
   -1.0179   -5.4003    4.0434 C   0  0  0  0  0  0  0  0  0  0  0  0
   -1.1949   -6.6476    5.2812 S   0  0  0  0  0  0  0  0  0  0  0  0
   -0.7977   -5.7838    6.8260 C   0  0  0  0  0  0  0  0  0  0  0  0
   -0.9883   -5.8284    2.7176 C   0  0  0  0  0  0  0  0  0  0  0  0
   -0.8597   -4.9208    1.6896 C   0  0  0  0  0  0  0  0  0  0  0  0
   -0.7561   -0.1522    0.9214 C   0  0  0  0  0  0  0  0  0  0  0  0
   -2.3794    0.2340    0.5030 S   0  0  0  0  0  0  0  0  0  0  0  0
   -1.9339    1.9241    0.2998 C   0  0  0  0  0  0  0  0  0  0  0  0
   -0.5823    2.1532    0.5082 C   0  0  0  0  0  0  0  0  0  0  0  0
    0.0851    3.3227    0.1883 N   0  0  0  0  0  0  0  0  0  0  0  0
   -0.3564    4.0942   -0.9022 C   0  0  0  0  0  0  0  0  0  0  0  0
   -0.3518    5.4833   -0.8350 C   0  0  0  0  0  0  0  0  0  0  0  0
   -0.9132    6.2420   -1.8426 C   0  0  0  0  0  0  0  0  0  0  0  0
   -1.4797    5.6230   -2.9470 C   0  0  0  0  0  0  0  0  0  0  0  0
   -2.3106    6.4916   -4.2387 S   0  0  0  0  0  0  0  0  0  0  0  0
   -2.4640    8.1841   -3.6099 C   0  0  0  0  0  0  0  0  0  0  0  0
   -1.3916    4.2381   -3.0697 C   0  0  0  0  0  0  0  0  0  0  0  0
   -0.8297    3.4828   -2.0642 C   0  0  0  0  0  0  0  0  0  0  0  0
    1.2223    3.7021    0.9068 C   0  0  0  0  0  0  0  0  0  0  0  0
    1.3401    3.4127    2.2668 C   0  0  0  0  0  0  0  0  0  0  0  0
    2.4439    3.8337    2.9714 C   0  0  0  0  0  0  0  0  0  0  0  0
    3.4688    4.5331    2.3404 C   0  0  0  0  0  0  0  0  0  0  0  0
    4.8270    5.0157    3.3626 S   0  0  0  0  0  0  0  0  0  0  0  0
    5.9517    5.8718    2.2260 C   0  0  0  0  0  0  0  0  0  0  0  0
    3.3704    4.8017    0.9826 C   0  0  0  0  0  0  0  0  0  0  0  0
    2.2581    4.3881    0.2769 C   0  0  0  0  0  0  0  0  0  0  0  0
    0.0681    0.9580    0.9257 C   0  0  0  0  0  0  0  0  0  0  0  0
    1.6992    0.5207    1.3185 S   0  0  0  0  0  0  0  0  0  0  0  0
   -2.9195    2.7935   -0.2776 C   0  0  0  0  0  0  0  0  0  0  0  0
   -3.3273    4.0627    0.0955 C   0  0  0  0  0  0  0  0  0  0  0  0
   -3.0800    4.5821    1.3764 N   0  0  0  0  0  0  0  0  0  0  0  0
   -2.2035    5.6725    1.5860 C   0  0  0  0  0  0  0  0  0  0  0  0
   -1.1198    5.5028    2.4454 C   0  0  0  0  0  0  0  0  0  0  0  0
   -0.2290    6.5323    2.6675 C   0  0  0  0  0  0  0  0  0  0  0  0
   -0.3980    7.7661    2.0478 C   0  0  0  0  0  0  0  0  0  0  0  0
    0.5663    8.8844    2.3003 C   0  0  0  0  0  0  0  0  0  0  0  0
   -1.4960    7.9378    1.2150 C   0  0  0  0  0  0  0  0  0  0  0  0
   -2.3915    6.9090    0.9832 C   0  0  0  0  0  0  0  0  0  0  0  0
   -3.6770    3.9649    2.4828 C   0  0  0  0  0  0  0  0  0  0  0  0
   -4.3333    2.7374    2.3997 C   0  0  0  0  0  0  0  0  0  0  0  0
   -4.9288    2.1738    3.5125 C   0  0  0  0  0  0  0  0  0  0  0  0
   -4.9062    2.8049    4.7466 C   0  0  0  0  0  0  0  0  0  0  0  0
   -5.5598    2.1967    5.9503 C   0  0  0  0  0  0  0  0  0  0  0  0
   -4.2851    4.0457    4.8209 C   0  0  0  0  0  0  0  0  0  0  0  0
   -3.6904    4.6206    3.7175 C   0  0  0  0  0  0  0  0  0  0  0  0
   -4.1888    4.6178   -0.8844 C   0  0  0  0  0  0  0  0  0  0  0  0
   -4.8356    6.1885   -1.1874 S   0  0  0  0  0  0  0  0  0  0  0  0
   -5.6790    5.6060   -2.6231 C   0  0  0  0  0  0  0  0  0  0  0  0
   -5.3925    4.2369   -2.8797 C   0  0  0  0  0  0  0  0  0  0  0  0
   -5.8765    3.4855   -3.9096 N   0  0  0  0  0  0  0  0  0  0  0  0
   -6.0694    2.1033   -3.6956 C   0  0  0  0  0  0  0  0  0  0  0  0
   -5.6986    1.1759   -4.6638 C   0  0  0  0  0  0  0  0  0  0  0  0
   -5.9063   -0.1716   -4.4419 C   0  0  0  0  0  0  0  0  0  0  0  0
   -6.4705   -0.6286   -3.2563 C   0  0  0  0  0  0  0  0  0  0  0  0
   -6.7001   -2.0885   -3.0269 C   0  0  0  0  0  0  0  0  0  0  0  0
   -6.8453    0.3081   -2.2998 C   0  0  0  0  0  0  0  0  0  0  0  0
   -6.6586    1.6580   -2.5147 C   0  0  0  0  0  0  0  0  0  0  0  0
   -6.1941    4.0121   -5.1780 C   0  0  0  0  0  0  0  0  0  0  0  0
   -5.3816    4.9796   -5.7666 C   0  0  0  0  0  0  0  0  0  0  0  0
   -5.7330    5.5228   -6.9845 C   0  0  0  0  0  0  0  0  0  0  0  0
   -6.8774    5.1048   -7.6595 C   0  0  0  0  0  0  0  0  0  0  0  0
   -7.2825    5.7440   -8.9491 C   0  0  0  0  0  0  0  0  0  0  0  0
   -7.6459    4.0979   -7.0890 C   0  0  0  0  0  0  0  0  0  0  0  0
   -7.3196    3.5575   -5.8596 C   0  0  0  0  0  0  0  0  0  0  0  0
   -4.5280    3.7254   -1.8976 C   0  0  0  0  0  0  0  0  0  0  0  0
   -3.7429    2.1973   -1.7091 S   0  0  0  0  0  0  0  0  0  0  0  0
   -6.5871    6.3560   -3.3520 C   0  0  0  0  0  0  0  0  0  0  0  0
   -6.8389    7.7170   -3.3557 C   0  0  0  0  0  0  0  0  0  0  0  0
   -6.0220    8.7246   -2.6990 C   0  0  0  0  0  0  0  0  0  0  0  0
   -5.1351    8.5620   -1.8780 O   0  0  0  0  0  0  0  0  0  0  0  0
   -6.4618   10.0251   -3.2539 C   0  0  0  0  0  0  0  0  0  0  0  0
   -6.0112   11.2917   -2.9353 C   0  0  0  0  0  0  0  0  0  0  0  0
   -4.6943   11.5277   -1.8753 Cl  0  0  0  0  0  0  0  0  0  0  0  0
   -6.6678   12.3929   -3.5014 C   0  0  0  0  0  0  0  0  0  0  0  0
   -6.1260   13.9801   -3.1621 Cl  0  0  0  0  0  0  0  0  0  0  0  0
   -7.7847   12.1944   -4.3090 C   0  0  0  0  0  0  0  0  0  0  0  0
   -8.6236   13.5551   -4.9210 Cl  0  0  0  0  0  0  0  0  0  0  0  0
   -8.2426   10.9035   -4.6227 C   0  0  0  0  0  0  0  0  0  0  0  0
   -9.7080   10.7625   -5.5036 Cl  0  0  0  0  0  0  0  0  0  0  0  0
   -7.5326    9.8079   -4.1464 C   0  0  0  0  0  0  0  0  0  0  0  0
   -7.7380    8.3667   -4.2751 C   0  0  0  0  0  0  0  0  0  0  0  0
   -8.5636    7.7189   -5.1720 C   0  0  0  0  0  0  0  0  0  0  0  0
   -8.9907    6.3853   -5.0259 C   0  0  0  0  0  0  0  0  0  0  0  0
   -9.4570    5.3373   -4.9389 N   0  0  0  0  0  0  0  0  0  0  0  0
   -8.9889    8.2148   -6.4172 C   0  0  0  0  0  0  0  0  0  0  0  0
   -9.2453    8.4459   -7.5138 N   0  0  0  0  0  0  0  0  0  0  0  0
    5.8481   -7.2931   -0.2621 H   0  0  0  0  0  0  0  0  0  0  0  0
    4.9350   -3.9602   -3.7033 H   0  0  0  0  0  0  0  0  0  0  0  0
    3.1138   -3.4860   -5.2813 H   0  0  0  0  0  0  0  0  0  0  0  0
    0.5979   -3.1309   -5.4999 H   0  0  0  0  0  0  0  0  0  0  0  0
   -0.4814   -4.2171   -4.5982 H   0  0  0  0  0  0  0  0  0  0  0  0
    0.5572   -4.8481   -5.8748 H   0  0  0  0  0  0  0  0  0  0  0  0
    0.3224   -5.3209   -2.6287 H   0  0  0  0  0  0  0  0  0  0  0  0
    2.1464   -5.8384   -1.0669 H   0  0  0  0  0  0  0  0  0  0  0  0
    5.0658   -6.8036   -3.5072 H   0  0  0  0  0  0  0  0  0  0  0  0
    7.2150   -7.5900   -4.3814 H   0  0  0  0  0  0  0  0  0  0  0  0
    9.8927   -8.1011   -2.8579 H   0  0  0  0  0  0  0  0  0  0  0  0
   10.5180   -6.4797   -3.1550 H   0  0  0  0  0  0  0  0  0  0  0  0
    9.6701   -7.3590   -4.4396 H   0  0  0  0  0  0  0  0  0  0  0  0
    9.2608   -5.4309   -1.3246 H   0  0  0  0  0  0  0  0  0  0  0  0
    7.1178   -4.5956   -0.4748 H   0  0  0  0  0  0  0  0  0  0  0  0
    1.6361   -5.2475    3.1427 H   0  0  0  0  0  0  0  0  0  0  0  0
    1.7851   -7.2493    4.5430 H   0  0  0  0  0  0  0  0  0  0  0  0
    2.7936   -7.2406    8.0818 H   0  0  0  0  0  0  0  0  0  0  0  0
    2.0747   -8.1999    6.7758 H   0  0  0  0  0  0  0  0  0  0  0  0
    3.8209   -7.9667    6.8483 H   0  0  0  0  0  0  0  0  0  0  0  0
    3.6874   -4.9692    7.6041 H   0  0  0  0  0  0  0  0  0  0  0  0
    3.5781   -2.9702    6.1917 H   0  0  0  0  0  0  0  0  0  0  0  0
    0.9360   -2.1710    5.7023 H   0  0  0  0  0  0  0  0  0  0  0  0
    0.8203    0.0115    6.8252 H   0  0  0  0  0  0  0  0  0  0  0  0
    1.3987    2.8023    6.0374 H   0  0  0  0  0  0  0  0  0  0  0  0
    3.1666    2.8190    6.1356 H   0  0  0  0  0  0  0  0  0  0  0  0
    2.2074    2.0566    7.4087 H   0  0  0  0  0  0  0  0  0  0  0  0
    3.8233    1.5172    4.1941 H   0  0  0  0  0  0  0  0  0  0  0  0
    3.9282   -0.6507    3.0655 H   0  0  0  0  0  0  0  0  0  0  0  0
   -2.9559   -3.9561    0.3706 H   0  0  0  0  0  0  0  0  0  0  0  0
   -4.0087   -4.1053   -1.8462 H   0  0  0  0  0  0  0  0  0  0  0  0
   -3.3307   -1.6023   -6.2140 H   0  0  0  0  0  0  0  0  0  0  0  0
   -2.8143   -0.7628   -4.7306 H   0  0  0  0  0  0  0  0  0  0  0  0
   -1.6792   -1.8359   -5.6162 H   0  0  0  0  0  0  0  0  0  0  0  0
   -0.8521   -1.7418   -3.5021 H   0  0  0  0  0  0  0  0  0  0  0  0
    0.2168   -1.6431   -1.3316 H   0  0  0  0  0  0  0  0  0  0  0  0
   -0.7107   -2.0794    3.5165 H   0  0  0  0  0  0  0  0  0  0  0  0
   -0.9353   -3.6855    5.3363 H   0  0  0  0  0  0  0  0  0  0  0  0
    0.1706   -5.3002    6.7323 H   0  0  0  0  0  0  0  0  0  0  0  0
   -0.7529   -6.5552    7.5885 H   0  0  0  0  0  0  0  0  0  0  0  0
   -1.5806   -5.0720    7.0725 H   0  0  0  0  0  0  0  0  0  0  0  0
   -1.0574   -6.8845    2.5058 H   0  0  0  0  0  0  0  0  0  0  0  0
   -0.8198   -5.2640    0.6665 H   0  0  0  0  0  0  0  0  0  0  0  0
    0.0807    5.9747    0.0210 H   0  0  0  0  0  0  0  0  0  0  0  0
   -0.9206    7.3139   -1.7386 H   0  0  0  0  0  0  0  0  0  0  0  0
   -1.4808    8.6332   -3.5032 H   0  0  0  0  0  0  0  0  0  0  0  0
   -3.0116    8.1829   -2.6714 H   0  0  0  0  0  0  0  0  0  0  0  0
   -3.0308    8.7224   -4.3644 H   0  0  0  0  0  0  0  0  0  0  0  0
   -1.7802    3.7609   -3.9569 H   0  0  0  0  0  0  0  0  0  0  0  0
   -0.7697    2.4093   -2.1684 H   0  0  0  0  0  0  0  0  0  0  0  0
    0.5593    2.8691    2.7766 H   0  0  0  0  0  0  0  0  0  0  0  0
    2.5197    3.6338    4.0265 H   0  0  0  0  0  0  0  0  0  0  0  0
    5.4620    6.7456    1.8058 H   0  0  0  0  0  0  0  0  0  0  0  0
    6.2815    5.1901    1.4474 H   0  0  0  0  0  0  0  0  0  0  0  0
    6.7998    6.1795    2.8298 H   0  0  0  0  0  0  0  0  0  0  0  0
    4.1511    5.3282    0.4576 H   0  0  0  0  0  0  0  0  0  0  0  0
    2.1932    4.5974   -0.7803 H   0  0  0  0  0  0  0  0  0  0  0  0
   -0.9890    4.5550    2.9432 H   0  0  0  0  0  0  0  0  0  0  0  0
    0.6146    6.3723    3.3238 H   0  0  0  0  0  0  0  0  0  0  0  0
    0.5893    9.5764    1.4617 H   0  0  0  0  0  0  0  0  0  0  0  0
    1.5688    8.4975    2.4706 H   0  0  0  0  0  0  0  0  0  0  0  0
    0.2669    9.4417    3.1885 H   0  0  0  0  0  0  0  0  0  0  0  0
   -1.6624    8.8949    0.7419 H   0  0  0  0  0  0  0  0  0  0  0  0
   -3.2403    7.0791    0.3423 H   0  0  0  0  0  0  0  0  0  0  0  0
   -4.4007    2.2064    1.4635 H   0  0  0  0  0  0  0  0  0  0  0  0
   -5.4207    1.2169    3.4091 H   0  0  0  0  0  0  0  0  0  0  0  0
   -4.9556    2.3583    6.8410 H   0  0  0  0  0  0  0  0  0  0  0  0
   -5.7071    1.1281    5.8132 H   0  0  0  0  0  0  0  0  0  0  0  0
   -6.5345    2.6553    6.1208 H   0  0  0  0  0  0  0  0  0  0  0  0
   -4.2731    4.5802    5.7602 H   0  0  0  0  0  0  0  0  0  0  0  0
   -3.2430    5.5979    3.8116 H   0  0  0  0  0  0  0  0  0  0  0  0
   -5.2495    1.5188   -5.5845 H   0  0  0  0  0  0  0  0  0  0  0  0
   -5.6233   -0.8860   -5.2001 H   0  0  0  0  0  0  0  0  0  0  0  0
   -7.7017   -2.3633   -3.3590 H   0  0  0  0  0  0  0  0  0  0  0  0
   -6.6181   -2.3293   -1.9697 H   0  0  0  0  0  0  0  0  0  0  0  0
   -5.9836   -2.6857   -3.5848 H   0  0  0  0  0  0  0  0  0  0  0  0
   -7.2992   -0.0236   -1.3777 H   0  0  0  0  0  0  0  0  0  0  0  0
   -6.9749    2.3764   -1.7722 H   0  0  0  0  0  0  0  0  0  0  0  0
   -4.4881    5.3119   -5.2600 H   0  0  0  0  0  0  0  0  0  0  0  0
   -5.1029    6.2829   -7.4230 H   0  0  0  0  0  0  0  0  0  0  0  0
   -7.8374    5.0469   -9.5719 H   0  0  0  0  0  0  0  0  0  0  0  0
   -7.9291    6.6004   -8.7471 H   0  0  0  0  0  0  0  0  0  0  0  0
   -6.4143    6.1015   -9.4977 H   0  0  0  0  0  0  0  0  0  0  0  0
   -8.5312    3.7492   -7.5982 H   0  0  0  0  0  0  0  0  0  0  0  0
   -7.9465    2.8005   -5.4150 H   0  0  0  0  0  0  0  0  0  0  0  0
   -7.1618    5.7784   -4.0631 H   0  0  0  0  0  0  0  0  0  0  0  0
  1  2  2  0  0  0  0
  2  3  1  0  0  0  0
  3  4  2  0  0  0  0
  3  5  1  0  0  0  0
  5  6  2  0  0  0  0
  6  7  1  0  0  0  0
  6  8  1  0  0  0  0
  8  9  1  0  0  0  0
  8 10  2  0  0  0  0
 10 11  1  0  0  0  0
 10 12  1  0  0  0  0
 12 13  1  0  0  0  0
 12 14  2  0  0  0  0
 14 15  1  0  0  0  0
 15 16  2  0  0  0  0
 16 17  1  0  0  0  0
 17 18  3  0  0  0  0
 16 19  1  0  0  0  0
 19 20  3  0  0  0  0
  1 21  1  0  0  0  0
 21 22  2  0  0  0  0
 22 23  1  0  0  0  0
 23 24  1  0  0  0  0
 24 25  2  0  0  0  0
 25 26  1  0  0  0  0
 26 27  2  0  0  0  0
 27 28  1  0  0  0  0
 27 29  1  0  0  0  0
 29 30  2  0  0  0  0
 23 31  1  0  0  0  0
 31 32  2  0  0  0  0
 32 33  1  0  0  0  0
 33 34  2  0  0  0  0
 34 35  1  0  0  0  0
 34 36  1  0  0  0  0
 36 37  2  0  0  0  0
 22 38  1  0  0  0  0
 38 39  1  0  0  0  0
 39 40  1  0  0  0  0
 40 41  2  0  0  0  0
 41 42  1  0  0  0  0
 42 43  1  0  0  0  0
 43 44  2  0  0  0  0
 44 45  1  0  0  0  0
 45 46  2  0  0  0  0
 46 47  1  0  0  0  0
 46 48  1  0  0  0  0
 48 49  2  0  0  0  0
 42 50  1  0  0  0  0
 50 51  2  0  0  0  0
 51 52  1  0  0  0  0
 52 53  2  0  0  0  0
 53 54  1  0  0  0  0
 53 55  1  0  0  0  0
 55 56  2  0  0  0  0
 41 57  1  0  0  0  0
 57 58  1  0  0  0  0
 40 59  1  0  0  0  0
 59 60  2  0  0  0  0
 60 61  1  0  0  0  0
 61 62  1  0  0  0  0
 62 63  2  0  0  0  0
 63 64  1  0  0  0  0
 64 65  2  0  0  0  0
 65 66  1  0  0  0  0
 66 67  1  0  0  0  0
 65 68  1  0  0  0  0
 68 69  2  0  0  0  0
 61 70  1  0  0  0  0
 70 71  2  0  0  0  0
 71 72  1  0  0  0  0
 72 73  2  0  0  0  0
 73 74  1  0  0  0  0
 74 75  1  0  0  0  0
 73 76  1  0  0  0  0
 76 77  2  0  0  0  0
 60 78  1  0  0  0  0
 78 79  1  0  0  0  0
 79 80  1  0  0  0  0
 80 81  2  0  0  0  0
 81 82  1  0  0  0  0
 82 83  1  0  0  0  0
 83 84  2  0  0  0  0
 84 85  1  0  0  0  0
 85 86  2  0  0  0  0
 86 87  1  0  0  0  0
 87 88  1  0  0  0  0
 86 89  1  0  0  0  0
 89 90  2  0  0  0  0
 82 91  1  0  0  0  0
 91 92  2  0  0  0  0
 92 93  1  0  0  0  0
 93 94  2  0  0  0  0
 94 95  1  0  0  0  0
 95 96  1  0  0  0  0
 94 97  1  0  0  0  0
 97 98  2  0  0  0  0
 81 99  1  0  0  0  0
 99100  1  0  0  0  0
 80101  1  0  0  0  0
101102  2  0  0  0  0
102103  1  0  0  0  0
103104  1  0  0  0  0
104105  2  0  0  0  0
105106  1  0  0  0  0
106107  2  0  0  0  0
107108  1  0  0  0  0
107109  1  0  0  0  0
109110  2  0  0  0  0
103111  1  0  0  0  0
111112  2  0  0  0  0
112113  1  0  0  0  0
113114  2  0  0  0  0
114115  1  0  0  0  0
114116  1  0  0  0  0
116117  2  0  0  0  0
102118  1  0  0  0  0
118119  1  0  0  0  0
119120  1  0  0  0  0
120121  2  0  0  0  0
121122  1  0  0  0  0
122123  1  0  0  0  0
123124  2  0  0  0  0
124125  1  0  0  0  0
125126  2  0  0  0  0
126127  1  0  0  0  0
126128  1  0  0  0  0
128129  2  0  0  0  0
122130  1  0  0  0  0
130131  2  0  0  0  0
131132  1  0  0  0  0
132133  2  0  0  0  0
133134  1  0  0  0  0
133135  1  0  0  0  0
135136  2  0  0  0  0
121137  1  0  0  0  0
137138  1  0  0  0  0
120139  1  0  0  0  0
139140  2  0  0  0  0
140141  1  0  0  0  0
141142  2  0  0  0  0
141143  1  0  0  0  0
143144  2  0  0  0  0
144145  1  0  0  0  0
144146  1  0  0  0  0
146147  1  0  0  0  0
146148  2  0  0  0  0
148149  1  0  0  0  0
148150  1  0  0  0  0
150151  1  0  0  0  0
150152  2  0  0  0  0
152153  1  0  0  0  0
153154  2  0  0  0  0
154155  1  0  0  0  0
155156  3  0  0  0  0
154157  1  0  0  0  0
157158  3  0  0  0  0
 15  2  1  0  0  0  0
 58 21  1  0  0  0  0
100 59  1  0  0  0  0
138101  1  0  0  0  0
153140  1  0  0  0  0
 14  5  1  0  0  0  0
 30 24  1  0  0  0  0
 37 31  1  0  0  0  0
 57 38  2  0  0  0  0
 69 62  1  0  0  0  0
 77 70  1  0  0  0  0
 99 78  2  0  0  0  0
110104  1  0  0  0  0
117111  1  0  0  0  0
137118  2  0  0  0  0
152143  1  0  0  0  0
 49 43  1  0  0  0  0
 56 50  1  0  0  0  0
 90 83  1  0  0  0  0
 98 91  1  0  0  0  0
129123  1  0  0  0  0
136130  1  0  0  0  0
  1159  1  0  0  0  0
 25160  1  0  0  0  0
 26161  1  0  0  0  0
 28162  1  0  0  0  0
 28163  1  0  0  0  0
 28164  1  0  0  0  0
 29165  1  0  0  0  0
 30166  1  0  0  0  0
 32167  1  0  0  0  0
 33168  1  0  0  0  0
 35169  1  0  0  0  0
 35170  1  0  0  0  0
 35171  1  0  0  0  0
 36172  1  0  0  0  0
 37173  1  0  0  0  0
 44174  1  0  0  0  0
 45175  1  0  0  0  0
 47176  1  0  0  0  0
 47177  1  0  0  0  0
 47178  1  0  0  0  0
 48179  1  0  0  0  0
 49180  1  0  0  0  0
 51181  1  0  0  0  0
 52182  1  0  0  0  0
 54183  1  0  0  0  0
 54184  1  0  0  0  0
 54185  1  0  0  0  0
 55186  1  0  0  0  0
 56187  1  0  0  0  0
 63188  1  0  0  0  0
 64189  1  0  0  0  0
 67190  1  0  0  0  0
 67191  1  0  0  0  0
 67192  1  0  0  0  0
 68193  1  0  0  0  0
 69194  1  0  0  0  0
 71195  1  0  0  0  0
 72196  1  0  0  0  0
 75197  1  0  0  0  0
 75198  1  0  0  0  0
 75199  1  0  0  0  0
 76200  1  0  0  0  0
 77201  1  0  0  0  0
 84202  1  0  0  0  0
 85203  1  0  0  0  0
 88204  1  0  0  0  0
 88205  1  0  0  0  0
 88206  1  0  0  0  0
 89207  1  0  0  0  0
 90208  1  0  0  0  0
 92209  1  0  0  0  0
 93210  1  0  0  0  0
 96211  1  0  0  0  0
 96212  1  0  0  0  0
 96213  1  0  0  0  0
 97214  1  0  0  0  0
 98215  1  0  0  0  0
105216  1  0  0  0  0
106217  1  0  0  0  0
108218  1  0  0  0  0
108219  1  0  0  0  0
108220  1  0  0  0  0
109221  1  0  0  0  0
110222  1  0  0  0  0
112223  1  0  0  0  0
113224  1  0  0  0  0
115225  1  0  0  0  0
115226  1  0  0  0  0
115227  1  0  0  0  0
116228  1  0  0  0  0
117229  1  0  0  0  0
124230  1  0  0  0  0
125231  1  0  0  0  0
127232  1  0  0  0  0
127233  1  0  0  0  0
127234  1  0  0  0  0
128235  1  0  0  0  0
129236  1  0  0  0  0
131237  1  0  0  0  0
132238  1  0  0  0  0
134239  1  0  0  0  0
134240  1  0  0  0  0
134241  1  0  0  0  0
135242  1  0  0  0  0
136243  1  0  0  0  0
139244  1  0  0  0  0
M  END
