
  xtb     02112218273D
 energy: -392.830325641313 gnorm: 0.000382317284 xtb: 6.4.1 (unknown)
220240  0     0  0            999 V2000
   -4.3732    5.5992   -5.5414 C   0  0  0  0  0  0  0  0  0  0  0  0
   -4.8894    5.4208   -6.8120 C   0  0  0  0  0  0  0  0  0  0  0  0
   -4.3380    4.5363   -7.8299 C   0  0  0  0  0  0  0  0  0  0  0  0
   -3.4773    3.6859   -7.6988 O   0  0  0  0  0  0  0  0  0  0  0  0
   -5.0383    4.8850   -9.0886 C   0  0  0  0  0  0  0  0  0  0  0  0
   -4.9051    4.3038  -10.3352 C   0  0  0  0  0  0  0  0  0  0  0  0
   -3.7403    3.0927  -10.6337 Cl  0  0  0  0  0  0  0  0  0  0  0  0
   -5.7631    4.7287  -11.3597 C   0  0  0  0  0  0  0  0  0  0  0  0
   -5.6131    4.0664  -12.9293 Cl  0  0  0  0  0  0  0  0  0  0  0  0
   -6.7611    5.6608  -11.0885 C   0  0  0  0  0  0  0  0  0  0  0  0
   -7.8506    6.1022  -12.3327 Cl  0  0  0  0  0  0  0  0  0  0  0  0
   -6.9007    6.2353   -9.8140 C   0  0  0  0  0  0  0  0  0  0  0  0
   -8.2521    7.2548   -9.5361 Cl  0  0  0  0  0  0  0  0  0  0  0  0
   -5.9875    5.8941   -8.8233 C   0  0  0  0  0  0  0  0  0  0  0  0
   -5.8649    6.2875   -7.4210 C   0  0  0  0  0  0  0  0  0  0  0  0
   -6.4806    7.3587   -6.8035 C   0  0  0  0  0  0  0  0  0  0  0  0
   -6.6245    7.4917   -5.4103 C   0  0  0  0  0  0  0  0  0  0  0  0
   -6.8637    7.6385   -4.2944 N   0  0  0  0  0  0  0  0  0  0  0  0
   -6.9239    8.5344   -7.4349 C   0  0  0  0  0  0  0  0  0  0  0  0
   -7.1534    9.5943   -7.8168 N   0  0  0  0  0  0  0  0  0  0  0  0
   -3.3371    4.9555   -4.8813 C   0  0  0  0  0  0  0  0  0  0  0  0
   -2.8287    5.3969   -3.6249 C   0  0  0  0  0  0  0  0  0  0  0  0
   -3.1456    6.5685   -2.9990 N   0  0  0  0  0  0  0  0  0  0  0  0
   -3.0522    6.6140   -1.5913 C   0  0  0  0  0  0  0  0  0  0  0  0
   -2.3972    7.6649   -0.9591 C   0  0  0  0  0  0  0  0  0  0  0  0
   -2.2727    7.6701    0.4164 C   0  0  0  0  0  0  0  0  0  0  0  0
   -2.7873    6.6352    1.1878 C   0  0  0  0  0  0  0  0  0  0  0  0
   -2.6266    6.6294    2.6770 C   0  0  0  0  0  0  0  0  0  0  0  0
   -3.4658    5.6043    0.5478 C   0  0  0  0  0  0  0  0  0  0  0  0
   -3.6065    5.5922   -0.8246 C   0  0  0  0  0  0  0  0  0  0  0  0
   -3.4567    7.7578   -3.6864 C   0  0  0  0  0  0  0  0  0  0  0  0
   -2.8202    8.0809   -4.8840 C   0  0  0  0  0  0  0  0  0  0  0  0
   -3.1809    9.2217   -5.5697 C   0  0  0  0  0  0  0  0  0  0  0  0
   -4.1561   10.0841   -5.0745 C   0  0  0  0  0  0  0  0  0  0  0  0
   -4.5868   11.2825   -5.8579 C   0  0  0  0  0  0  0  0  0  0  0  0
   -4.7367    9.7842   -3.8490 C   0  0  0  0  0  0  0  0  0  0  0  0
   -4.4035    8.6326   -3.1615 C   0  0  0  0  0  0  0  0  0  0  0  0
   -1.9344    4.4522   -3.0979 C   0  0  0  0  0  0  0  0  0  0  0  0
   -1.0227    4.3287   -1.6287 S   0  0  0  0  0  0  0  0  0  0  0  0
   -0.4053    2.7604   -2.1139 C   0  0  0  0  0  0  0  0  0  0  0  0
   -0.8506    2.3824   -3.3669 C   0  0  0  0  0  0  0  0  0  0  0  0
   -0.6083    1.1262   -3.9625 N   0  0  0  0  0  0  0  0  0  0  0  0
   -1.6172    0.1644   -3.7179 C   0  0  0  0  0  0  0  0  0  0  0  0
   -2.2676   -0.4895   -4.7628 C   0  0  0  0  0  0  0  0  0  0  0  0
   -3.2397   -1.4324   -4.5000 C   0  0  0  0  0  0  0  0  0  0  0  0
   -3.6122   -1.7443   -3.1966 C   0  0  0  0  0  0  0  0  0  0  0  0
   -4.6567   -2.7847   -2.9311 C   0  0  0  0  0  0  0  0  0  0  0  0
   -2.9899   -1.0620   -2.1618 C   0  0  0  0  0  0  0  0  0  0  0  0
   -2.0101   -0.1187   -2.4126 C   0  0  0  0  0  0  0  0  0  0  0  0
    0.1346    1.0773   -5.1473 C   0  0  0  0  0  0  0  0  0  0  0  0
    0.5328    2.2265   -5.8238 C   0  0  0  0  0  0  0  0  0  0  0  0
    1.2580    2.1338   -6.9961 C   0  0  0  0  0  0  0  0  0  0  0  0
    1.6301    0.9059   -7.5214 C   0  0  0  0  0  0  0  0  0  0  0  0
    2.4132    0.8021   -8.7962 C   0  0  0  0  0  0  0  0  0  0  0  0
    1.2777   -0.2378   -6.8125 C   0  0  0  0  0  0  0  0  0  0  0  0
    0.5488   -0.1601   -5.6451 C   0  0  0  0  0  0  0  0  0  0  0  0
   -1.7207    3.3493   -3.9182 C   0  0  0  0  0  0  0  0  0  0  0  0
   -2.5876    3.4441   -5.4082 S   0  0  0  0  0  0  0  0  0  0  0  0
    0.2536    1.9842   -1.1120 C   0  0  0  0  0  0  0  0  0  0  0  0
    1.1940    0.9677   -1.2004 C   0  0  0  0  0  0  0  0  0  0  0  0
    1.9779    0.6393   -2.2909 N   0  0  0  0  0  0  0  0  0  0  0  0
    2.5732    1.5974   -3.1159 C   0  0  0  0  0  0  0  0  0  0  0  0
    3.1486    1.2118   -4.3253 C   0  0  0  0  0  0  0  0  0  0  0  0
    3.7480    2.1337   -5.1582 C   0  0  0  0  0  0  0  0  0  0  0  0
    3.7648    3.4773   -4.8149 C   0  0  0  0  0  0  0  0  0  0  0  0
    4.4539    4.7505   -5.8239 S   0  0  0  0  0  0  0  0  0  0  0  0
    4.9522    3.8805   -7.3371 C   0  0  0  0  0  0  0  0  0  0  0  0
    3.2094    3.8692   -3.6000 C   0  0  0  0  0  0  0  0  0  0  0  0
    2.6355    2.9447   -2.7563 C   0  0  0  0  0  0  0  0  0  0  0  0
    2.3211   -0.7232   -2.4066 C   0  0  0  0  0  0  0  0  0  0  0  0
    3.6461   -1.1311   -2.5373 C   0  0  0  0  0  0  0  0  0  0  0  0
    3.9592   -2.4725   -2.6159 C   0  0  0  0  0  0  0  0  0  0  0  0
    2.9528   -3.4275   -2.5552 C   0  0  0  0  0  0  0  0  0  0  0  0
    3.2959   -5.1625   -2.6302 S   0  0  0  0  0  0  0  0  0  0  0  0
    4.6061   -5.2132   -3.8978 C   0  0  0  0  0  0  0  0  0  0  0  0
    1.6302   -3.0269   -2.4072 C   0  0  0  0  0  0  0  0  0  0  0  0
    1.3150   -1.6863   -2.3393 C   0  0  0  0  0  0  0  0  0  0  0  0
    1.2944    0.2812    0.0388 C   0  0  0  0  0  0  0  0  0  0  0  0
    2.1893   -1.0947    0.5784 S   0  0  0  0  0  0  0  0  0  0  0  0
    1.4098   -1.0194    2.1580 C   0  0  0  0  0  0  0  0  0  0  0  0
    0.5687    0.0820    2.2762 C   0  0  0  0  0  0  0  0  0  0  0  0
   -0.1412    0.4704    3.3995 N   0  0  0  0  0  0  0  0  0  0  0  0
    0.4298    0.4465    4.6749 C   0  0  0  0  0  0  0  0  0  0  0  0
   -0.3785    0.2708    5.8013 C   0  0  0  0  0  0  0  0  0  0  0  0
    0.1813    0.2197    7.0560 C   0  0  0  0  0  0  0  0  0  0  0  0
    1.5617    0.3278    7.2242 C   0  0  0  0  0  0  0  0  0  0  0  0
    2.1587    0.2030    8.8806 S   0  0  0  0  0  0  0  0  0  0  0  0
    3.9625    0.2862    8.7056 C   0  0  0  0  0  0  0  0  0  0  0  0
    2.3677    0.5153    6.1101 C   0  0  0  0  0  0  0  0  0  0  0  0
    1.8044    0.5822    4.8506 C   0  0  0  0  0  0  0  0  0  0  0  0
   -1.4110    1.0361    3.2002 C   0  0  0  0  0  0  0  0  0  0  0  0
   -2.2815    0.4769    2.2628 C   0  0  0  0  0  0  0  0  0  0  0  0
   -3.5117    1.0474    2.0292 C   0  0  0  0  0  0  0  0  0  0  0  0
   -3.9119    2.1786    2.7381 C   0  0  0  0  0  0  0  0  0  0  0  0
   -5.5051    2.8292    2.3429 S   0  0  0  0  0  0  0  0  0  0  0  0
   -5.7946    4.0883    3.6192 C   0  0  0  0  0  0  0  0  0  0  0  0
   -3.0559    2.7291    3.6827 C   0  0  0  0  0  0  0  0  0  0  0  0
   -1.8143    2.1663    3.9047 C   0  0  0  0  0  0  0  0  0  0  0  0
    0.5024    0.7931    1.0519 C   0  0  0  0  0  0  0  0  0  0  0  0
   -0.3812    2.1796    0.5240 S   0  0  0  0  0  0  0  0  0  0  0  0
    1.6256   -2.1257    3.0220 C   0  0  0  0  0  0  0  0  0  0  0  0
    2.5454   -3.1213    2.8155 C   0  0  0  0  0  0  0  0  0  0  0  0
    2.4579   -4.1912    3.7287 C   0  0  0  0  0  0  0  0  0  0  0  0
    3.2087   -5.3867    3.7444 C   0  0  0  0  0  0  0  0  0  0  0  0
    4.2217   -5.6956    2.7549 C   0  0  0  0  0  0  0  0  0  0  0  0
    5.3923   -6.3620    2.9890 C   0  0  0  0  0  0  0  0  0  0  0  0
    6.1887   -6.6189    1.8542 C   0  0  0  0  0  0  0  0  0  0  0  0
    5.6774   -6.1957    0.6674 C   0  0  0  0  0  0  0  0  0  0  0  0
    6.3348   -6.2791   -0.6691 C   0  0  0  0  0  0  0  0  0  0  0  0
    7.0367   -4.9605   -0.9994 C   0  0  0  0  0  0  0  0  0  0  0  0
    4.0257   -5.3450    0.9061 Se  0  0  0  0  0  2  0  0  0  0  0  0
    2.9023   -6.2916    4.7586 C   0  0  0  0  0  0  0  0  0  0  0  0
    1.9005   -6.0490    5.7396 C   0  0  0  0  0  0  0  0  0  0  0  0
    1.1407   -4.8512    5.7186 C   0  0  0  0  0  0  0  0  0  0  0  0
    0.0898   -4.5645    6.6704 C   0  0  0  0  0  0  0  0  0  0  0  0
   -0.1768   -3.3509    7.2422 C   0  0  0  0  0  0  0  0  0  0  0  0
   -1.3044   -3.3115    8.0880 C   0  0  0  0  0  0  0  0  0  0  0  0
   -1.9972   -4.4780    8.2074 C   0  0  0  0  0  0  0  0  0  0  0  0
   -3.2421   -4.7067    9.0010 C   0  0  0  0  0  0  0  0  0  0  0  0
   -3.3069   -6.1127    9.5866 C   0  0  0  0  0  0  0  0  0  0  0  0
   -1.2012   -5.8363    7.1924 Se  0  0  0  0  0  2  0  0  0  0  0  0
    1.4477   -3.9637    4.7006 C   0  0  0  0  0  0  0  0  0  0  0  0
    0.6088   -2.4622    4.4058 S   0  0  0  0  0  0  0  0  0  0  0  0
    1.8000   -7.1110    6.6432 C   0  0  0  0  0  0  0  0  0  0  0  0
    2.6428   -8.1768    6.3686 C   0  0  0  0  0  0  0  0  0  0  0  0
    3.6377   -7.8572    4.9638 S   0  0  0  0  0  0  0  0  0  0  0  0
    2.6262   -9.3432    7.1521 C   0  0  0  0  0  0  0  0  0  0  0  0
    3.3554  -10.4988    7.0534 C   0  0  0  0  0  0  0  0  0  0  0  0
    4.4378  -10.7664    6.0986 C   0  0  0  0  0  0  0  0  0  0  0  0
    4.8045  -10.0768    5.1712 O   0  0  0  0  0  0  0  0  0  0  0  0
    5.0348  -12.0558    6.5213 C   0  0  0  0  0  0  0  0  0  0  0  0
    6.1520  -12.6943    6.0139 C   0  0  0  0  0  0  0  0  0  0  0  0
    6.9577  -12.1116    4.6276 Cl  0  0  0  0  0  0  0  0  0  0  0  0
    6.6187  -13.8385    6.6766 C   0  0  0  0  0  0  0  0  0  0  0  0
    7.9734  -14.6846    6.0669 Cl  0  0  0  0  0  0  0  0  0  0  0  0
    6.0083  -14.2591    7.8567 C   0  0  0  0  0  0  0  0  0  0  0  0
    6.6595  -15.5945    8.7046 Cl  0  0  0  0  0  0  0  0  0  0  0  0
    4.8801  -13.5997    8.3716 C   0  0  0  0  0  0  0  0  0  0  0  0
    4.3049  -14.0634    9.9196 Cl  0  0  0  0  0  0  0  0  0  0  0  0
    4.3463  -12.5365    7.6537 C   0  0  0  0  0  0  0  0  0  0  0  0
    3.1862  -11.6782    7.8833 C   0  0  0  0  0  0  0  0  0  0  0  0
    2.0491  -12.0161    8.5719 C   0  0  0  0  0  0  0  0  0  0  0  0
    1.7183  -13.3102    9.0293 C   0  0  0  0  0  0  0  0  0  0  0  0
    1.3067  -14.3364    9.3372 N   0  0  0  0  0  0  0  0  0  0  0  0
    0.9472  -11.1580    8.7823 C   0  0  0  0  0  0  0  0  0  0  0  0
    0.0182  -10.5265    9.0221 N   0  0  0  0  0  0  0  0  0  0  0  0
   -4.8250    6.3982   -4.9690 H   0  0  0  0  0  0  0  0  0  0  0  0
   -1.9760    8.4642   -1.5506 H   0  0  0  0  0  0  0  0  0  0  0  0
   -1.7513    8.4854    0.8962 H   0  0  0  0  0  0  0  0  0  0  0  0
   -1.8473    7.3210    2.9865 H   0  0  0  0  0  0  0  0  0  0  0  0
   -2.3691    5.6308    3.0253 H   0  0  0  0  0  0  0  0  0  0  0  0
   -3.5573    6.9330    3.1586 H   0  0  0  0  0  0  0  0  0  0  0  0
   -3.8839    4.7932    1.1237 H   0  0  0  0  0  0  0  0  0  0  0  0
   -4.1413    4.7888   -1.3091 H   0  0  0  0  0  0  0  0  0  0  0  0
   -2.0578    7.4260   -5.2799 H   0  0  0  0  0  0  0  0  0  0  0  0
   -2.6938    9.4520   -6.5061 H   0  0  0  0  0  0  0  0  0  0  0  0
   -5.4051   11.0077   -6.5265 H   0  0  0  0  0  0  0  0  0  0  0  0
   -4.9436   12.0705   -5.1996 H   0  0  0  0  0  0  0  0  0  0  0  0
   -3.7712   11.6663   -6.4663 H   0  0  0  0  0  0  0  0  0  0  0  0
   -5.4854   10.4439   -3.4381 H   0  0  0  0  0  0  0  0  0  0  0  0
   -4.8901    8.3962   -2.2283 H   0  0  0  0  0  0  0  0  0  0  0  0
   -2.0173   -0.2446   -5.7838 H   0  0  0  0  0  0  0  0  0  0  0  0
   -3.7311   -1.9276   -5.3251 H   0  0  0  0  0  0  0  0  0  0  0  0
   -5.5274   -2.6236   -3.5641 H   0  0  0  0  0  0  0  0  0  0  0  0
   -4.9707   -2.7653   -1.8905 H   0  0  0  0  0  0  0  0  0  0  0  0
   -4.2640   -3.7773   -3.1527 H   0  0  0  0  0  0  0  0  0  0  0  0
   -3.2712   -1.2675   -1.1385 H   0  0  0  0  0  0  0  0  0  0  0  0
   -1.5578    0.4035   -1.5846 H   0  0  0  0  0  0  0  0  0  0  0  0
    0.2864    3.2033   -5.4403 H   0  0  0  0  0  0  0  0  0  0  0  0
    1.5254    3.0442   -7.5139 H   0  0  0  0  0  0  0  0  0  0  0  0
    2.4165    1.7503   -9.3291 H   0  0  0  0  0  0  0  0  0  0  0  0
    1.9865    0.0409   -9.4467 H   0  0  0  0  0  0  0  0  0  0  0  0
    3.4464    0.5180   -8.5897 H   0  0  0  0  0  0  0  0  0  0  0  0
    1.5800   -1.2075   -7.1832 H   0  0  0  0  0  0  0  0  0  0  0  0
    0.2958   -1.0620   -5.1070 H   0  0  0  0  0  0  0  0  0  0  0  0
    3.1163    0.1792   -4.6328 H   0  0  0  0  0  0  0  0  0  0  0  0
    4.1868    1.7854   -6.0780 H   0  0  0  0  0  0  0  0  0  0  0  0
    5.7548    3.1819   -7.1187 H   0  0  0  0  0  0  0  0  0  0  0  0
    5.3097    4.6509   -8.0134 H   0  0  0  0  0  0  0  0  0  0  0  0
    4.0950    3.3737   -7.7694 H   0  0  0  0  0  0  0  0  0  0  0  0
    3.2402    4.9109   -3.3189 H   0  0  0  0  0  0  0  0  0  0  0  0
    2.2460    3.2771   -1.8073 H   0  0  0  0  0  0  0  0  0  0  0  0
    4.4334   -0.3924   -2.5600 H   0  0  0  0  0  0  0  0  0  0  0  0
    4.9924   -2.7689   -2.7073 H   0  0  0  0  0  0  0  0  0  0  0  0
    5.5540   -4.8787   -3.4898 H   0  0  0  0  0  0  0  0  0  0  0  0
    4.3058   -4.5954   -4.7380 H   0  0  0  0  0  0  0  0  0  0  0  0
    4.6844   -6.2505   -4.2074 H   0  0  0  0  0  0  0  0  0  0  0  0
    0.8534   -3.7738   -2.3533 H   0  0  0  0  0  0  0  0  0  0  0  0
    0.2854   -1.3757   -2.2380 H   0  0  0  0  0  0  0  0  0  0  0  0
   -1.4440    0.1519    5.6800 H   0  0  0  0  0  0  0  0  0  0  0  0
   -0.4416    0.0789    7.9258 H   0  0  0  0  0  0  0  0  0  0  0  0
    4.3111   -0.5261    8.0745 H   0  0  0  0  0  0  0  0  0  0  0  0
    4.2550    1.2530    8.3061 H   0  0  0  0  0  0  0  0  0  0  0  0
    4.3582    0.1687    9.7097 H   0  0  0  0  0  0  0  0  0  0  0  0
    3.4367    0.6161    6.2049 H   0  0  0  0  0  0  0  0  0  0  0  0
    2.4429    0.7348    3.9931 H   0  0  0  0  0  0  0  0  0  0  0  0
   -1.9832   -0.4098    1.7230 H   0  0  0  0  0  0  0  0  0  0  0  0
   -4.1829    0.6216    1.2993 H   0  0  0  0  0  0  0  0  0  0  0  0
   -5.7027    3.6414    4.6047 H   0  0  0  0  0  0  0  0  0  0  0  0
   -5.1062    4.9190    3.4941 H   0  0  0  0  0  0  0  0  0  0  0  0
   -6.8126    4.4311    3.4621 H   0  0  0  0  0  0  0  0  0  0  0  0
   -3.3389    3.6025    4.2481 H   0  0  0  0  0  0  0  0  0  0  0  0
   -1.1466    2.6122    4.6270 H   0  0  0  0  0  0  0  0  0  0  0  0
    3.2705   -3.0636    2.0209 H   0  0  0  0  0  0  0  0  0  0  0  0
    5.7133   -6.6386    3.9785 H   0  0  0  0  0  0  0  0  0  0  0  0
    7.1364   -7.1264    1.9255 H   0  0  0  0  0  0  0  0  0  0  0  0
    7.0648   -7.0913   -0.6582 H   0  0  0  0  0  0  0  0  0  0  0  0
    5.5867   -6.4977   -1.4344 H   0  0  0  0  0  0  0  0  0  0  0  0
    7.5186   -5.0126   -1.9738 H   0  0  0  0  0  0  0  0  0  0  0  0
    7.7951   -4.7395   -0.2515 H   0  0  0  0  0  0  0  0  0  0  0  0
    6.3117   -4.1469   -0.9982 H   0  0  0  0  0  0  0  0  0  0  0  0
    0.4566   -2.4916    7.0994 H   0  0  0  0  0  0  0  0  0  0  0  0
   -1.5932   -2.4141    8.6094 H   0  0  0  0  0  0  0  0  0  0  0  0
   -4.1128   -4.5461    8.3558 H   0  0  0  0  0  0  0  0  0  0  0  0
   -3.2869   -3.9629    9.8006 H   0  0  0  0  0  0  0  0  0  0  0  0
   -4.2191   -6.2474   10.1623 H   0  0  0  0  0  0  0  0  0  0  0  0
   -3.2910   -6.8539    8.7856 H   0  0  0  0  0  0  0  0  0  0  0  0
   -2.4529   -6.2931   10.2365 H   0  0  0  0  0  0  0  0  0  0  0  0
    1.1358   -7.1240    7.4916 H   0  0  0  0  0  0  0  0  0  0  0  0
    1.9139   -9.2898    7.9669 H   0  0  0  0  0  0  0  0  0  0  0  0
  1  2  2  0  0  0  0
  2  3  1  0  0  0  0
  3  4  2  0  0  0  0
  3  5  1  0  0  0  0
  5  6  2  0  0  0  0
  6  7  1  0  0  0  0
  6  8  1  0  0  0  0
  8  9  1  0  0  0  0
  8 10  2  0  0  0  0
 10 11  1  0  0  0  0
 10 12  1  0  0  0  0
 12 13  1  0  0  0  0
 12 14  2  0  0  0  0
 14 15  1  0  0  0  0
 15 16  2  0  0  0  0
 16 17  1  0  0  0  0
 17 18  3  0  0  0  0
 16 19  1  0  0  0  0
 19 20  3  0  0  0  0
  1 21  1  0  0  0  0
 21 22  2  0  0  0  0
 22 23  1  0  0  0  0
 23 24  1  0  0  0  0
 24 25  2  0  0  0  0
 25 26  1  0  0  0  0
 26 27  2  0  0  0  0
 27 28  1  0  0  0  0
 27 29  1  0  0  0  0
 29 30  2  0  0  0  0
 23 31  1  0  0  0  0
 31 32  2  0  0  0  0
 32 33  1  0  0  0  0
 33 34  2  0  0  0  0
 34 35  1  0  0  0  0
 34 36  1  0  0  0  0
 36 37  2  0  0  0  0
 22 38  1  0  0  0  0
 38 39  1  0  0  0  0
 39 40  1  0  0  0  0
 40 41  2  0  0  0  0
 41 42  1  0  0  0  0
 42 43  1  0  0  0  0
 43 44  2  0  0  0  0
 44 45  1  0  0  0  0
 45 46  2  0  0  0  0
 46 47  1  0  0  0  0
 46 48  1  0  0  0  0
 48 49  2  0  0  0  0
 42 50  1  0  0  0  0
 50 51  2  0  0  0  0
 51 52  1  0  0  0  0
 52 53  2  0  0  0  0
 53 54  1  0  0  0  0
 53 55  1  0  0  0  0
 55 56  2  0  0  0  0
 41 57  1  0  0  0  0
 57 58  1  0  0  0  0
 40 59  1  0  0  0  0
 59 60  2  0  0  0  0
 60 61  1  0  0  0  0
 61 62  1  0  0  0  0
 62 63  2  0  0  0  0
 63 64  1  0  0  0  0
 64 65  2  0  0  0  0
 65 66  1  0  0  0  0
 66 67  1  0  0  0  0
 65 68  1  0  0  0  0
 68 69  2  0  0  0  0
 61 70  1  0  0  0  0
 70 71  2  0  0  0  0
 71 72  1  0  0  0  0
 72 73  2  0  0  0  0
 73 74  1  0  0  0  0
 74 75  1  0  0  0  0
 73 76  1  0  0  0  0
 76 77  2  0  0  0  0
 60 78  1  0  0  0  0
 78 79  1  0  0  0  0
 79 80  1  0  0  0  0
 80 81  2  0  0  0  0
 81 82  1  0  0  0  0
 82 83  1  0  0  0  0
 83 84  2  0  0  0  0
 84 85  1  0  0  0  0
 85 86  2  0  0  0  0
 86 87  1  0  0  0  0
 87 88  1  0  0  0  0
 86 89  1  0  0  0  0
 89 90  2  0  0  0  0
 82 91  1  0  0  0  0
 91 92  2  0  0  0  0
 92 93  1  0  0  0  0
 93 94  2  0  0  0  0
 94 95  1  0  0  0  0
 95 96  1  0  0  0  0
 94 97  1  0  0  0  0
 97 98  2  0  0  0  0
 81 99  1  0  0  0  0
 99100  1  0  0  0  0
 80101  1  0  0  0  0
101102  2  0  0  0  0
102103  1  0  0  0  0
103104  2  0  0  0  0
104105  1  0  0  0  0
105106  2  0  0  0  0
106107  1  0  0  0  0
107108  2  0  0  0  0
108109  1  0  0  0  0
109110  1  0  0  0  0
108111  1  0  0  0  0
104112  1  0  0  0  0
112113  2  0  0  0  0
113114  1  0  0  0  0
114115  1  0  0  0  0
115116  2  0  0  0  0
116117  1  0  0  0  0
117118  2  0  0  0  0
118119  1  0  0  0  0
119120  1  0  0  0  0
118121  1  0  0  0  0
114122  2  0  0  0  0
122123  1  0  0  0  0
113124  1  0  0  0  0
124125  2  0  0  0  0
125126  1  0  0  0  0
125127  1  0  0  0  0
127128  2  0  0  0  0
128129  1  0  0  0  0
129130  2  0  0  0  0
129131  1  0  0  0  0
131132  2  0  0  0  0
132133  1  0  0  0  0
132134  1  0  0  0  0
134135  1  0  0  0  0
134136  2  0  0  0  0
136137  1  0  0  0  0
136138  1  0  0  0  0
138139  1  0  0  0  0
138140  2  0  0  0  0
140141  1  0  0  0  0
141142  2  0  0  0  0
142143  1  0  0  0  0
143144  3  0  0  0  0
142145  1  0  0  0  0
145146  3  0  0  0  0
 15  2  1  0  0  0  0
 58 21  1  0  0  0  0
100 59  1  0  0  0  0
123101  1  0  0  0  0
141128  1  0  0  0  0
 14  5  1  0  0  0  0
 30 24  1  0  0  0  0
 37 31  1  0  0  0  0
 57 38  2  0  0  0  0
 69 62  1  0  0  0  0
 77 70  1  0  0  0  0
 99 78  2  0  0  0  0
122103  1  0  0  0  0
140131  1  0  0  0  0
 49 43  1  0  0  0  0
 56 50  1  0  0  0  0
 90 83  1  0  0  0  0
 98 91  1  0  0  0  0
111105  1  0  0  0  0
126112  1  0  0  0  0
121115  1  0  0  0  0
  1147  1  0  0  0  0
 25148  1  0  0  0  0
 26149  1  0  0  0  0
 28150  1  0  0  0  0
 28151  1  0  0  0  0
 28152  1  0  0  0  0
 29153  1  0  0  0  0
 30154  1  0  0  0  0
 32155  1  0  0  0  0
 33156  1  0  0  0  0
 35157  1  0  0  0  0
 35158  1  0  0  0  0
 35159  1  0  0  0  0
 36160  1  0  0  0  0
 37161  1  0  0  0  0
 44162  1  0  0  0  0
 45163  1  0  0  0  0
 47164  1  0  0  0  0
 47165  1  0  0  0  0
 47166  1  0  0  0  0
 48167  1  0  0  0  0
 49168  1  0  0  0  0
 51169  1  0  0  0  0
 52170  1  0  0  0  0
 54171  1  0  0  0  0
 54172  1  0  0  0  0
 54173  1  0  0  0  0
 55174  1  0  0  0  0
 56175  1  0  0  0  0
 63176  1  0  0  0  0
 64177  1  0  0  0  0
 67178  1  0  0  0  0
 67179  1  0  0  0  0
 67180  1  0  0  0  0
 68181  1  0  0  0  0
 69182  1  0  0  0  0
 71183  1  0  0  0  0
 72184  1  0  0  0  0
 75185  1  0  0  0  0
 75186  1  0  0  0  0
 75187  1  0  0  0  0
 76188  1  0  0  0  0
 77189  1  0  0  0  0
 84190  1  0  0  0  0
 85191  1  0  0  0  0
 88192  1  0  0  0  0
 88193  1  0  0  0  0
 88194  1  0  0  0  0
 89195  1  0  0  0  0
 90196  1  0  0  0  0
 92197  1  0  0  0  0
 93198  1  0  0  0  0
 96199  1  0  0  0  0
 96200  1  0  0  0  0
 96201  1  0  0  0  0
 97202  1  0  0  0  0
 98203  1  0  0  0  0
102204  1  0  0  0  0
106205  1  0  0  0  0
107206  1  0  0  0  0
109207  1  0  0  0  0
109208  1  0  0  0  0
110209  1  0  0  0  0
110210  1  0  0  0  0
110211  1  0  0  0  0
116212  1  0  0  0  0
117213  1  0  0  0  0
119214  1  0  0  0  0
119215  1  0  0  0  0
120216  1  0  0  0  0
120217  1  0  0  0  0
120218  1  0  0  0  0
124219  1  0  0  0  0
127220  1  0  0  0  0
M  END
