
  xtb     02112212363D
 energy: -426.078724727214 gnorm: 0.000210769309 xtb: 6.4.1 (unknown)
250272  0     0  0            999 V2000
    1.6121    9.7115    1.0032 C   0  0  0  0  0  0  0  0  0  0  0  0
    1.6652   10.8477    0.2129 C   0  0  0  0  0  0  0  0  0  0  0  0
    1.1870   10.9461   -1.1584 C   0  0  0  0  0  0  0  0  0  0  0  0
    0.5358   10.1338   -1.7900 O   0  0  0  0  0  0  0  0  0  0  0  0
    1.6661   12.2581   -1.6579 C   0  0  0  0  0  0  0  0  0  0  0  0
    1.4255   12.8546   -2.8801 C   0  0  0  0  0  0  0  0  0  0  0  0
    0.5690   12.0436   -4.1116 Cl  0  0  0  0  0  0  0  0  0  0  0  0
    1.8918   14.1600   -3.0880 C   0  0  0  0  0  0  0  0  0  0  0  0
    1.6495   14.9254   -4.5992 Cl  0  0  0  0  0  0  0  0  0  0  0  0
    2.5173   14.8459   -2.0506 C   0  0  0  0  0  0  0  0  0  0  0  0
    3.0054   16.4680   -2.2976 Cl  0  0  0  0  0  0  0  0  0  0  0  0
    2.7419   14.2405   -0.8029 C   0  0  0  0  0  0  0  0  0  0  0  0
    3.3732   15.2145    0.4610 Cl  0  0  0  0  0  0  0  0  0  0  0  0
    2.3730   12.9122   -0.6279 C   0  0  0  0  0  0  0  0  0  0  0  0
    2.4451   12.0154    0.5242 C   0  0  0  0  0  0  0  0  0  0  0  0
    3.2187   12.1903    1.6565 C   0  0  0  0  0  0  0  0  0  0  0  0
    4.4036   12.9433    1.7308 C   0  0  0  0  0  0  0  0  0  0  0  0
    5.4607   13.3796    1.8502 N   0  0  0  0  0  0  0  0  0  0  0  0
    3.0155   11.5125    2.8718 C   0  0  0  0  0  0  0  0  0  0  0  0
    2.8711   11.0695    3.9241 N   0  0  0  0  0  0  0  0  0  0  0  0
    1.0600    8.4646    0.7660 C   0  0  0  0  0  0  0  0  0  0  0  0
    1.2760    7.3517    1.6321 C   0  0  0  0  0  0  0  0  0  0  0  0
    2.2168    7.2796    2.6154 N   0  0  0  0  0  0  0  0  0  0  0  0
    3.4492    7.9617    2.5754 C   0  0  0  0  0  0  0  0  0  0  0  0
    4.1214    8.1730    1.3723 C   0  0  0  0  0  0  0  0  0  0  0  0
    5.3007    8.8873    1.3588 C   0  0  0  0  0  0  0  0  0  0  0  0
    5.8592    9.3832    2.5347 C   0  0  0  0  0  0  0  0  0  0  0  0
    7.1032   10.2117    2.4987 C   0  0  0  0  0  0  0  0  0  0  0  0
    5.2143    9.1092    3.7334 C   0  0  0  0  0  0  0  0  0  0  0  0
    4.0196    8.4147    3.7610 C   0  0  0  0  0  0  0  0  0  0  0  0
    2.0303    6.3489    3.6651 C   0  0  0  0  0  0  0  0  0  0  0  0
    2.9967    5.3808    3.9219 C   0  0  0  0  0  0  0  0  0  0  0  0
    2.8145    4.4837    4.9536 C   0  0  0  0  0  0  0  0  0  0  0  0
    1.6860    4.5472    5.7654 C   0  0  0  0  0  0  0  0  0  0  0  0
    1.5132    3.5708    6.8872 C   0  0  0  0  0  0  0  0  0  0  0  0
    0.7356    5.5267    5.5075 C   0  0  0  0  0  0  0  0  0  0  0  0
    0.8924    6.4138    4.4594 C   0  0  0  0  0  0  0  0  0  0  0  0
    0.4467    6.2807    1.2744 C   0  0  0  0  0  0  0  0  0  0  0  0
    0.2173    4.6829    1.9099 S   0  0  0  0  0  0  0  0  0  0  0  0
   -0.7876    4.2689    0.5232 C   0  0  0  0  0  0  0  0  0  0  0  0
   -1.0196    5.3606   -0.3111 C   0  0  0  0  0  0  0  0  0  0  0  0
   -1.8359    5.3258   -1.4242 N   0  0  0  0  0  0  0  0  0  0  0  0
   -3.1050    4.7363   -1.3645 C   0  0  0  0  0  0  0  0  0  0  0  0
   -3.8214    4.6970   -0.1710 C   0  0  0  0  0  0  0  0  0  0  0  0
   -5.0798    4.1318   -0.1388 C   0  0  0  0  0  0  0  0  0  0  0  0
   -5.6605    3.5886   -1.2776 C   0  0  0  0  0  0  0  0  0  0  0  0
   -7.0430    3.0158   -1.2314 C   0  0  0  0  0  0  0  0  0  0  0  0
   -4.9343    3.6240   -2.4618 C   0  0  0  0  0  0  0  0  0  0  0  0
   -3.6745    4.1848   -2.5113 C   0  0  0  0  0  0  0  0  0  0  0  0
   -1.4591    6.1054   -2.5347 C   0  0  0  0  0  0  0  0  0  0  0  0
   -0.1370    6.0810   -2.9701 C   0  0  0  0  0  0  0  0  0  0  0  0
    0.2604    6.8767   -4.0247 C   0  0  0  0  0  0  0  0  0  0  0  0
   -0.6445    7.7059   -4.6762 C   0  0  0  0  0  0  0  0  0  0  0  0
   -0.1929    8.5934   -5.7933 C   0  0  0  0  0  0  0  0  0  0  0  0
   -1.9655    7.7084   -4.2465 C   0  0  0  0  0  0  0  0  0  0  0  0
   -2.3748    6.9228   -3.1873 C   0  0  0  0  0  0  0  0  0  0  0  0
   -0.3006    6.4985    0.1202 C   0  0  0  0  0  0  0  0  0  0  0  0
   -0.0413    8.0663   -0.5594 S   0  0  0  0  0  0  0  0  0  0  0  0
   -1.0307    2.9009    0.2607 C   0  0  0  0  0  0  0  0  0  0  0  0
   -0.8116    1.8680    1.1668 C   0  0  0  0  0  0  0  0  0  0  0  0
   -0.7591    2.0617    2.5422 N   0  0  0  0  0  0  0  0  0  0  0  0
   -1.8379    2.6871    3.1782 C   0  0  0  0  0  0  0  0  0  0  0  0
   -3.1237    2.6116    2.6505 C   0  0  0  0  0  0  0  0  0  0  0  0
   -4.1823    3.2338    3.2837 C   0  0  0  0  0  0  0  0  0  0  0  0
   -3.9731    3.9570    4.4486 C   0  0  0  0  0  0  0  0  0  0  0  0
   -5.2496    4.7942    5.3380 S   0  0  0  0  0  0  0  0  0  0  0  0
   -6.6619    4.7624    4.1975 C   0  0  0  0  0  0  0  0  0  0  0  0
   -2.6873    4.0323    4.9808 C   0  0  0  0  0  0  0  0  0  0  0  0
   -1.6334    3.4057    4.3571 C   0  0  0  0  0  0  0  0  0  0  0  0
    0.2669    1.4627    3.2812 C   0  0  0  0  0  0  0  0  0  0  0  0
    0.0083    0.8382    4.4976 C   0  0  0  0  0  0  0  0  0  0  0  0
    1.0338    0.2829    5.2380 C   0  0  0  0  0  0  0  0  0  0  0  0
    2.3399    0.3450    4.7702 C   0  0  0  0  0  0  0  0  0  0  0  0
    3.7418   -0.2808    5.6436 S   0  0  0  0  0  0  0  0  0  0  0  0
    3.0220   -1.1489    7.0648 C   0  0  0  0  0  0  0  0  0  0  0  0
    2.5984    0.9545    3.5441 C   0  0  0  0  0  0  0  0  0  0  0  0
    1.5759    1.4984    2.8020 C   0  0  0  0  0  0  0  0  0  0  0  0
   -0.7370    0.6219    0.5158 C   0  0  0  0  0  0  0  0  0  0  0  0
   -0.4023   -0.9891    1.0251 S   0  0  0  0  0  0  0  0  0  0  0  0
   -0.5998   -1.5762   -0.6251 C   0  0  0  0  0  0  0  0  0  0  0  0
   -0.9335   -0.5683   -1.5019 C   0  0  0  0  0  0  0  0  0  0  0  0
   -1.3225   -0.7534   -2.8364 N   0  0  0  0  0  0  0  0  0  0  0  0
   -0.3682   -0.9881   -3.8363 C   0  0  0  0  0  0  0  0  0  0  0  0
   -0.6675   -1.8503   -4.8876 C   0  0  0  0  0  0  0  0  0  0  0  0
    0.2474   -2.0820   -5.8950 C   0  0  0  0  0  0  0  0  0  0  0  0
    1.4804   -1.4449   -5.8699 C   0  0  0  0  0  0  0  0  0  0  0  0
    2.7474   -1.6833   -7.0748 S   0  0  0  0  0  0  0  0  0  0  0  0
    2.0332   -2.8883   -8.2273 C   0  0  0  0  0  0  0  0  0  0  0  0
    1.7707   -0.5594   -4.8356 C   0  0  0  0  0  0  0  0  0  0  0  0
    0.8644   -0.3414   -3.8203 C   0  0  0  0  0  0  0  0  0  0  0  0
   -2.6206   -0.3639   -3.1748 C   0  0  0  0  0  0  0  0  0  0  0  0
   -2.9118    0.1768   -4.4254 C   0  0  0  0  0  0  0  0  0  0  0  0
   -4.2048    0.5184   -4.7676 C   0  0  0  0  0  0  0  0  0  0  0  0
   -5.2357    0.3423   -3.8569 C   0  0  0  0  0  0  0  0  0  0  0  0
   -6.9339    0.7068   -4.2011 S   0  0  0  0  0  0  0  0  0  0  0  0
   -6.9110    1.3853   -5.8839 C   0  0  0  0  0  0  0  0  0  0  0  0
   -4.9478   -0.1613   -2.5913 C   0  0  0  0  0  0  0  0  0  0  0  0
   -3.6603   -0.5135   -2.2539 C   0  0  0  0  0  0  0  0  0  0  0  0
   -0.9803    0.6870   -0.8478 C   0  0  0  0  0  0  0  0  0  0  0  0
   -1.2909    2.3054   -1.3750 S   0  0  0  0  0  0  0  0  0  0  0  0
   -0.5126   -3.0011   -0.8271 C   0  0  0  0  0  0  0  0  0  0  0  0
    0.4572   -3.7617   -1.4484 C   0  0  0  0  0  0  0  0  0  0  0  0
    1.6060   -3.2850   -2.0635 N   0  0  0  0  0  0  0  0  0  0  0  0
    2.0608   -3.9736   -3.1975 C   0  0  0  0  0  0  0  0  0  0  0  0
    3.4170   -4.1951   -3.4307 C   0  0  0  0  0  0  0  0  0  0  0  0
    3.8260   -4.8746   -4.5581 C   0  0  0  0  0  0  0  0  0  0  0  0
    2.9079   -5.3765   -5.4748 C   0  0  0  0  0  0  0  0  0  0  0  0
    3.3814   -6.1205   -6.6865 C   0  0  0  0  0  0  0  0  0  0  0  0
    1.5586   -5.1765   -5.2232 C   0  0  0  0  0  0  0  0  0  0  0  0
    1.1358   -4.4808   -4.1068 C   0  0  0  0  0  0  0  0  0  0  0  0
    2.4040   -2.3351   -1.4060 C   0  0  0  0  0  0  0  0  0  0  0  0
    2.3877   -2.2183   -0.0177 C   0  0  0  0  0  0  0  0  0  0  0  0
    3.1671   -1.2694    0.6149 C   0  0  0  0  0  0  0  0  0  0  0  0
    3.9996   -0.4241   -0.1081 C   0  0  0  0  0  0  0  0  0  0  0  0
    4.8468    0.6031    0.5788 C   0  0  0  0  0  0  0  0  0  0  0  0
    4.0314   -0.5644   -1.4897 C   0  0  0  0  0  0  0  0  0  0  0  0
    3.2503   -1.5024   -2.1332 C   0  0  0  0  0  0  0  0  0  0  0  0
    0.1923   -5.1459   -1.2831 C   0  0  0  0  0  0  0  0  0  0  0  0
    1.0076   -6.5635   -1.8073 S   0  0  0  0  0  0  0  0  0  0  0  0
   -0.0611   -7.5712   -0.8211 C   0  0  0  0  0  0  0  0  0  0  0  0
   -1.0863   -6.8147   -0.2127 C   0  0  0  0  0  0  0  0  0  0  0  0
   -2.1497   -7.2998    0.5009 N   0  0  0  0  0  0  0  0  0  0  0  0
   -2.8609   -6.4182    1.3583 C   0  0  0  0  0  0  0  0  0  0  0  0
   -2.1998   -5.7061    2.3543 C   0  0  0  0  0  0  0  0  0  0  0  0
   -2.9122   -4.8725    3.1927 C   0  0  0  0  0  0  0  0  0  0  0  0
   -4.2889   -4.7272    3.0625 C   0  0  0  0  0  0  0  0  0  0  0  0
   -5.0403   -3.8178    3.9838 C   0  0  0  0  0  0  0  0  0  0  0  0
   -4.9381   -5.4435    2.0651 C   0  0  0  0  0  0  0  0  0  0  0  0
   -4.2372   -6.2811    1.2192 C   0  0  0  0  0  0  0  0  0  0  0  0
   -2.7220   -8.5649    0.2914 C   0  0  0  0  0  0  0  0  0  0  0  0
   -3.3496   -9.2114    1.3567 C   0  0  0  0  0  0  0  0  0  0  0  0
   -3.9055  -10.4626    1.1850 C   0  0  0  0  0  0  0  0  0  0  0  0
   -3.8418  -11.1143   -0.0406 C   0  0  0  0  0  0  0  0  0  0  0  0
   -4.4099  -12.4875   -0.2137 C   0  0  0  0  0  0  0  0  0  0  0  0
   -3.2511  -10.4474   -1.1082 C   0  0  0  0  0  0  0  0  0  0  0  0
   -2.7068   -9.1881   -0.9540 C   0  0  0  0  0  0  0  0  0  0  0  0
   -0.9033   -5.4374   -0.4847 C   0  0  0  0  0  0  0  0  0  0  0  0
   -1.7061   -3.9865    0.0115 S   0  0  0  0  0  0  0  0  0  0  0  0
    0.2709   -8.9294   -0.7836 C   0  0  0  0  0  0  0  0  0  0  0  0
   -0.0579   -9.9061    0.1278 C   0  0  0  0  0  0  0  0  0  0  0  0
   -0.0643  -11.3231   -0.2906 C   0  0  0  0  0  0  0  0  0  0  0  0
    0.3190  -11.7814   -1.3451 O   0  0  0  0  0  0  0  0  0  0  0  0
   -0.7049  -12.0547    0.8258 C   0  0  0  0  0  0  0  0  0  0  0  0
   -1.0385  -13.3739    0.9081 C   0  0  0  0  0  0  0  0  0  0  0  0
   -1.6615  -13.8529    2.0833 C   0  0  0  0  0  0  0  0  0  0  0  0
   -2.0406  -15.2025    2.2145 C   0  0  0  0  0  0  0  0  0  0  0  0
   -2.6404  -15.6416    3.3617 C   0  0  0  0  0  0  0  0  0  0  0  0
   -3.0026  -16.9279    3.4829 F   0  0  0  0  0  0  0  0  0  0  0  0
   -2.8860  -14.7522    4.4255 C   0  0  0  0  0  0  0  0  0  0  0  0
   -3.4768  -15.2090    5.5398 F   0  0  0  0  0  0  0  0  0  0  0  0
   -2.5297  -13.4363    4.3275 C   0  0  0  0  0  0  0  0  0  0  0  0
   -1.9099  -12.9522    3.1584 C   0  0  0  0  0  0  0  0  0  0  0  0
   -1.5418  -11.5917    3.0469 C   0  0  0  0  0  0  0  0  0  0  0  0
   -0.9601  -11.1480    1.8915 C   0  0  0  0  0  0  0  0  0  0  0  0
   -0.4860   -9.8248    1.4928 C   0  0  0  0  0  0  0  0  0  0  0  0
   -0.2745   -8.7604    2.3436 C   0  0  0  0  0  0  0  0  0  0  0  0
   -0.7662   -8.6932    3.6579 C   0  0  0  0  0  0  0  0  0  0  0  0
   -1.1915   -8.5608    4.7175 N   0  0  0  0  0  0  0  0  0  0  0  0
    0.5178   -7.6533    2.0032 C   0  0  0  0  0  0  0  0  0  0  0  0
    1.1919   -6.7474    1.7856 N   0  0  0  0  0  0  0  0  0  0  0  0
    2.1170    9.7907    1.9567 H   0  0  0  0  0  0  0  0  0  0  0  0
    3.7080    7.7899    0.4509 H   0  0  0  0  0  0  0  0  0  0  0  0
    5.8029    9.0612    0.4181 H   0  0  0  0  0  0  0  0  0  0  0  0
    7.6433   10.1446    3.4396 H   0  0  0  0  0  0  0  0  0  0  0  0
    6.8409   11.2588    2.3353 H   0  0  0  0  0  0  0  0  0  0  0  0
    7.7572    9.9002    1.6874 H   0  0  0  0  0  0  0  0  0  0  0  0
    5.6346    9.4696    4.6598 H   0  0  0  0  0  0  0  0  0  0  0  0
    3.5143    8.2392    4.6979 H   0  0  0  0  0  0  0  0  0  0  0  0
    3.8813    5.3370    3.3042 H   0  0  0  0  0  0  0  0  0  0  0  0
    3.5570    3.7213    5.1372 H   0  0  0  0  0  0  0  0  0  0  0  0
    2.3496    3.6402    7.5812 H   0  0  0  0  0  0  0  0  0  0  0  0
    0.5912    3.7579    7.4320 H   0  0  0  0  0  0  0  0  0  0  0  0
    1.4889    2.5543    6.4955 H   0  0  0  0  0  0  0  0  0  0  0  0
   -0.1385    5.6051    6.1368 H   0  0  0  0  0  0  0  0  0  0  0  0
    0.1468    7.1700    4.2634 H   0  0  0  0  0  0  0  0  0  0  0  0
   -3.3963    5.1206    0.7278 H   0  0  0  0  0  0  0  0  0  0  0  0
   -5.6320    4.1270    0.7895 H   0  0  0  0  0  0  0  0  0  0  0  0
   -7.2566    2.5937   -0.2518 H   0  0  0  0  0  0  0  0  0  0  0  0
   -7.7769    3.7988   -1.4265 H   0  0  0  0  0  0  0  0  0  0  0  0
   -7.1694    2.2434   -1.9853 H   0  0  0  0  0  0  0  0  0  0  0  0
   -5.3619    3.2019   -3.3581 H   0  0  0  0  0  0  0  0  0  0  0  0
   -3.1183    4.2000   -3.4367 H   0  0  0  0  0  0  0  0  0  0  0  0
    0.5728    5.4350   -2.4730 H   0  0  0  0  0  0  0  0  0  0  0  0
    1.2910    6.8557   -4.3479 H   0  0  0  0  0  0  0  0  0  0  0  0
    0.2701    9.4892   -5.3803 H   0  0  0  0  0  0  0  0  0  0  0  0
   -1.0310    8.9002   -6.4143 H   0  0  0  0  0  0  0  0  0  0  0  0
    0.5456    8.0916   -6.4153 H   0  0  0  0  0  0  0  0  0  0  0  0
   -2.6840    8.3483   -4.7379 H   0  0  0  0  0  0  0  0  0  0  0  0
   -3.4013    6.9484   -2.8521 H   0  0  0  0  0  0  0  0  0  0  0  0
   -3.3053    2.0556    1.7423 H   0  0  0  0  0  0  0  0  0  0  0  0
   -5.1689    3.1308    2.8630 H   0  0  0  0  0  0  0  0  0  0  0  0
   -6.3705    5.1898    3.2425 H   0  0  0  0  0  0  0  0  0  0  0  0
   -7.4256    5.3798    4.6603 H   0  0  0  0  0  0  0  0  0  0  0  0
   -7.0321    3.7476    4.0826 H   0  0  0  0  0  0  0  0  0  0  0  0
   -2.5309    4.5949    5.8883 H   0  0  0  0  0  0  0  0  0  0  0  0
   -0.6375    3.4780    4.7631 H   0  0  0  0  0  0  0  0  0  0  0  0
   -1.0048    0.7893    4.8679 H   0  0  0  0  0  0  0  0  0  0  0  0
    0.7984   -0.1953    6.1754 H   0  0  0  0  0  0  0  0  0  0  0  0
    2.5242   -0.4433    7.7241 H   0  0  0  0  0  0  0  0  0  0  0  0
    2.3390   -1.9187    6.7182 H   0  0  0  0  0  0  0  0  0  0  0  0
    3.8599   -1.6056    7.5824 H   0  0  0  0  0  0  0  0  0  0  0  0
    3.6166    1.0048    3.1933 H   0  0  0  0  0  0  0  0  0  0  0  0
    1.7801    1.9730    1.8541 H   0  0  0  0  0  0  0  0  0  0  0  0
   -1.6305   -2.3395   -4.9116 H   0  0  0  0  0  0  0  0  0  0  0  0
   -0.0126   -2.7623   -6.6892 H   0  0  0  0  0  0  0  0  0  0  0  0
    1.7979   -3.8043   -7.6948 H   0  0  0  0  0  0  0  0  0  0  0  0
    1.1553   -2.4677   -8.7093 H   0  0  0  0  0  0  0  0  0  0  0  0
    2.8038   -3.0766   -8.9684 H   0  0  0  0  0  0  0  0  0  0  0  0
    2.7140   -0.0345   -4.8466 H   0  0  0  0  0  0  0  0  0  0  0  0
    1.1023    0.3398   -3.0171 H   0  0  0  0  0  0  0  0  0  0  0  0
   -2.1177    0.3338   -5.1395 H   0  0  0  0  0  0  0  0  0  0  0  0
   -4.3880    0.9274   -5.7483 H   0  0  0  0  0  0  0  0  0  0  0  0
   -6.5528    0.6351   -6.5831 H   0  0  0  0  0  0  0  0  0  0  0  0
   -7.9427    1.6365   -6.1100 H   0  0  0  0  0  0  0  0  0  0  0  0
   -6.2979    2.2814   -5.9178 H   0  0  0  0  0  0  0  0  0  0  0  0
   -5.7492   -0.2875   -1.8796 H   0  0  0  0  0  0  0  0  0  0  0  0
   -3.4563   -0.9223   -1.2754 H   0  0  0  0  0  0  0  0  0  0  0  0
    4.1479   -3.8449   -2.7180 H   0  0  0  0  0  0  0  0  0  0  0  0
    4.8812   -5.0332   -4.7264 H   0  0  0  0  0  0  0  0  0  0  0  0
    4.0414   -5.4932   -7.2847 H   0  0  0  0  0  0  0  0  0  0  0  0
    2.5451   -6.4394   -7.3045 H   0  0  0  0  0  0  0  0  0  0  0  0
    3.9453   -7.0038   -6.3892 H   0  0  0  0  0  0  0  0  0  0  0  0
    0.8196   -5.5704   -5.9078 H   0  0  0  0  0  0  0  0  0  0  0  0
    0.0810   -4.3248   -3.9361 H   0  0  0  0  0  0  0  0  0  0  0  0
    1.7835   -2.8895    0.5744 H   0  0  0  0  0  0  0  0  0  0  0  0
    3.1343   -1.1965    1.6922 H   0  0  0  0  0  0  0  0  0  0  0  0
    5.6786    0.9033   -0.0542 H   0  0  0  0  0  0  0  0  0  0  0  0
    4.2558    1.4917    0.8039 H   0  0  0  0  0  0  0  0  0  0  0  0
    5.2420    0.2118    1.5140 H   0  0  0  0  0  0  0  0  0  0  0  0
    4.6819    0.0688   -2.0762 H   0  0  0  0  0  0  0  0  0  0  0  0
    3.2997   -1.6022   -3.2047 H   0  0  0  0  0  0  0  0  0  0  0  0
   -1.1320   -5.8043    2.4710 H   0  0  0  0  0  0  0  0  0  0  0  0
   -2.3887   -4.3279    3.9639 H   0  0  0  0  0  0  0  0  0  0  0  0
   -4.6495   -2.8037    3.9135 H   0  0  0  0  0  0  0  0  0  0  0  0
   -6.0993   -3.8021    3.7405 H   0  0  0  0  0  0  0  0  0  0  0  0
   -4.9244   -4.1471    5.0155 H   0  0  0  0  0  0  0  0  0  0  0  0
   -6.0067   -5.3443    1.9427 H   0  0  0  0  0  0  0  0  0  0  0  0
   -4.7526   -6.8316    0.4457 H   0  0  0  0  0  0  0  0  0  0  0  0
   -3.3848   -8.7333    2.3248 H   0  0  0  0  0  0  0  0  0  0  0  0
   -4.3774  -10.9504    2.0251 H   0  0  0  0  0  0  0  0  0  0  0  0
   -5.4282  -12.4267   -0.5990 H   0  0  0  0  0  0  0  0  0  0  0  0
   -3.8168  -13.0607   -0.9222 H   0  0  0  0  0  0  0  0  0  0  0  0
   -4.4376  -13.0170    0.7360 H   0  0  0  0  0  0  0  0  0  0  0  0
   -3.2118  -10.9222   -2.0771 H   0  0  0  0  0  0  0  0  0  0  0  0
   -2.2692   -8.6859   -1.8033 H   0  0  0  0  0  0  0  0  0  0  0  0
    0.8506   -9.2839   -1.6314 H   0  0  0  0  0  0  0  0  0  0  0  0
   -0.8298  -14.0462    0.0899 H   0  0  0  0  0  0  0  0  0  0  0  0
   -1.8577  -15.8970    1.4095 H   0  0  0  0  0  0  0  0  0  0  0  0
   -2.7225  -12.7686    5.1527 H   0  0  0  0  0  0  0  0  0  0  0  0
   -1.7447  -10.9296    3.8736 H   0  0  0  0  0  0  0  0  0  0  0  0
  1  2  2  0  0  0  0
  2  3  1  0  0  0  0
  3  4  2  0  0  0  0
  3  5  1  0  0  0  0
  5  6  2  0  0  0  0
  6  7  1  0  0  0  0
  6  8  1  0  0  0  0
  8  9  1  0  0  0  0
  8 10  2  0  0  0  0
 10 11  1  0  0  0  0
 10 12  1  0  0  0  0
 12 13  1  0  0  0  0
 12 14  2  0  0  0  0
 14 15  1  0  0  0  0
 15 16  2  0  0  0  0
 16 17  1  0  0  0  0
 17 18  3  0  0  0  0
 16 19  1  0  0  0  0
 19 20  3  0  0  0  0
  1 21  1  0  0  0  0
 21 22  2  0  0  0  0
 22 23  1  0  0  0  0
 23 24  1  0  0  0  0
 24 25  2  0  0  0  0
 25 26  1  0  0  0  0
 26 27  2  0  0  0  0
 27 28  1  0  0  0  0
 27 29  1  0  0  0  0
 29 30  2  0  0  0  0
 23 31  1  0  0  0  0
 31 32  2  0  0  0  0
 32 33  1  0  0  0  0
 33 34  2  0  0  0  0
 34 35  1  0  0  0  0
 34 36  1  0  0  0  0
 36 37  2  0  0  0  0
 22 38  1  0  0  0  0
 38 39  1  0  0  0  0
 39 40  1  0  0  0  0
 40 41  2  0  0  0  0
 41 42  1  0  0  0  0
 42 43  1  0  0  0  0
 43 44  2  0  0  0  0
 44 45  1  0  0  0  0
 45 46  2  0  0  0  0
 46 47  1  0  0  0  0
 46 48  1  0  0  0  0
 48 49  2  0  0  0  0
 42 50  1  0  0  0  0
 50 51  2  0  0  0  0
 51 52  1  0  0  0  0
 52 53  2  0  0  0  0
 53 54  1  0  0  0  0
 53 55  1  0  0  0  0
 55 56  2  0  0  0  0
 41 57  1  0  0  0  0
 57 58  1  0  0  0  0
 40 59  1  0  0  0  0
 59 60  2  0  0  0  0
 60 61  1  0  0  0  0
 61 62  1  0  0  0  0
 62 63  2  0  0  0  0
 63 64  1  0  0  0  0
 64 65  2  0  0  0  0
 65 66  1  0  0  0  0
 66 67  1  0  0  0  0
 65 68  1  0  0  0  0
 68 69  2  0  0  0  0
 61 70  1  0  0  0  0
 70 71  2  0  0  0  0
 71 72  1  0  0  0  0
 72 73  2  0  0  0  0
 73 74  1  0  0  0  0
 74 75  1  0  0  0  0
 73 76  1  0  0  0  0
 76 77  2  0  0  0  0
 60 78  1  0  0  0  0
 78 79  1  0  0  0  0
 79 80  1  0  0  0  0
 80 81  2  0  0  0  0
 81 82  1  0  0  0  0
 82 83  1  0  0  0  0
 83 84  2  0  0  0  0
 84 85  1  0  0  0  0
 85 86  2  0  0  0  0
 86 87  1  0  0  0  0
 87 88  1  0  0  0  0
 86 89  1  0  0  0  0
 89 90  2  0  0  0  0
 82 91  1  0  0  0  0
 91 92  2  0  0  0  0
 92 93  1  0  0  0  0
 93 94  2  0  0  0  0
 94 95  1  0  0  0  0
 95 96  1  0  0  0  0
 94 97  1  0  0  0  0
 97 98  2  0  0  0  0
 81 99  1  0  0  0  0
 99100  1  0  0  0  0
 80101  1  0  0  0  0
101102  2  0  0  0  0
102103  1  0  0  0  0
103104  1  0  0  0  0
104105  2  0  0  0  0
105106  1  0  0  0  0
106107  2  0  0  0  0
107108  1  0  0  0  0
107109  1  0  0  0  0
109110  2  0  0  0  0
103111  1  0  0  0  0
111112  2  0  0  0  0
112113  1  0  0  0  0
113114  2  0  0  0  0
114115  1  0  0  0  0
114116  1  0  0  0  0
116117  2  0  0  0  0
102118  1  0  0  0  0
118119  1  0  0  0  0
119120  1  0  0  0  0
120121  2  0  0  0  0
121122  1  0  0  0  0
122123  1  0  0  0  0
123124  2  0  0  0  0
124125  1  0  0  0  0
125126  2  0  0  0  0
126127  1  0  0  0  0
126128  1  0  0  0  0
128129  2  0  0  0  0
122130  1  0  0  0  0
130131  2  0  0  0  0
131132  1  0  0  0  0
132133  2  0  0  0  0
133134  1  0  0  0  0
133135  1  0  0  0  0
135136  2  0  0  0  0
121137  1  0  0  0  0
137138  1  0  0  0  0
120139  1  0  0  0  0
139140  2  0  0  0  0
140141  1  0  0  0  0
141142  2  0  0  0  0
141143  1  0  0  0  0
143144  2  0  0  0  0
144145  1  0  0  0  0
145146  2  0  0  0  0
146147  1  0  0  0  0
147148  1  0  0  0  0
147149  2  0  0  0  0
149150  1  0  0  0  0
149151  1  0  0  0  0
151152  2  0  0  0  0
152153  1  0  0  0  0
153154  2  0  0  0  0
154155  1  0  0  0  0
155156  2  0  0  0  0
156157  1  0  0  0  0
157158  3  0  0  0  0
156159  1  0  0  0  0
159160  3  0  0  0  0
 15  2  1  0  0  0  0
 58 21  1  0  0  0  0
100 59  1  0  0  0  0
138101  1  0  0  0  0
155140  1  0  0  0  0
 14  5  1  0  0  0  0
 30 24  1  0  0  0  0
 37 31  1  0  0  0  0
 57 38  2  0  0  0  0
 69 62  1  0  0  0  0
 77 70  1  0  0  0  0
 99 78  2  0  0  0  0
110104  1  0  0  0  0
117111  1  0  0  0  0
137118  2  0  0  0  0
154143  1  0  0  0  0
 49 43  1  0  0  0  0
 56 50  1  0  0  0  0
 90 83  1  0  0  0  0
 98 91  1  0  0  0  0
129123  1  0  0  0  0
136130  1  0  0  0  0
152145  1  0  0  0  0
  1161  1  0  0  0  0
 25162  1  0  0  0  0
 26163  1  0  0  0  0
 28164  1  0  0  0  0
 28165  1  0  0  0  0
 28166  1  0  0  0  0
 29167  1  0  0  0  0
 30168  1  0  0  0  0
 32169  1  0  0  0  0
 33170  1  0  0  0  0
 35171  1  0  0  0  0
 35172  1  0  0  0  0
 35173  1  0  0  0  0
 36174  1  0  0  0  0
 37175  1  0  0  0  0
 44176  1  0  0  0  0
 45177  1  0  0  0  0
 47178  1  0  0  0  0
 47179  1  0  0  0  0
 47180  1  0  0  0  0
 48181  1  0  0  0  0
 49182  1  0  0  0  0
 51183  1  0  0  0  0
 52184  1  0  0  0  0
 54185  1  0  0  0  0
 54186  1  0  0  0  0
 54187  1  0  0  0  0
 55188  1  0  0  0  0
 56189  1  0  0  0  0
 63190  1  0  0  0  0
 64191  1  0  0  0  0
 67192  1  0  0  0  0
 67193  1  0  0  0  0
 67194  1  0  0  0  0
 68195  1  0  0  0  0
 69196  1  0  0  0  0
 71197  1  0  0  0  0
 72198  1  0  0  0  0
 75199  1  0  0  0  0
 75200  1  0  0  0  0
 75201  1  0  0  0  0
 76202  1  0  0  0  0
 77203  1  0  0  0  0
 84204  1  0  0  0  0
 85205  1  0  0  0  0
 88206  1  0  0  0  0
 88207  1  0  0  0  0
 88208  1  0  0  0  0
 89209  1  0  0  0  0
 90210  1  0  0  0  0
 92211  1  0  0  0  0
 93212  1  0  0  0  0
 96213  1  0  0  0  0
 96214  1  0  0  0  0
 96215  1  0  0  0  0
 97216  1  0  0  0  0
 98217  1  0  0  0  0
105218  1  0  0  0  0
106219  1  0  0  0  0
108220  1  0  0  0  0
108221  1  0  0  0  0
108222  1  0  0  0  0
109223  1  0  0  0  0
110224  1  0  0  0  0
112225  1  0  0  0  0
113226  1  0  0  0  0
115227  1  0  0  0  0
115228  1  0  0  0  0
115229  1  0  0  0  0
116230  1  0  0  0  0
117231  1  0  0  0  0
124232  1  0  0  0  0
125233  1  0  0  0  0
127234  1  0  0  0  0
127235  1  0  0  0  0
127236  1  0  0  0  0
128237  1  0  0  0  0
129238  1  0  0  0  0
131239  1  0  0  0  0
132240  1  0  0  0  0
134241  1  0  0  0  0
134242  1  0  0  0  0
134243  1  0  0  0  0
135244  1  0  0  0  0
136245  1  0  0  0  0
139246  1  0  0  0  0
144247  1  0  0  0  0
146248  1  0  0  0  0
151249  1  0  0  0  0
153250  1  0  0  0  0
M  END
