250

C          1.61210        9.71150        1.00320
C          1.66520       10.84770        0.21290
C          1.18700       10.94610       -1.15840
O          0.53580       10.13380       -1.79000
C          1.66610       12.25810       -1.65790
C          1.42550       12.85460       -2.88010
Cl         0.56900       12.04360       -4.11160
C          1.89180       14.16000       -3.08800
Cl         1.64950       14.92540       -4.59920
C          2.51730       14.84590       -2.05060
Cl         3.00540       16.46800       -2.29760
C          2.74190       14.24050       -0.80290
Cl         3.37320       15.21450        0.46100
C          2.37300       12.91220       -0.62790
C          2.44510       12.01540        0.52420
C          3.21870       12.19030        1.65650
C          4.40360       12.94330        1.73080
N          5.46070       13.37960        1.85020
C          3.01550       11.51250        2.87180
N          2.87110       11.06950        3.92410
C          1.06000        8.46460        0.76600
C          1.27600        7.35170        1.63210
N          2.21680        7.27960        2.61540
C          3.44920        7.96170        2.57540
C          4.12140        8.17300        1.37230
C          5.30070        8.88730        1.35880
C          5.85920        9.38320        2.53470
C          7.10320       10.21170        2.49870
C          5.21430        9.10920        3.73340
C          4.01960        8.41470        3.76100
C          2.03030        6.34890        3.66510
C          2.99670        5.38080        3.92190
C          2.81450        4.48370        4.95360
C          1.68600        4.54720        5.76540
C          1.51320        3.57080        6.88720
C          0.73560        5.52670        5.50750
C          0.89240        6.41380        4.45940
C          0.44670        6.28070        1.27440
S          0.21730        4.68290        1.90990
C         -0.78760        4.26890        0.52320
C         -1.01960        5.36060       -0.31110
N         -1.83590        5.32580       -1.42420
C         -3.10500        4.73630       -1.36450
C         -3.82140        4.69700       -0.17100
C         -5.07980        4.13180       -0.13880
C         -5.66050        3.58860       -1.27760
C         -7.04300        3.01580       -1.23140
C         -4.93430        3.62400       -2.46180
C         -3.67450        4.18480       -2.51130
C         -1.45910        6.10540       -2.53470
C         -0.13700        6.08100       -2.97010
C          0.26040        6.87670       -4.02470
C         -0.64450        7.70590       -4.67620
C         -0.19290        8.59340       -5.79330
C         -1.96550        7.70840       -4.24650
C         -2.37480        6.92280       -3.18730
C         -0.30060        6.49850        0.12020
S         -0.04130        8.06630       -0.55940
C         -1.03070        2.90090        0.26070
C         -0.81160        1.86800        1.16680
N         -0.75910        2.06170        2.54220
C         -1.83790        2.68710        3.17820
C         -3.12370        2.61160        2.65050
C         -4.18230        3.23380        3.28370
C         -3.97310        3.95700        4.44860
S         -5.24960        4.79420        5.33800
C         -6.66190        4.76240        4.19750
C         -2.68730        4.03230        4.98080
C         -1.63340        3.40570        4.35710
C          0.26690        1.46270        3.28120
C          0.00830        0.83820        4.49760
C          1.03380        0.28290        5.23800
C          2.33990        0.34500        4.77020
S          3.74180       -0.28080        5.64360
C          3.02200       -1.14890        7.06480
C          2.59840        0.95450        3.54410
C          1.57590        1.49840        2.80200
C         -0.73700        0.62190        0.51580
S         -0.40230       -0.98910        1.02510
C         -0.59980       -1.57620       -0.62510
C         -0.93350       -0.56830       -1.50190
N         -1.32250       -0.75340       -2.83640
C         -0.36820       -0.98810       -3.83630
C         -0.66750       -1.85030       -4.88760
C          0.24740       -2.08200       -5.89500
C          1.48040       -1.44490       -5.86990
S          2.74740       -1.68330       -7.07480
C          2.03320       -2.88830       -8.22730
C          1.77070       -0.55940       -4.83560
C          0.86440       -0.34140       -3.82030
C         -2.62060       -0.36390       -3.17480
C         -2.91180        0.17680       -4.42540
C         -4.20480        0.51840       -4.76760
C         -5.23570        0.34230       -3.85690
S         -6.93390        0.70680       -4.20110
C         -6.91100        1.38530       -5.88390
C         -4.94780       -0.16130       -2.59130
C         -3.66030       -0.51350       -2.25390
C         -0.98030        0.68700       -0.84780
S         -1.29090        2.30540       -1.37500
C         -0.51260       -3.00110       -0.82710
C          0.45720       -3.76170       -1.44840
N          1.60600       -3.28500       -2.06350
C          2.06080       -3.97360       -3.19750
C          3.41700       -4.19510       -3.43070
C          3.82600       -4.87460       -4.55810
C          2.90790       -5.37650       -5.47480
C          3.38140       -6.12050       -6.68650
C          1.55860       -5.17650       -5.22320
C          1.13580       -4.48080       -4.10680
C          2.40400       -2.33510       -1.40600
C          2.38770       -2.21830       -0.01770
C          3.16710       -1.26940        0.61490
C          3.99960       -0.42410       -0.10810
C          4.84680        0.60310        0.57880
C          4.03140       -0.56440       -1.48970
C          3.25030       -1.50240       -2.13320
C          0.19230       -5.14590       -1.28310
S          1.00760       -6.56350       -1.80730
C         -0.06110       -7.57120       -0.82110
C         -1.08630       -6.81470       -0.21270
N         -2.14970       -7.29980        0.50090
C         -2.86090       -6.41820        1.35830
C         -2.19980       -5.70610        2.35430
C         -2.91220       -4.87250        3.19270
C         -4.28890       -4.72720        3.06250
C         -5.04030       -3.81780        3.98380
C         -4.93810       -5.44350        2.06510
C         -4.23720       -6.28110        1.21920
C         -2.72200       -8.56490        0.29140
C         -3.34960       -9.21140        1.35670
C         -3.90550      -10.46260        1.18500
C         -3.84180      -11.11430       -0.04060
C         -4.40990      -12.48750       -0.21370
C         -3.25110      -10.44740       -1.10820
C         -2.70680       -9.18810       -0.95400
C         -0.90330       -5.43740       -0.48470
S         -1.70610       -3.98650        0.01150
C          0.27090       -8.92940       -0.78360
C         -0.05790       -9.90610        0.12780
C         -0.06430      -11.32310       -0.29060
O          0.31900      -11.78140       -1.34510
C         -0.70490      -12.05470        0.82580
C         -1.03850      -13.37390        0.90810
C         -1.66150      -13.85290        2.08330
C         -2.04060      -15.20250        2.21450
C         -2.64040      -15.64160        3.36170
F         -3.00260      -16.92790        3.48290
C         -2.88600      -14.75220        4.42550
F         -3.47680      -15.20900        5.53980
C         -2.52970      -13.43630        4.32750
C         -1.90990      -12.95220        3.15840
C         -1.54180      -11.59170        3.04690
C         -0.96010      -11.14800        1.89150
C         -0.48600       -9.82480        1.49280
C         -0.27450       -8.76040        2.34360
C         -0.76620       -8.69320        3.65790
N         -1.19150       -8.56080        4.71750
C          0.51780       -7.65330        2.00320
N          1.19190       -6.74740        1.78560
H          2.11700        9.79070        1.95670
H          3.70800        7.78990        0.45090
H          5.80290        9.06120        0.41810
H          7.64330       10.14460        3.43960
H          6.84090       11.25880        2.33530
H          7.75720        9.90020        1.68740
H          5.63460        9.46960        4.65980
H          3.51430        8.23920        4.69790
H          3.88130        5.33700        3.30420
H          3.55700        3.72130        5.13720
H          2.34960        3.64020        7.58120
H          0.59120        3.75790        7.43200
H          1.48890        2.55430        6.49550
H         -0.13850        5.60510        6.13680
H          0.14680        7.17000        4.26340
H         -3.39630        5.12060        0.72780
H         -5.63200        4.12700        0.78950
H         -7.25660        2.59370       -0.25180
H         -7.77690        3.79880       -1.42650
H         -7.16940        2.24340       -1.98530
H         -5.36190        3.20190       -3.35810
H         -3.11830        4.20000       -3.43670
H          0.57280        5.43500       -2.47300
H          1.29100        6.85570       -4.34790
H          0.27010        9.48920       -5.38030
H         -1.03100        8.90020       -6.41430
H          0.54560        8.09160       -6.41530
H         -2.68400        8.34830       -4.73790
H         -3.40130        6.94840       -2.85210
H         -3.30530        2.05560        1.74230
H         -5.16890        3.13080        2.86300
H         -6.37050        5.18980        3.24250
H         -7.42560        5.37980        4.66030
H         -7.03210        3.74760        4.08260
H         -2.53090        4.59490        5.88830
H         -0.63750        3.47800        4.76310
H         -1.00480        0.78930        4.86790
H          0.79840       -0.19530        6.17540
H          2.52420       -0.44330        7.72410
H          2.33900       -1.91870        6.71820
H          3.85990       -1.60560        7.58240
H          3.61660        1.00480        3.19330
H          1.78010        1.97300        1.85410
H         -1.63050       -2.33950       -4.91160
H         -0.01260       -2.76230       -6.68920
H          1.79790       -3.80430       -7.69480
H          1.15530       -2.46770       -8.70930
H          2.80380       -3.07660       -8.96840
H          2.71400       -0.03450       -4.84660
H          1.10230        0.33980       -3.01710
H         -2.11770        0.33380       -5.13950
H         -4.38800        0.92740       -5.74830
H         -6.55280        0.63510       -6.58310
H         -7.94270        1.63650       -6.11000
H         -6.29790        2.28140       -5.91780
H         -5.74920       -0.28750       -1.87960
H         -3.45630       -0.92230       -1.27540
H          4.14790       -3.84490       -2.71800
H          4.88120       -5.03320       -4.72640
H          4.04140       -5.49320       -7.28470
H          2.54510       -6.43940       -7.30450
H          3.94530       -7.00380       -6.38920
H          0.81960       -5.57040       -5.90780
H          0.08100       -4.32480       -3.93610
H          1.78350       -2.88950        0.57440
H          3.13430       -1.19650        1.69220
H          5.67860        0.90330       -0.05420
H          4.25580        1.49170        0.80390
H          5.24200        0.21180        1.51400
H          4.68190        0.06880       -2.07620
H          3.29970       -1.60220       -3.20470
H         -1.13200       -5.80430        2.47100
H         -2.38870       -4.32790        3.96390
H         -4.64950       -2.80370        3.91350
H         -6.09930       -3.80210        3.74050
H         -4.92440       -4.14710        5.01550
H         -6.00670       -5.34430        1.94270
H         -4.75260       -6.83160        0.44570
H         -3.38480       -8.73330        2.32480
H         -4.37740      -10.95040        2.02510
H         -5.42820      -12.42670       -0.59900
H         -3.81680      -13.06070       -0.92220
H         -4.43760      -13.01700        0.73600
H         -3.21180      -10.92220       -2.07710
H         -2.26920       -8.68590       -1.80330
H          0.85060       -9.28390       -1.63140
H         -0.82980      -14.04620        0.08990
H         -1.85770      -15.89700        1.40950
H         -2.72250      -12.76860        5.15270
H         -1.74470      -10.92960        3.87360
