181

C         -2.13030        7.16730       -2.76980
C         -0.96270        7.63440       -3.35840
C          0.16460        6.77190       -3.69720
O          0.25990        5.56820       -3.54120
C          1.12480        7.64020       -4.42390
C          2.34680        7.30450       -4.97080
Cl         3.03160        5.75960       -4.72790
C          3.02800        8.27020       -5.72360
Cl         4.56870        7.91500       -6.38050
C          2.43350        9.50480       -5.96740
Cl         3.23490       10.63650       -6.97230
C          1.18550        9.83720       -5.41310
Cl         0.44990       11.31030       -5.89570
C          0.56390        8.92300       -4.57520
C         -0.67670        8.96840       -3.79840
C         -1.31770       10.08800       -3.31990
C         -2.46570       10.02160       -2.50290
N         -3.39430       10.05170       -1.82730
C         -0.84450       11.41150       -3.35950
N         -0.49940       12.49970       -3.22570
C         -2.24380        6.02130       -1.99700
C         -1.26900        5.26270       -1.29690
N         -0.01450        5.65800       -0.96840
C          0.91670        4.69110       -0.50780
C          1.46950        4.83040        0.75920
C          2.32410        3.85940        1.24320
C          2.64210        2.74220        0.47990
C          3.54110        1.67660        1.02420
C          2.12050        2.64010       -0.80480
C          1.26810        3.60650       -1.30340
C          0.41470        6.99370       -0.93980
C         -0.39560        8.02030       -0.45750
C          0.07260        9.31710       -0.43680
C          1.34940        9.63440       -0.89800
C          1.83030       11.04970       -0.88000
C          2.15600        8.60190       -1.35750
C          1.70410        7.29570       -1.37280
C         -1.82360        4.03370       -0.87580
S         -1.16810        2.62830       -0.11140
C         -2.73340        1.84240       -0.16300
C         -3.73810        2.66620       -0.66440
N         -5.08170        2.35650       -0.75820
C         -5.75830        1.72040        0.28650
C         -5.33700        1.85490        1.60730
C         -6.01400        1.20940        2.62370
C         -7.12730        0.42190        2.36230
C         -7.85610       -0.29080        3.46000
C         -7.54550        0.29610        1.04160
C         -6.87520        0.92890        0.01540
C         -5.78940        2.83480       -1.87830
C         -7.03850        3.43170       -1.73630
C         -7.70910        3.90230       -2.84680
C         -7.15550        3.80160       -4.11850
C         -7.87930        4.34480       -5.31150
C         -5.90670        3.20780       -4.24950
C         -5.22920        2.72430       -3.14760
C         -3.18820        3.89460       -1.10290
S         -3.85600        5.28760       -1.87430
C         -2.69470        0.46540        0.18650
C         -3.60530       -0.57040        0.29030
C         -2.86610       -1.72670        0.56850
C         -1.53680       -1.34740        0.61520
O         -1.44400       -0.01900        0.38880
C         -0.31690       -2.07090        0.71620
C         -0.07490       -3.34720        1.21490
N         -0.98190       -4.14900        1.87580
C         -1.92590       -3.61380        2.75950
C         -3.16300       -4.23310        2.92310
C         -4.10820       -3.68990        3.77150
C         -3.85600       -2.51850        4.47250
C         -4.88630       -1.90490        5.36950
C         -2.61400       -1.91380        4.31470
C         -1.65790       -2.45050        3.47830
C         -0.89070       -5.54320        1.69030
C         -0.97220       -6.41120        2.77480
C         -0.87800       -7.77400        2.57650
C         -0.70280       -8.30640        1.30350
C         -0.62890       -9.78670        1.09510
C         -0.62370       -7.43040        0.22750
C         -0.71140       -6.06460        0.41220
C          1.26810       -3.71930        0.97950
S          2.18280       -5.13440        1.34490
C          3.63280       -4.41300        0.63510
C          3.39660       -3.09880        0.18270
N          4.32210       -2.29830       -0.42630
C          5.66480       -2.32010       -0.00350
C          6.70000       -2.40040       -0.92950
C          8.01000       -2.44510       -0.49440
C          8.31920       -2.41150        0.86080
C          9.73530       -2.51830        1.32930
C          7.27730       -2.30980        1.77650
C          5.96370       -2.26030        1.35590
C          3.95830       -1.46670       -1.50020
C          2.98510       -1.86620       -2.41300
C          2.63030       -1.02630       -3.45010
C          3.23920        0.21280       -3.61780
C          2.82080        1.13590       -4.71910
C          4.23690        0.58270       -2.72250
C          4.59460       -0.24070       -1.67360
C          2.03950       -2.74700        0.35880
S          1.12040       -1.30960        0.05650
C          4.81650       -5.15580        0.57490
C          4.94810       -6.52400        0.58340
C          6.21750       -7.13440        1.02360
O          7.26770       -6.57050        1.24400
C          5.91520       -8.57950        1.18150
C          6.71770       -9.58270        1.68240
C          6.19110      -10.86720        1.76970
Cl         7.14070      -12.16180        2.39060
C          4.88070      -11.10220        1.35380
F          4.37390      -12.33850        1.45900
C          4.07160      -10.10120        0.83610
C          4.60020       -8.82570        0.74800
C          4.03090       -7.57630        0.24280
C          2.97860       -7.49360       -0.63920
C          2.23070       -8.60730       -1.05800
N          1.59400       -9.48510       -1.43840
C          2.62610       -6.31610       -1.32560
N          2.34280       -5.39280       -1.94880
H         -3.05520        7.69080       -2.97720
H          1.20990        5.68710        1.36400
H          2.73600        3.96330        2.23640
H          4.57050        1.86320        0.71780
H          3.51040        1.66250        2.11100
H          3.24600        0.70150        0.64450
H          2.37620        1.78630       -1.41350
H          0.86550        3.54200       -2.30210
H         -1.38710        7.80050       -0.09140
H         -0.56360       10.10270       -0.05600
H          2.85950       11.11560       -1.22240
H          1.20940       11.67260       -1.52330
H          1.76830       11.45760        0.12770
H          3.15330        8.81920       -1.71110
H          2.34280        6.50020       -1.72600
H         -4.48340        2.47420        1.83730
H         -5.67400        1.33440        3.64190
H         -7.63500        0.15260        4.42820
H         -8.93140       -0.25450        3.29460
H         -7.55770       -1.33950        3.48630
H         -8.40770       -0.31350        0.81320
H         -7.20780        0.81060       -1.00520
H         -7.47480        3.52790       -0.75320
H         -8.67680        4.36620       -2.72350
H         -7.67130        5.40990       -5.41780
H         -8.95450        4.22350       -5.20160
H         -7.55770        3.84570       -6.22240
H         -5.45870        3.11680       -5.22820
H         -4.26250        2.25590       -3.26350
H         -4.66610       -0.51200        0.17420
H         -3.25580       -2.71510        0.68960
H         -3.38220       -5.13800        2.37550
H         -5.06300       -4.18370        3.88050
H         -5.74020       -2.56550        5.49310
H         -5.23430       -0.96440        4.94470
H         -4.46400       -1.69260        6.35010
H         -2.39080       -1.00900        4.86160
H         -0.69500       -1.97110        3.38400
H         -1.10630       -6.00950        3.76840
H         -0.93770       -8.43790        3.42680
H         -0.14390      -10.27320        1.93880
H         -1.63400      -10.19970        1.00270
H         -0.08400      -10.02030        0.18360
H         -0.49770       -7.82300       -0.77040
H         -0.64680       -5.39590       -0.43420
H          6.46830       -2.44290       -1.98320
H          8.80600       -2.52230       -1.22010
H         10.42810       -2.17910        0.56330
H          9.96280       -3.56040        1.55570
H          9.89150       -1.93640        2.23480
H          7.49860       -2.27250        2.83280
H          5.15930       -2.18530        2.07330
H          2.52910       -2.84030       -2.32020
H          1.87290       -1.34580       -4.15060
H          2.48070        0.57660       -5.58770
H          3.64040        1.78690       -5.01420
H          1.99780        1.76770       -4.38240
H          4.73450        1.53430       -2.84190
H          5.36840        0.06200       -0.98410
H          5.75590       -4.61560        0.59590
H          7.72700       -9.37520        1.99980
H          3.06550      -10.34250        0.53400
