
  xtb     02112216093D
 energy: -416.493750661482 gnorm: 0.000438775281 xtb: 6.4.1 (unknown)
244265  0     0  0            999 V2000
    1.2216   -5.2185   -8.2045 C   0  0  0  0  0  0  0  0  0  0  0  0
    0.5799   -6.4109   -8.5112 C   0  0  0  0  0  0  0  0  0  0  0  0
    0.0187   -7.2848   -7.4879 C   0  0  0  0  0  0  0  0  0  0  0  0
   -0.0015   -7.1063   -6.2843 O   0  0  0  0  0  0  0  0  0  0  0  0
   -0.4104   -8.5068   -8.2129 C   0  0  0  0  0  0  0  0  0  0  0  0
   -1.1028   -9.5901   -7.7110 C   0  0  0  0  0  0  0  0  0  0  0  0
   -1.4658   -9.7167   -6.0458 Cl  0  0  0  0  0  0  0  0  0  0  0  0
   -1.5430  -10.5733   -8.6061 C   0  0  0  0  0  0  0  0  0  0  0  0
   -2.3946  -11.9406   -8.0285 Cl  0  0  0  0  0  0  0  0  0  0  0  0
   -1.3265  -10.4096   -9.9705 C   0  0  0  0  0  0  0  0  0  0  0  0
   -1.9462  -11.5796  -11.0587 Cl  0  0  0  0  0  0  0  0  0  0  0  0
   -0.6331   -9.2972  -10.4760 C   0  0  0  0  0  0  0  0  0  0  0  0
   -0.5508   -9.1221  -12.1798 Cl  0  0  0  0  0  0  0  0  0  0  0  0
   -0.1154   -8.3658   -9.5848 C   0  0  0  0  0  0  0  0  0  0  0  0
    0.5875   -7.0947   -9.7717 C   0  0  0  0  0  0  0  0  0  0  0  0
    1.1318   -6.5704  -10.9247 C   0  0  0  0  0  0  0  0  0  0  0  0
    1.4406   -5.2008  -11.0634 C   0  0  0  0  0  0  0  0  0  0  0  0
    1.6271   -4.0909  -11.2976 N   0  0  0  0  0  0  0  0  0  0  0  0
    1.5477   -7.2642  -12.0760 C   0  0  0  0  0  0  0  0  0  0  0  0
    2.0404   -7.7276  -13.0051 N   0  0  0  0  0  0  0  0  0  0  0  0
    0.9391   -4.4017   -7.1187 C   0  0  0  0  0  0  0  0  0  0  0  0
   -0.2101   -4.2870   -6.2931 C   0  0  0  0  0  0  0  0  0  0  0  0
   -1.4253   -4.8791   -6.4729 N   0  0  0  0  0  0  0  0  0  0  0  0
   -1.9051   -5.3007   -7.7186 C   0  0  0  0  0  0  0  0  0  0  0  0
   -1.6423   -4.5771   -8.8811 C   0  0  0  0  0  0  0  0  0  0  0  0
   -2.0860   -5.0414  -10.1017 C   0  0  0  0  0  0  0  0  0  0  0  0
   -2.8061   -6.2289  -10.2044 C   0  0  0  0  0  0  0  0  0  0  0  0
   -3.2585   -6.7309  -11.5387 C   0  0  0  0  0  0  0  0  0  0  0  0
   -3.1049   -6.9191   -9.0368 C   0  0  0  0  0  0  0  0  0  0  0  0
   -2.6639   -6.4674   -7.8081 C   0  0  0  0  0  0  0  0  0  0  0  0
   -2.2562   -5.0731   -5.3447 C   0  0  0  0  0  0  0  0  0  0  0  0
   -1.7393   -5.6370   -4.1814 C   0  0  0  0  0  0  0  0  0  0  0  0
   -2.5500   -5.8013   -3.0775 C   0  0  0  0  0  0  0  0  0  0  0  0
   -3.8899   -5.4284   -3.1087 C   0  0  0  0  0  0  0  0  0  0  0  0
   -4.7472   -5.6034   -1.8930 C   0  0  0  0  0  0  0  0  0  0  0  0
   -4.4023   -4.9026   -4.2876 C   0  0  0  0  0  0  0  0  0  0  0  0
   -3.5980   -4.7160   -5.3960 C   0  0  0  0  0  0  0  0  0  0  0  0
    0.0321   -3.3734   -5.2479 C   0  0  0  0  0  0  0  0  0  0  0  0
   -0.9181   -2.8049   -3.9157 S   0  0  0  0  0  0  0  0  0  0  0  0
    0.3890   -1.7634   -3.3930 C   0  0  0  0  0  0  0  0  0  0  0  0
    1.5205   -1.8896   -4.1987 C   0  0  0  0  0  0  0  0  0  0  0  0
    2.7501   -1.2730   -3.9449 N   0  0  0  0  0  0  0  0  0  0  0  0
    3.2769   -0.4591   -4.9601 C   0  0  0  0  0  0  0  0  0  0  0  0
    4.6130   -0.5301   -5.3384 C   0  0  0  0  0  0  0  0  0  0  0  0
    5.0933    0.2945   -6.3382 C   0  0  0  0  0  0  0  0  0  0  0  0
    4.2620    1.1964   -6.9884 C   0  0  0  0  0  0  0  0  0  0  0  0
    4.7789    2.1032   -8.0621 C   0  0  0  0  0  0  0  0  0  0  0  0
    2.9225    1.2444   -6.6177 C   0  0  0  0  0  0  0  0  0  0  0  0
    2.4317    0.4311   -5.6186 C   0  0  0  0  0  0  0  0  0  0  0  0
    3.5117   -1.6960   -2.8531 C   0  0  0  0  0  0  0  0  0  0  0  0
    3.2729   -2.9262   -2.2449 C   0  0  0  0  0  0  0  0  0  0  0  0
    3.9818   -3.2988   -1.1190 C   0  0  0  0  0  0  0  0  0  0  0  0
    4.9500   -2.4701   -0.5695 C   0  0  0  0  0  0  0  0  0  0  0  0
    5.6983   -2.8600    0.6691 C   0  0  0  0  0  0  0  0  0  0  0  0
    5.1923   -1.2478   -1.1885 C   0  0  0  0  0  0  0  0  0  0  0  0
    4.4867   -0.8595   -2.3066 C   0  0  0  0  0  0  0  0  0  0  0  0
    1.2860   -2.7693   -5.2692 C   0  0  0  0  0  0  0  0  0  0  0  0
    2.2203   -3.2750   -6.6243 S   0  0  0  0  0  0  0  0  0  0  0  0
    0.2473   -0.9593   -2.2407 C   0  0  0  0  0  0  0  0  0  0  0  0
   -0.8419   -0.8943   -1.3728 C   0  0  0  0  0  0  0  0  0  0  0  0
   -2.0881   -1.4665   -1.6055 N   0  0  0  0  0  0  0  0  0  0  0  0
   -2.8649   -1.0629   -2.6917 C   0  0  0  0  0  0  0  0  0  0  0  0
   -4.0035   -1.7906   -3.0329 C   0  0  0  0  0  0  0  0  0  0  0  0
   -4.7679   -1.4399   -4.1266 C   0  0  0  0  0  0  0  0  0  0  0  0
   -4.4033   -0.3589   -4.9165 C   0  0  0  0  0  0  0  0  0  0  0  0
   -5.2816    0.1649   -6.3563 S   0  0  0  0  0  0  0  0  0  0  0  0
   -6.6566   -1.0133   -6.4837 C   0  0  0  0  0  0  0  0  0  0  0  0
   -3.2725    0.3795   -4.5751 C   0  0  0  0  0  0  0  0  0  0  0  0
   -2.5174    0.0398   -3.4759 C   0  0  0  0  0  0  0  0  0  0  0  0
   -2.6968   -2.1177   -0.5088 C   0  0  0  0  0  0  0  0  0  0  0  0
   -3.8462   -1.6094    0.0847 C   0  0  0  0  0  0  0  0  0  0  0  0
   -4.4190   -2.2468    1.1680 C   0  0  0  0  0  0  0  0  0  0  0  0
   -3.8555   -3.4177    1.6596 C   0  0  0  0  0  0  0  0  0  0  0  0
   -4.4875   -4.3175    3.0366 S   0  0  0  0  0  0  0  0  0  0  0  0
   -5.9777   -3.4014    3.5133 C   0  0  0  0  0  0  0  0  0  0  0  0
   -2.7103   -3.9364    1.0535 C   0  0  0  0  0  0  0  0  0  0  0  0
   -2.1250   -3.2848   -0.0099 C   0  0  0  0  0  0  0  0  0  0  0  0
   -0.5413   -0.1009   -0.2470 C   0  0  0  0  0  0  0  0  0  0  0  0
   -1.3574    0.2569    1.2279 S   0  0  0  0  0  0  0  0  0  0  0  0
   -0.0245    1.2968    1.7426 C   0  0  0  0  0  0  0  0  0  0  0  0
    0.9909    1.3646    0.7923 C   0  0  0  0  0  0  0  0  0  0  0  0
    2.1557    2.1076    0.8473 N   0  0  0  0  0  0  0  0  0  0  0  0
    2.7268    2.5224   -0.3698 C   0  0  0  0  0  0  0  0  0  0  0  0
    1.9311    3.0808   -1.3712 C   0  0  0  0  0  0  0  0  0  0  0  0
    2.4813    3.4196   -2.5867 C   0  0  0  0  0  0  0  0  0  0  0  0
    3.8397    3.2224   -2.8280 C   0  0  0  0  0  0  0  0  0  0  0  0
    4.4272    3.6726   -4.4278 S   0  0  0  0  0  0  0  0  0  0  0  0
    6.1265    3.0388   -4.4634 C   0  0  0  0  0  0  0  0  0  0  0  0
    4.6427    2.7092   -1.8172 C   0  0  0  0  0  0  0  0  0  0  0  0
    4.0884    2.3597   -0.6013 C   0  0  0  0  0  0  0  0  0  0  0  0
    2.8354    2.3669    2.0420 C   0  0  0  0  0  0  0  0  0  0  0  0
    3.4529    3.5993    2.2439 C   0  0  0  0  0  0  0  0  0  0  0  0
    4.0673    3.8910    3.4461 C   0  0  0  0  0  0  0  0  0  0  0  0
    4.0718    2.9535    4.4698 C   0  0  0  0  0  0  0  0  0  0  0  0
    4.7706    3.2172    6.0702 S   0  0  0  0  0  0  0  0  0  0  0  0
    5.4581    4.8928    5.9976 C   0  0  0  0  0  0  0  0  0  0  0  0
    3.4931    1.7036    4.2534 C   0  0  0  0  0  0  0  0  0  0  0  0
    2.8906    1.4081    3.0521 C   0  0  0  0  0  0  0  0  0  0  0  0
    0.6899    0.5324   -0.3126 C   0  0  0  0  0  0  0  0  0  0  0  0
    1.5553    0.0980   -1.7416 S   0  0  0  0  0  0  0  0  0  0  0  0
   -0.1707    1.9514    2.9953 C   0  0  0  0  0  0  0  0  0  0  0  0
   -0.8550    1.4567    4.1029 C   0  0  0  0  0  0  0  0  0  0  0  0
   -1.3508    0.1566    4.1863 N   0  0  0  0  0  0  0  0  0  0  0  0
   -0.4505   -0.9028    3.9833 C   0  0  0  0  0  0  0  0  0  0  0  0
    0.8559   -0.8039    4.4504 C   0  0  0  0  0  0  0  0  0  0  0  0
    1.7703   -1.8050    4.1826 C   0  0  0  0  0  0  0  0  0  0  0  0
    1.4072   -2.9284    3.4516 C   0  0  0  0  0  0  0  0  0  0  0  0
    2.4130   -3.9834    3.1057 C   0  0  0  0  0  0  0  0  0  0  0  0
    0.0874   -3.0387    3.0276 C   0  0  0  0  0  0  0  0  0  0  0  0
   -0.8351   -2.0465    3.2883 C   0  0  0  0  0  0  0  0  0  0  0  0
   -2.6417   -0.0550    4.6700 C   0  0  0  0  0  0  0  0  0  0  0  0
   -3.6323    0.8993    4.4440 C   0  0  0  0  0  0  0  0  0  0  0  0
   -4.9080    0.7084    4.9332 C   0  0  0  0  0  0  0  0  0  0  0  0
   -5.2394   -0.4356    5.6503 C   0  0  0  0  0  0  0  0  0  0  0  0
   -6.6233   -0.6193    6.1971 C   0  0  0  0  0  0  0  0  0  0  0  0
   -4.2487   -1.3869    5.8621 C   0  0  0  0  0  0  0  0  0  0  0  0
   -2.9663   -1.2052    5.3849 C   0  0  0  0  0  0  0  0  0  0  0  0
   -0.8862    2.3927    5.1553 C   0  0  0  0  0  0  0  0  0  0  0  0
   -1.4402    2.3287    6.7903 S   0  0  0  0  0  0  0  0  0  0  0  0
   -0.7320    3.9220    7.1003 C   0  0  0  0  0  0  0  0  0  0  0  0
   -0.0494    4.4267    5.9587 C   0  0  0  0  0  0  0  0  0  0  0  0
    0.7018    5.5719    5.9144 N   0  0  0  0  0  0  0  0  0  0  0  0
    0.7850    6.2574    4.6878 C   0  0  0  0  0  0  0  0  0  0  0  0
    2.0070    6.7051    4.1949 C   0  0  0  0  0  0  0  0  0  0  0  0
    2.0704    7.3458    2.9758 C   0  0  0  0  0  0  0  0  0  0  0  0
    0.9247    7.5624    2.2167 C   0  0  0  0  0  0  0  0  0  0  0  0
    1.0179    8.2487    0.8894 C   0  0  0  0  0  0  0  0  0  0  0  0
   -0.2933    7.1312    2.7253 C   0  0  0  0  0  0  0  0  0  0  0  0
   -0.3695    6.4886    3.9453 C   0  0  0  0  0  0  0  0  0  0  0  0
    1.5803    5.9248    6.9568 C   0  0  0  0  0  0  0  0  0  0  0  0
    2.2188    4.9420    7.7089 C   0  0  0  0  0  0  0  0  0  0  0  0
    3.0954    5.3016    8.7126 C   0  0  0  0  0  0  0  0  0  0  0  0
    3.3682    6.6377    8.9832 C   0  0  0  0  0  0  0  0  0  0  0  0
    4.3073    7.0291   10.0819 C   0  0  0  0  0  0  0  0  0  0  0  0
    2.7377    7.6100    8.2153 C   0  0  0  0  0  0  0  0  0  0  0  0
    1.8493    7.2665    7.2156 C   0  0  0  0  0  0  0  0  0  0  0  0
   -0.2065    3.5710    4.8632 C   0  0  0  0  0  0  0  0  0  0  0  0
    0.4308    3.5789    3.2518 S   0  0  0  0  0  0  0  0  0  0  0  0
   -0.8704    4.6548    8.2710 C   0  0  0  0  0  0  0  0  0  0  0  0
   -1.4726    4.3313    9.4725 C   0  0  0  0  0  0  0  0  0  0  0  0
   -2.0563    3.0392    9.8214 C   0  0  0  0  0  0  0  0  0  0  0  0
   -2.1959    2.0567    9.1147 O   0  0  0  0  0  0  0  0  0  0  0  0
   -2.4470    3.1429   11.2458 C   0  0  0  0  0  0  0  0  0  0  0  0
   -3.0326    2.1856   12.0481 C   0  0  0  0  0  0  0  0  0  0  0  0
   -3.2991    2.5273   13.3649 C   0  0  0  0  0  0  0  0  0  0  0  0
   -3.8676    1.6286   14.1815 F   0  0  0  0  0  0  0  0  0  0  0  0
   -2.9821    3.7956   13.8469 C   0  0  0  0  0  0  0  0  0  0  0  0
   -3.2491    4.0991   15.1241 F   0  0  0  0  0  0  0  0  0  0  0  0
   -2.3952    4.7586   13.0377 C   0  0  0  0  0  0  0  0  0  0  0  0
   -2.1248    4.4246   11.7210 C   0  0  0  0  0  0  0  0  0  0  0  0
   -1.5376    5.1964   10.6225 C   0  0  0  0  0  0  0  0  0  0  0  0
   -1.1516    6.5138   10.7067 C   0  0  0  0  0  0  0  0  0  0  0  0
   -0.6982    7.3083    9.6372 C   0  0  0  0  0  0  0  0  0  0  0  0
   -0.3507    8.0400    8.8207 N   0  0  0  0  0  0  0  0  0  0  0  0
   -1.1893    7.2730   11.8930 C   0  0  0  0  0  0  0  0  0  0  0  0
   -1.1757    7.9419   12.8267 N   0  0  0  0  0  0  0  0  0  0  0  0
    2.0472   -4.9001   -8.8294 H   0  0  0  0  0  0  0  0  0  0  0  0
   -1.0854   -3.6539   -8.8276 H   0  0  0  0  0  0  0  0  0  0  0  0
   -1.8611   -4.4753  -10.9936 H   0  0  0  0  0  0  0  0  0  0  0  0
   -3.5317   -7.7817  -11.4863 H   0  0  0  0  0  0  0  0  0  0  0  0
   -4.1281   -6.1669  -11.8768 H   0  0  0  0  0  0  0  0  0  0  0  0
   -2.4740   -6.6063  -12.2820 H   0  0  0  0  0  0  0  0  0  0  0  0
   -3.6742   -7.8357   -9.0887 H   0  0  0  0  0  0  0  0  0  0  0  0
   -2.8886   -7.0238   -6.9107 H   0  0  0  0  0  0  0  0  0  0  0  0
   -0.7113   -5.9635   -4.1705 H   0  0  0  0  0  0  0  0  0  0  0  0
   -2.1434   -6.2353   -2.1760 H   0  0  0  0  0  0  0  0  0  0  0  0
   -4.7880   -6.6532   -1.6059 H   0  0  0  0  0  0  0  0  0  0  0  0
   -5.7612   -5.2553   -2.0743 H   0  0  0  0  0  0  0  0  0  0  0  0
   -4.3303   -5.0484   -1.0524 H   0  0  0  0  0  0  0  0  0  0  0  0
   -5.4467   -4.6310   -4.3393 H   0  0  0  0  0  0  0  0  0  0  0  0
   -4.0022   -4.2927   -6.3041 H   0  0  0  0  0  0  0  0  0  0  0  0
    5.2697   -1.2377   -4.8537 H   0  0  0  0  0  0  0  0  0  0  0  0
    6.1341    0.2260   -6.6228 H   0  0  0  0  0  0  0  0  0  0  0  0
    5.8434    1.9520   -8.2238 H   0  0  0  0  0  0  0  0  0  0  0  0
    4.6082    3.1441   -7.7888 H   0  0  0  0  0  0  0  0  0  0  0  0
    4.2571    1.9160   -8.9995 H   0  0  0  0  0  0  0  0  0  0  0  0
    2.2603    1.9383   -7.1141 H   0  0  0  0  0  0  0  0  0  0  0  0
    1.3913    0.4834   -5.3311 H   0  0  0  0  0  0  0  0  0  0  0  0
    2.5297   -3.5940   -2.6554 H   0  0  0  0  0  0  0  0  0  0  0  0
    3.7793   -4.2588   -0.6651 H   0  0  0  0  0  0  0  0  0  0  0  0
    6.7542   -2.6139    0.5756 H   0  0  0  0  0  0  0  0  0  0  0  0
    5.6032   -3.9258    0.8625 H   0  0  0  0  0  0  0  0  0  0  0  0
    5.3052   -2.3189    1.5309 H   0  0  0  0  0  0  0  0  0  0  0  0
    5.9389   -0.5837   -0.7767 H   0  0  0  0  0  0  0  0  0  0  0  0
    4.6598    0.1085   -2.7511 H   0  0  0  0  0  0  0  0  0  0  0  0
   -4.2838   -2.6468   -2.4405 H   0  0  0  0  0  0  0  0  0  0  0  0
   -5.6420   -2.0265   -4.3559 H   0  0  0  0  0  0  0  0  0  0  0  0
   -7.2927   -0.9394   -5.6064 H   0  0  0  0  0  0  0  0  0  0  0  0
   -6.2726   -2.0213   -6.6113 H   0  0  0  0  0  0  0  0  0  0  0  0
   -7.2132   -0.7168   -7.3673 H   0  0  0  0  0  0  0  0  0  0  0  0
   -2.9969    1.2283   -5.1822 H   0  0  0  0  0  0  0  0  0  0  0  0
   -1.6518    0.6328   -3.2222 H   0  0  0  0  0  0  0  0  0  0  0  0
   -4.2866   -0.7020   -0.3007 H   0  0  0  0  0  0  0  0  0  0  0  0
   -5.2942   -1.8152    1.6249 H   0  0  0  0  0  0  0  0  0  0  0  0
   -6.6827   -3.3849    2.6872 H   0  0  0  0  0  0  0  0  0  0  0  0
   -6.4021   -3.9530    4.3465 H   0  0  0  0  0  0  0  0  0  0  0  0
   -5.7083   -2.3990    3.8342 H   0  0  0  0  0  0  0  0  0  0  0  0
   -2.2931   -4.8558    1.4352 H   0  0  0  0  0  0  0  0  0  0  0  0
   -1.2328   -3.6763   -0.4748 H   0  0  0  0  0  0  0  0  0  0  0  0
    0.8779    3.2363   -1.1892 H   0  0  0  0  0  0  0  0  0  0  0  0
    1.8667    3.8395   -3.3679 H   0  0  0  0  0  0  0  0  0  0  0  0
    6.1217    1.9715   -4.2634 H   0  0  0  0  0  0  0  0  0  0  0  0
    6.7459    3.5784   -3.7527 H   0  0  0  0  0  0  0  0  0  0  0  0
    6.4829    3.2198   -5.4723 H   0  0  0  0  0  0  0  0  0  0  0  0
    5.7007    2.5652   -1.9670 H   0  0  0  0  0  0  0  0  0  0  0  0
    4.7121    1.9416    0.1748 H   0  0  0  0  0  0  0  0  0  0  0  0
    3.4274    4.3416    1.4604 H   0  0  0  0  0  0  0  0  0  0  0  0
    4.5245    4.8583    3.5740 H   0  0  0  0  0  0  0  0  0  0  0  0
    5.9368    5.0522    6.9586 H   0  0  0  0  0  0  0  0  0  0  0  0
    6.1937    4.9602    5.2016 H   0  0  0  0  0  0  0  0  0  0  0  0
    4.6605    5.6186    5.8687 H   0  0  0  0  0  0  0  0  0  0  0  0
    3.5300    0.9682    5.0428 H   0  0  0  0  0  0  0  0  0  0  0  0
    2.4486    0.4375    2.8866 H   0  0  0  0  0  0  0  0  0  0  0  0
    1.1468    0.0620    5.0269 H   0  0  0  0  0  0  0  0  0  0  0  0
    2.7826   -1.7113    4.5503 H   0  0  0  0  0  0  0  0  0  0  0  0
    3.2471   -3.9704    3.8032 H   0  0  0  0  0  0  0  0  0  0  0  0
    1.9581   -4.9713    3.1174 H   0  0  0  0  0  0  0  0  0  0  0  0
    2.8050   -3.8047    2.1032 H   0  0  0  0  0  0  0  0  0  0  0  0
   -0.2210   -3.9120    2.4731 H   0  0  0  0  0  0  0  0  0  0  0  0
   -1.8528   -2.1420    2.9439 H   0  0  0  0  0  0  0  0  0  0  0  0
   -3.3953    1.7888    3.8785 H   0  0  0  0  0  0  0  0  0  0  0  0
   -5.6637    1.4600    4.7533 H   0  0  0  0  0  0  0  0  0  0  0  0
   -6.7974   -1.6544    6.4814 H   0  0  0  0  0  0  0  0  0  0  0  0
   -7.3741   -0.3225    5.4664 H   0  0  0  0  0  0  0  0  0  0  0  0
   -6.7576    0.0026    7.0824 H   0  0  0  0  0  0  0  0  0  0  0  0
   -4.4792   -2.2824    6.4214 H   0  0  0  0  0  0  0  0  0  0  0  0
   -2.2089   -1.9495    5.5772 H   0  0  0  0  0  0  0  0  0  0  0  0
    2.9040    6.5416    4.7723 H   0  0  0  0  0  0  0  0  0  0  0  0
    3.0265    7.6805    2.5996 H   0  0  0  0  0  0  0  0  0  0  0  0
    1.6684    7.6886    0.2185 H   0  0  0  0  0  0  0  0  0  0  0  0
    1.4409    9.2456    1.0061 H   0  0  0  0  0  0  0  0  0  0  0  0
    0.0385    8.3391    0.4275 H   0  0  0  0  0  0  0  0  0  0  0  0
   -1.1986    7.3027    2.1616 H   0  0  0  0  0  0  0  0  0  0  0  0
   -1.3244    6.1648    4.3326 H   0  0  0  0  0  0  0  0  0  0  0  0
    2.0353    3.8990    7.4988 H   0  0  0  0  0  0  0  0  0  0  0  0
    3.5861    4.5268    9.2833 H   0  0  0  0  0  0  0  0  0  0  0  0
    3.7445    7.4148   10.9321 H   0  0  0  0  0  0  0  0  0  0  0  0
    4.8924    6.1767   10.4183 H   0  0  0  0  0  0  0  0  0  0  0  0
    4.9836    7.8146    9.7500 H   0  0  0  0  0  0  0  0  0  0  0  0
    2.9328    8.6533    8.4119 H   0  0  0  0  0  0  0  0  0  0  0  0
    1.3569    8.0316    6.6367 H   0  0  0  0  0  0  0  0  0  0  0  0
   -0.4239    5.6400    8.2239 H   0  0  0  0  0  0  0  0  0  0  0  0
   -3.2765    1.2058   11.6697 H   0  0  0  0  0  0  0  0  0  0  0  0
   -2.1711    5.7243   13.4597 H   0  0  0  0  0  0  0  0  0  0  0  0
  1  2  2  0  0  0  0
  2  3  1  0  0  0  0
  3  4  2  0  0  0  0
  3  5  1  0  0  0  0
  5  6  2  0  0  0  0
  6  7  1  0  0  0  0
  6  8  1  0  0  0  0
  8  9  1  0  0  0  0
  8 10  2  0  0  0  0
 10 11  1  0  0  0  0
 10 12  1  0  0  0  0
 12 13  1  0  0  0  0
 12 14  2  0  0  0  0
 14 15  1  0  0  0  0
 15 16  2  0  0  0  0
 16 17  1  0  0  0  0
 17 18  3  0  0  0  0
 16 19  1  0  0  0  0
 19 20  3  0  0  0  0
  1 21  1  0  0  0  0
 21 22  2  0  0  0  0
 22 23  1  0  0  0  0
 23 24  1  0  0  0  0
 24 25  2  0  0  0  0
 25 26  1  0  0  0  0
 26 27  2  0  0  0  0
 27 28  1  0  0  0  0
 27 29  1  0  0  0  0
 29 30  2  0  0  0  0
 23 31  1  0  0  0  0
 31 32  2  0  0  0  0
 32 33  1  0  0  0  0
 33 34  2  0  0  0  0
 34 35  1  0  0  0  0
 34 36  1  0  0  0  0
 36 37  2  0  0  0  0
 22 38  1  0  0  0  0
 38 39  1  0  0  0  0
 39 40  1  0  0  0  0
 40 41  2  0  0  0  0
 41 42  1  0  0  0  0
 42 43  1  0  0  0  0
 43 44  2  0  0  0  0
 44 45  1  0  0  0  0
 45 46  2  0  0  0  0
 46 47  1  0  0  0  0
 46 48  1  0  0  0  0
 48 49  2  0  0  0  0
 42 50  1  0  0  0  0
 50 51  2  0  0  0  0
 51 52  1  0  0  0  0
 52 53  2  0  0  0  0
 53 54  1  0  0  0  0
 53 55  1  0  0  0  0
 55 56  2  0  0  0  0
 41 57  1  0  0  0  0
 57 58  1  0  0  0  0
 40 59  1  0  0  0  0
 59 60  2  0  0  0  0
 60 61  1  0  0  0  0
 61 62  1  0  0  0  0
 62 63  2  0  0  0  0
 63 64  1  0  0  0  0
 64 65  2  0  0  0  0
 65 66  1  0  0  0  0
 66 67  1  0  0  0  0
 65 68  1  0  0  0  0
 68 69  2  0  0  0  0
 61 70  1  0  0  0  0
 70 71  2  0  0  0  0
 71 72  1  0  0  0  0
 72 73  2  0  0  0  0
 73 74  1  0  0  0  0
 74 75  1  0  0  0  0
 73 76  1  0  0  0  0
 76 77  2  0  0  0  0
 60 78  1  0  0  0  0
 78 79  1  0  0  0  0
 79 80  1  0  0  0  0
 80 81  2  0  0  0  0
 81 82  1  0  0  0  0
 82 83  1  0  0  0  0
 83 84  2  0  0  0  0
 84 85  1  0  0  0  0
 85 86  2  0  0  0  0
 86 87  1  0  0  0  0
 87 88  1  0  0  0  0
 86 89  1  0  0  0  0
 89 90  2  0  0  0  0
 82 91  1  0  0  0  0
 91 92  2  0  0  0  0
 92 93  1  0  0  0  0
 93 94  2  0  0  0  0
 94 95  1  0  0  0  0
 95 96  1  0  0  0  0
 94 97  1  0  0  0  0
 97 98  2  0  0  0  0
 81 99  1  0  0  0  0
 99100  1  0  0  0  0
 80101  1  0  0  0  0
101102  2  0  0  0  0
102103  1  0  0  0  0
103104  1  0  0  0  0
104105  2  0  0  0  0
105106  1  0  0  0  0
106107  2  0  0  0  0
107108  1  0  0  0  0
107109  1  0  0  0  0
109110  2  0  0  0  0
103111  1  0  0  0  0
111112  2  0  0  0  0
112113  1  0  0  0  0
113114  2  0  0  0  0
114115  1  0  0  0  0
114116  1  0  0  0  0
116117  2  0  0  0  0
102118  1  0  0  0  0
118119  1  0  0  0  0
119120  1  0  0  0  0
120121  2  0  0  0  0
121122  1  0  0  0  0
122123  1  0  0  0  0
123124  2  0  0  0  0
124125  1  0  0  0  0
125126  2  0  0  0  0
126127  1  0  0  0  0
126128  1  0  0  0  0
128129  2  0  0  0  0
122130  1  0  0  0  0
130131  2  0  0  0  0
131132  1  0  0  0  0
132133  2  0  0  0  0
133134  1  0  0  0  0
133135  1  0  0  0  0
135136  2  0  0  0  0
121137  1  0  0  0  0
137138  1  0  0  0  0
120139  1  0  0  0  0
139140  2  0  0  0  0
140141  1  0  0  0  0
141142  2  0  0  0  0
141143  1  0  0  0  0
143144  2  0  0  0  0
144145  1  0  0  0  0
145146  1  0  0  0  0
145147  2  0  0  0  0
147148  1  0  0  0  0
147149  1  0  0  0  0
149150  2  0  0  0  0
150151  1  0  0  0  0
151152  2  0  0  0  0
152153  1  0  0  0  0
153154  3  0  0  0  0
152155  1  0  0  0  0
155156  3  0  0  0  0
 15  2  1  0  0  0  0
 58 21  1  0  0  0  0
100 59  1  0  0  0  0
138101  1  0  0  0  0
151140  1  0  0  0  0
 14  5  1  0  0  0  0
 30 24  1  0  0  0  0
 37 31  1  0  0  0  0
 57 38  2  0  0  0  0
 69 62  1  0  0  0  0
 77 70  1  0  0  0  0
 99 78  2  0  0  0  0
110104  1  0  0  0  0
117111  1  0  0  0  0
137118  2  0  0  0  0
150143  1  0  0  0  0
 49 43  1  0  0  0  0
 56 50  1  0  0  0  0
 90 83  1  0  0  0  0
 98 91  1  0  0  0  0
129123  1  0  0  0  0
136130  1  0  0  0  0
  1157  1  0  0  0  0
 25158  1  0  0  0  0
 26159  1  0  0  0  0
 28160  1  0  0  0  0
 28161  1  0  0  0  0
 28162  1  0  0  0  0
 29163  1  0  0  0  0
 30164  1  0  0  0  0
 32165  1  0  0  0  0
 33166  1  0  0  0  0
 35167  1  0  0  0  0
 35168  1  0  0  0  0
 35169  1  0  0  0  0
 36170  1  0  0  0  0
 37171  1  0  0  0  0
 44172  1  0  0  0  0
 45173  1  0  0  0  0
 47174  1  0  0  0  0
 47175  1  0  0  0  0
 47176  1  0  0  0  0
 48177  1  0  0  0  0
 49178  1  0  0  0  0
 51179  1  0  0  0  0
 52180  1  0  0  0  0
 54181  1  0  0  0  0
 54182  1  0  0  0  0
 54183  1  0  0  0  0
 55184  1  0  0  0  0
 56185  1  0  0  0  0
 63186  1  0  0  0  0
 64187  1  0  0  0  0
 67188  1  0  0  0  0
 67189  1  0  0  0  0
 67190  1  0  0  0  0
 68191  1  0  0  0  0
 69192  1  0  0  0  0
 71193  1  0  0  0  0
 72194  1  0  0  0  0
 75195  1  0  0  0  0
 75196  1  0  0  0  0
 75197  1  0  0  0  0
 76198  1  0  0  0  0
 77199  1  0  0  0  0
 84200  1  0  0  0  0
 85201  1  0  0  0  0
 88202  1  0  0  0  0
 88203  1  0  0  0  0
 88204  1  0  0  0  0
 89205  1  0  0  0  0
 90206  1  0  0  0  0
 92207  1  0  0  0  0
 93208  1  0  0  0  0
 96209  1  0  0  0  0
 96210  1  0  0  0  0
 96211  1  0  0  0  0
 97212  1  0  0  0  0
 98213  1  0  0  0  0
105214  1  0  0  0  0
106215  1  0  0  0  0
108216  1  0  0  0  0
108217  1  0  0  0  0
108218  1  0  0  0  0
109219  1  0  0  0  0
110220  1  0  0  0  0
112221  1  0  0  0  0
113222  1  0  0  0  0
115223  1  0  0  0  0
115224  1  0  0  0  0
115225  1  0  0  0  0
116226  1  0  0  0  0
117227  1  0  0  0  0
124228  1  0  0  0  0
125229  1  0  0  0  0
127230  1  0  0  0  0
127231  1  0  0  0  0
127232  1  0  0  0  0
128233  1  0  0  0  0
129234  1  0  0  0  0
131235  1  0  0  0  0
132236  1  0  0  0  0
134237  1  0  0  0  0
134238  1  0  0  0  0
134239  1  0  0  0  0
135240  1  0  0  0  0
136241  1  0  0  0  0
139242  1  0  0  0  0
144243  1  0  0  0  0
149244  1  0  0  0  0
M  END
