191

C          3.12210       -0.36600        7.13180
C          4.41480       -0.52760        7.59430
C          5.59110       -0.43650        6.73060
O          5.61720       -0.20750        5.53740
C          6.75910       -0.49890        7.64560
C          8.10230       -0.44260        7.33180
Cl         8.63280       -0.45790        5.70670
C          9.02910       -0.38960        8.38180
Cl        10.70590       -0.36450        8.04230
C          8.58270       -0.31980        9.69870
Cl         9.72570       -0.15300       10.96260
C          7.21360       -0.37550       10.01000
Cl         6.73970       -0.12440       11.63970
C          6.30160       -0.53920        8.97730
C          4.84710       -0.70050        8.95230
C          4.04390       -1.20290        9.94830
C          2.65970       -1.41750        9.77510
N          1.53380       -1.63360        9.70790
C          4.45920       -1.77160       11.16600
N          4.68520       -2.36040       12.12660
C          2.67220       -0.58660        5.83090
C          3.16230       -1.39970        4.77970
N          4.19730       -2.28790        4.85550
C          5.00210       -2.52200        3.71990
C          5.53880       -3.78610        3.49320
C          6.41210       -3.98770        2.44410
C          6.73650       -2.95590        1.56980
C          7.70190       -3.18870        0.45050
C          6.16590       -1.70840        1.78440
C          5.32120       -1.48290        2.85270
C          4.53350       -2.93130        6.05520
C          3.54010       -3.38790        6.92210
C          3.88080       -4.02740        8.09480
C          5.21410       -4.23050        8.44840
C          5.56420       -4.92740        9.72410
C          6.19680       -3.77890        7.57830
C          5.86960       -3.14030        6.39640
C          2.38090       -1.22150        3.61510
S          2.38980       -1.92720        2.02560
C          1.03170       -0.92140        1.54550
C          0.55550       -0.14320        2.59740
N         -0.52630        0.72690        2.53820
C         -1.72040        0.34170        1.92030
C         -2.47140        1.26020        1.18640
C         -3.61650        0.85650        0.53180
C         -4.05720       -0.46050        0.59530
C         -5.26900       -0.90580       -0.16600
C         -3.32430       -1.36080        1.36010
C         -2.16550       -0.97440        2.00620
C         -0.35610        2.02470        3.04600
C         -1.40910        2.69100        3.66420
C         -1.22850        3.96940        4.15430
C          0.00210        4.60670        4.06630
C          0.19940        5.99820        4.58080
C          1.05350        3.92520        3.46480
C          0.88050        2.65810        2.94820
C          1.32500       -0.33210        3.76260
S          1.20430        0.28660        5.36300
C          0.54430       -0.79000        0.20740
C          0.19730       -1.70480       -0.77340
N          0.30940       -3.08390       -0.69470
C          1.51960       -3.71330       -0.38590
C          2.74630       -3.15430       -0.74430
C          3.91320       -3.85910       -0.54010
C          3.87870       -5.13160        0.02200
S          5.39610       -6.02900        0.09490
C          5.07200       -7.31110        1.34020
C          2.66470       -5.66840        0.43090
C          1.49810       -4.96130        0.23300
C         -0.72920       -3.84080       -1.26760
C         -2.04990       -3.45480       -1.05330
C         -3.09000       -4.12340       -1.66500
C         -2.82510       -5.19510       -2.50680
S         -4.08880       -6.07560       -3.36840
C         -5.40920       -4.83350       -3.50400
C         -1.50910       -5.61230       -2.68970
C         -0.47000       -4.94280       -2.08210
C         -0.42570       -1.05160       -1.87300
S         -1.18100       -1.61360       -3.31980
C         -1.66290        0.02530       -3.72480
C         -1.29590        0.95210       -2.75540
N         -1.74820        2.24850       -2.67720
C         -1.07230        3.18770       -1.88620
C          0.31540        3.28310       -1.92210
C          0.97920        4.17760       -1.10380
C          0.26250        4.99240       -0.23870
S          0.99580        6.16500        0.85200
C          2.77380        5.82110        0.72840
C         -1.13010        4.92240       -0.22560
C         -1.79180        4.03450       -1.04210
C         -2.97800        2.60390       -3.26470
C         -3.07790        3.76890       -4.02360
C         -4.23230        4.03690       -4.72480
C         -5.31400        3.15740       -4.67430
S         -6.67330        3.51710       -5.73690
C         -7.81810        2.13340       -5.47640
C         -5.25230        2.05170       -3.83430
C         -4.09210        1.77980       -3.13700
C         -0.54120        0.31980       -1.73570
S          0.21310        0.87120       -0.29180
C         -2.42500        0.28140       -4.92350
C         -2.14690        1.39050       -5.73580
F         -1.07540        2.14560       -5.45130
C         -2.94310        1.73150       -6.81220
F         -2.68240        2.86120       -7.47630
C         -4.06120        0.96590       -7.15940
C         -4.32580       -0.15420       -6.36710
F         -5.40770       -0.90070       -6.64490
C         -3.52270       -0.50210       -5.29840
F         -3.86610       -1.56510       -4.54960
C         -4.95850        1.33770       -8.23870
C         -4.55260        1.71220       -9.46610
C         -3.14600        1.56840       -9.98510
O         -2.21260        1.05220       -9.41400
C         -3.20220        2.08180      -11.35070
C         -4.50310        2.44620      -11.65850
S         -4.69290        3.04310      -13.26090
C         -2.97860        2.80140      -13.55040
C         -2.30510        3.07740      -14.72930
C         -0.94940        2.82000      -14.78350
C         -0.26890        2.29660      -13.68220
C         -0.92920        2.02090      -12.50700
C         -2.30120        2.27130      -12.42760
C         -5.38940        2.22130      -10.55240
C         -6.73690        2.46550      -10.55180
C         -7.61190        2.23470       -9.47380
N         -8.38030        2.06390       -8.63830
C         -7.38640        2.97440      -11.69790
N         -7.93020        3.38520      -12.62040
H          2.38260        0.03270        7.81570
H          5.28800       -4.60050        4.15820
H          6.85710       -4.96030        2.30060
H          7.68980       -2.36110       -0.25430
H          8.71330       -3.28710        0.84470
H          7.45990       -4.11030       -0.07570
H          6.40980       -0.88900        1.12390
H          4.94490       -0.49210        3.05060
H          2.49990       -3.24830        6.66850
H          3.09880       -4.38070        8.75060
H          6.63220       -5.12010        9.78110
H          5.27770       -4.32080       10.58290
H          5.03040       -5.87330        9.79910
H          7.23840       -3.92440        7.82550
H          6.64850       -2.80830        5.72730
H         -2.13680        2.28440        1.11430
H         -4.17700        1.58000       -0.04320
H         -5.97360       -0.08630       -0.28950
H         -4.97810       -1.25430       -1.15920
H         -5.76850       -1.72630        0.34440
H         -3.67020       -2.38010        1.46080
H         -1.60220       -1.69210        2.58480
H         -2.36670        2.20120        3.76030
H         -2.05860        4.47520        4.62580
H          1.10600        6.06190        5.17960
H          0.30180        6.68910        3.74360
H         -0.64540        6.31380        5.18730
H          2.02100        4.40090        3.39790
H          1.70170        2.15130        2.46110
H          2.77570       -2.18020       -1.20910
H          4.86050       -3.44000       -0.83950
H          4.65220       -6.84960        2.22890
H          6.03670       -7.75340        1.56870
H          4.41000       -8.07270        0.93850
H          2.61290       -6.64390        0.88670
H          0.55240       -5.38790        0.53230
H         -2.25620       -2.61160       -0.41130
H         -4.10180       -3.80110       -1.48080
H         -4.97650       -3.88600       -3.80950
H         -5.94270       -4.74090       -2.56220
H         -6.08430       -5.20010       -4.27070
H         -1.30990       -6.45240       -3.33680
H          0.54840       -5.25330       -2.25960
H          0.87420        2.66340       -2.60720
H          2.05420        4.23030       -1.15810
H          3.13830        6.07860       -0.26180
H          3.24830        6.45800        1.46860
H          2.95980        4.77680        0.96050
H         -1.68100        5.56650        0.44250
H         -2.87010        3.97980       -1.02520
H         -2.23020        4.43330       -4.09070
H         -4.30020        4.91520       -5.34740
H         -8.59620        2.26320       -6.22230
H         -7.30980        1.18850       -5.64400
H         -8.24170        2.18320       -4.47760
H         -6.09620        1.39060       -3.72120
H         -4.03910        0.90680       -2.50340
H         -6.01460        1.28930       -8.00670
H         -2.83200        3.48180      -15.57920
H         -0.40690        3.02700      -15.69330
H          0.79090        2.10710      -13.75880
H         -0.41930        1.61680      -11.64680
