
  xtb     02112220443D
 energy: -401.448769619673 gnorm: 0.000429739431 xtb: 6.4.1 (unknown)
226246  0     0  0            999 V2000
    2.4720    0.7346   -9.3573 C   0  0  0  0  0  0  0  0  0  0  0  0
    1.7756    0.0782  -10.3419 C   0  0  0  0  0  0  0  0  0  0  0  0
    2.0320    0.3422  -11.7674 C   0  0  0  0  0  0  0  0  0  0  0  0
    2.9658    0.9449  -12.2457 O   0  0  0  0  0  0  0  0  0  0  0  0
    0.8619   -0.2412  -12.4818 C   0  0  0  0  0  0  0  0  0  0  0  0
    0.5003   -0.1305  -13.8119 C   0  0  0  0  0  0  0  0  0  0  0  0
    1.5256    0.6190  -14.9526 Cl  0  0  0  0  0  0  0  0  0  0  0  0
   -0.7451   -0.6423  -14.2079 C   0  0  0  0  0  0  0  0  0  0  0  0
   -1.2215   -0.5456  -15.8482 Cl  0  0  0  0  0  0  0  0  0  0  0  0
   -1.6125   -1.1905  -13.2654 C   0  0  0  0  0  0  0  0  0  0  0  0
   -3.1642   -1.7184  -13.7552 Cl  0  0  0  0  0  0  0  0  0  0  0  0
   -1.2386   -1.3043  -11.9174 C   0  0  0  0  0  0  0  0  0  0  0  0
   -2.3992   -1.8328  -10.7707 Cl  0  0  0  0  0  0  0  0  0  0  0  0
    0.0272   -0.8823  -11.5447 C   0  0  0  0  0  0  0  0  0  0  0  0
    0.7170   -0.8967  -10.2554 C   0  0  0  0  0  0  0  0  0  0  0  0
    0.6278   -1.8924   -9.3129 C   0  0  0  0  0  0  0  0  0  0  0  0
    1.4765   -1.9749   -8.1901 C   0  0  0  0  0  0  0  0  0  0  0  0
    2.1635   -2.1220   -7.2807 N   0  0  0  0  0  0  0  0  0  0  0  0
   -0.1485   -3.0594   -9.4270 C   0  0  0  0  0  0  0  0  0  0  0  0
   -0.6819   -4.0765   -9.4616 N   0  0  0  0  0  0  0  0  0  0  0  0
    2.0551    0.9149   -8.0367 C   0  0  0  0  0  0  0  0  0  0  0  0
    2.8091    1.4145   -6.9533 C   0  0  0  0  0  0  0  0  0  0  0  0
    4.1449    1.6809   -6.9950 N   0  0  0  0  0  0  0  0  0  0  0  0
    5.0235    0.9537   -7.8286 C   0  0  0  0  0  0  0  0  0  0  0  0
    4.9273   -0.4317   -7.9125 C   0  0  0  0  0  0  0  0  0  0  0  0
    5.7842   -1.1288   -8.7403 C   0  0  0  0  0  0  0  0  0  0  0  0
    6.7594   -0.4741   -9.4844 C   0  0  0  0  0  0  0  0  0  0  0  0
    7.6627   -1.2314  -10.4065 C   0  0  0  0  0  0  0  0  0  0  0  0
    6.8618    0.9075   -9.3699 C   0  0  0  0  0  0  0  0  0  0  0  0
    6.0061    1.6201   -8.5533 C   0  0  0  0  0  0  0  0  0  0  0  0
    4.6809    2.7222   -6.2145 C   0  0  0  0  0  0  0  0  0  0  0  0
    4.0245    3.9461   -6.1285 C   0  0  0  0  0  0  0  0  0  0  0  0
    4.6084    4.9990   -5.4517 C   0  0  0  0  0  0  0  0  0  0  0  0
    5.8448    4.8546   -4.8358 C   0  0  0  0  0  0  0  0  0  0  0  0
    6.5005    5.9988   -4.1265 C   0  0  0  0  0  0  0  0  0  0  0  0
    6.4771    3.6166   -4.8993 C   0  0  0  0  0  0  0  0  0  0  0  0
    5.9109    2.5609   -5.5826 C   0  0  0  0  0  0  0  0  0  0  0  0
    2.0071    1.5428   -5.7998 C   0  0  0  0  0  0  0  0  0  0  0  0
    2.3026    1.9789   -4.1436 S   0  0  0  0  0  0  0  0  0  0  0  0
    0.6498    1.5543   -3.7139 C   0  0  0  0  0  0  0  0  0  0  0  0
   -0.1038    1.1936   -4.8287 C   0  0  0  0  0  0  0  0  0  0  0  0
   -1.4686    0.9327   -4.7938 N   0  0  0  0  0  0  0  0  0  0  0  0
   -2.3340    1.9418   -4.3483 C   0  0  0  0  0  0  0  0  0  0  0  0
   -1.9606    3.2827   -4.4042 C   0  0  0  0  0  0  0  0  0  0  0  0
   -2.8240    4.2638   -3.9568 C   0  0  0  0  0  0  0  0  0  0  0  0
   -4.0795    3.9468   -3.4550 C   0  0  0  0  0  0  0  0  0  0  0  0
   -5.0059    5.0163   -2.9628 C   0  0  0  0  0  0  0  0  0  0  0  0
   -4.4457    2.6069   -3.4099 C   0  0  0  0  0  0  0  0  0  0  0  0
   -3.5887    1.6158   -3.8412 C   0  0  0  0  0  0  0  0  0  0  0  0
   -1.9406   -0.1834   -5.5061 C   0  0  0  0  0  0  0  0  0  0  0  0
   -1.2264   -1.3790   -5.4494 C   0  0  0  0  0  0  0  0  0  0  0  0
   -1.6719   -2.4901   -6.1352 C   0  0  0  0  0  0  0  0  0  0  0  0
   -2.8418   -2.4496   -6.8880 C   0  0  0  0  0  0  0  0  0  0  0  0
   -3.3310   -3.6741   -7.5978 C   0  0  0  0  0  0  0  0  0  0  0  0
   -3.5357   -1.2473   -6.9542 C   0  0  0  0  0  0  0  0  0  0  0  0
   -3.0946   -0.1246   -6.2806 C   0  0  0  0  0  0  0  0  0  0  0  0
    0.6842    1.1622   -5.9895 C   0  0  0  0  0  0  0  0  0  0  0  0
    0.3622    0.6473   -7.5987 S   0  0  0  0  0  0  0  0  0  0  0  0
    0.2384    1.3634   -2.3717 C   0  0  0  0  0  0  0  0  0  0  0  0
    0.8190    1.8185   -1.1917 C   0  0  0  0  0  0  0  0  0  0  0  0
    1.8052    2.7778   -1.0735 N   0  0  0  0  0  0  0  0  0  0  0  0
    1.8308    3.9422   -1.8436 C   0  0  0  0  0  0  0  0  0  0  0  0
    3.0375    4.6256   -2.0078 C   0  0  0  0  0  0  0  0  0  0  0  0
    3.0808    5.7932   -2.7316 C   0  0  0  0  0  0  0  0  0  0  0  0
    1.9317    6.2913   -3.3424 C   0  0  0  0  0  0  0  0  0  0  0  0
    2.1249    7.7677   -4.2933 S   0  0  0  0  0  0  0  0  0  0  0  0
    0.4323    8.2047   -4.7773 C   0  0  0  0  0  0  0  0  0  0  0  0
    0.7319    5.6132   -3.1872 C   0  0  0  0  0  0  0  0  0  0  0  0
    0.6797    4.4579   -2.4318 C   0  0  0  0  0  0  0  0  0  0  0  0
    2.6547    2.6726    0.0487 C   0  0  0  0  0  0  0  0  0  0  0  0
    2.8012    3.7337    0.9411 C   0  0  0  0  0  0  0  0  0  0  0  0
    3.5471    3.5733    2.0870 C   0  0  0  0  0  0  0  0  0  0  0  0
    4.1630    2.3539    2.3634 C   0  0  0  0  0  0  0  0  0  0  0  0
    5.0545    2.2394    3.8817 S   0  0  0  0  0  0  0  0  0  0  0  0
    5.1523    0.4511    4.1804 C   0  0  0  0  0  0  0  0  0  0  0  0
    4.0613    1.3113    1.4522 C   0  0  0  0  0  0  0  0  0  0  0  0
    3.3107    1.4722    0.3038 C   0  0  0  0  0  0  0  0  0  0  0  0
    0.2691    1.1463   -0.0747 C   0  0  0  0  0  0  0  0  0  0  0  0
    0.5887    1.2080    1.6170 S   0  0  0  0  0  0  0  0  0  0  0  0
   -0.5624   -0.1004    1.9171 C   0  0  0  0  0  0  0  0  0  0  0  0
   -1.1457   -0.5610    0.7353 C   0  0  0  0  0  0  0  0  0  0  0  0
   -1.9956   -1.6326    0.5801 N   0  0  0  0  0  0  0  0  0  0  0  0
   -2.9267   -1.5959   -0.4806 C   0  0  0  0  0  0  0  0  0  0  0  0
   -3.8237   -0.5359   -0.5890 C   0  0  0  0  0  0  0  0  0  0  0  0
   -4.7539   -0.5269   -1.6028 C   0  0  0  0  0  0  0  0  0  0  0  0
   -4.7868   -1.5552   -2.5454 C   0  0  0  0  0  0  0  0  0  0  0  0
   -5.9964   -1.4081   -3.8187 S   0  0  0  0  0  0  0  0  0  0  0  0
   -5.8330   -2.9472   -4.7611 C   0  0  0  0  0  0  0  0  0  0  0  0
   -3.8820   -2.6043   -2.4461 C   0  0  0  0  0  0  0  0  0  0  0  0
   -2.9684   -2.6280   -1.4113 C   0  0  0  0  0  0  0  0  0  0  0  0
   -1.9007   -2.8109    1.3255 C   0  0  0  0  0  0  0  0  0  0  0  0
   -3.0615   -3.5347    1.6106 C   0  0  0  0  0  0  0  0  0  0  0  0
   -3.0016   -4.6604    2.3977 C   0  0  0  0  0  0  0  0  0  0  0  0
   -1.7837   -5.0951    2.9164 C   0  0  0  0  0  0  0  0  0  0  0  0
   -1.8235   -6.5211    3.9538 S   0  0  0  0  0  0  0  0  0  0  0  0
   -0.2906   -6.3733    4.9163 C   0  0  0  0  0  0  0  0  0  0  0  0
   -0.6195   -4.4132    2.5892 C   0  0  0  0  0  0  0  0  0  0  0  0
   -0.6780   -3.2823    1.7980 C   0  0  0  0  0  0  0  0  0  0  0  0
   -0.6936    0.1992   -0.3761 C   0  0  0  0  0  0  0  0  0  0  0  0
   -1.0355    0.1717   -2.0731 S   0  0  0  0  0  0  0  0  0  0  0  0
   -0.6976   -0.4593    3.2828 C   0  0  0  0  0  0  0  0  0  0  0  0
    0.0993    0.0354    4.2877 C   0  0  0  0  0  0  0  0  0  0  0  0
   -0.2251   -0.4363    5.5725 C   0  0  0  0  0  0  0  0  0  0  0  0
    0.4350   -0.1599    6.7838 C   0  0  0  0  0  0  0  0  0  0  0  0
    1.5511    0.7943    6.8372 C   0  0  0  0  0  0  0  0  0  0  0  0
    2.7559    0.4414    7.4367 C   0  0  0  0  0  0  0  0  0  0  0  0
    3.7900    1.3552    7.4716 C   0  0  0  0  0  0  0  0  0  0  0  0
    4.9563    0.9725    8.0317 F   0  0  0  0  0  0  0  0  0  0  0  0
    3.6985    2.6374    6.9416 C   0  0  0  0  0  0  0  0  0  0  0  0
    4.8205    3.6249    7.0482 C   0  0  0  0  0  0  0  0  0  0  0  0
    4.7725    4.3411    8.3998 C   0  0  0  0  0  0  0  0  0  0  0  0
    2.4785    2.9503    6.3525 C   0  0  0  0  0  0  0  0  0  0  0  0
    2.3157    4.1751    5.8132 F   0  0  0  0  0  0  0  0  0  0  0  0
    1.4211    2.0654    6.2846 C   0  0  0  0  0  0  0  0  0  0  0  0
   -0.0262   -0.8244    7.9079 C   0  0  0  0  0  0  0  0  0  0  0  0
   -1.0832   -1.7779    7.8648 C   0  0  0  0  0  0  0  0  0  0  0  0
   -1.7124   -2.0884    6.6379 C   0  0  0  0  0  0  0  0  0  0  0  0
   -2.6619   -3.1987    6.5165 C   0  0  0  0  0  0  0  0  0  0  0  0
   -3.8176   -3.0895    5.7508 C   0  0  0  0  0  0  0  0  0  0  0  0
   -4.6299   -4.1936    5.5821 C   0  0  0  0  0  0  0  0  0  0  0  0
   -4.3556   -5.4374    6.1368 C   0  0  0  0  0  0  0  0  0  0  0  0
   -5.2467   -6.6275    5.9504 C   0  0  0  0  0  0  0  0  0  0  0  0
   -6.1256   -6.8427    7.1846 C   0  0  0  0  0  0  0  0  0  0  0  0
   -3.1968   -5.5029    6.9040 C   0  0  0  0  0  0  0  0  0  0  0  0
   -2.3575   -4.4271    7.1011 C   0  0  0  0  0  0  0  0  0  0  0  0
   -2.8565   -6.6820    7.4601 F   0  0  0  0  0  0  0  0  0  0  0  0
   -5.7376   -4.0528    4.8254 F   0  0  0  0  0  0  0  0  0  0  0  0
   -1.3065   -1.3586    5.5366 C   0  0  0  0  0  0  0  0  0  0  0  0
   -1.9367   -1.5224    3.9172 S   0  0  0  0  0  0  0  0  0  0  0  0
   -1.4098   -2.2726    9.1385 C   0  0  0  0  0  0  0  0  0  0  0  0
   -0.6429   -1.7485   10.1541 C   0  0  0  0  0  0  0  0  0  0  0  0
    0.5512   -0.6030    9.5308 S   0  0  0  0  0  0  0  0  0  0  0  0
   -0.6376   -1.9532   11.5488 C   0  0  0  0  0  0  0  0  0  0  0  0
   -1.4400   -2.7069   12.3648 C   0  0  0  0  0  0  0  0  0  0  0  0
   -2.6290   -3.5126   12.0096 C   0  0  0  0  0  0  0  0  0  0  0  0
   -3.0842   -3.7759   10.9159 O   0  0  0  0  0  0  0  0  0  0  0  0
   -3.1992   -3.9683   13.2958 C   0  0  0  0  0  0  0  0  0  0  0  0
   -4.3403   -4.7172   13.4955 C   0  0  0  0  0  0  0  0  0  0  0  0
   -4.6828   -5.0143   14.8070 C   0  0  0  0  0  0  0  0  0  0  0  0
   -6.2455   -6.0382   15.1509 Br  0  0  0  0  0  0  0  0  0  0  0  0
   -3.9108   -4.5786   15.8761 C   0  0  0  0  0  0  0  0  0  0  0  0
   -2.7634   -3.8301   15.6623 C   0  0  0  0  0  0  0  0  0  0  0  0
   -2.3995   -3.5201   14.3589 C   0  0  0  0  0  0  0  0  0  0  0  0
   -1.2720   -2.7705   13.8101 C   0  0  0  0  0  0  0  0  0  0  0  0
   -0.2362   -2.2694   14.5548 C   0  0  0  0  0  0  0  0  0  0  0  0
    0.9102   -1.6047   14.0674 C   0  0  0  0  0  0  0  0  0  0  0  0
    1.8841   -1.0703   13.7751 N   0  0  0  0  0  0  0  0  0  0  0  0
   -0.1521   -2.3757   15.9601 C   0  0  0  0  0  0  0  0  0  0  0  0
   -0.0191   -2.4203   17.0994 N   0  0  0  0  0  0  0  0  0  0  0  0
    3.3745    1.2426   -9.6754 H   0  0  0  0  0  0  0  0  0  0  0  0
    4.1764   -0.9567   -7.3414 H   0  0  0  0  0  0  0  0  0  0  0  0
    5.6958   -2.2034   -8.8021 H   0  0  0  0  0  0  0  0  0  0  0  0
    7.2571   -1.2086  -11.4184 H   0  0  0  0  0  0  0  0  0  0  0  0
    7.7493   -2.2711  -10.1006 H   0  0  0  0  0  0  0  0  0  0  0  0
    8.6540   -0.7846  -10.4337 H   0  0  0  0  0  0  0  0  0  0  0  0
    7.6148    1.4350   -9.9365 H   0  0  0  0  0  0  0  0  0  0  0  0
    6.0866    2.6950   -8.4820 H   0  0  0  0  0  0  0  0  0  0  0  0
    3.0741    4.0792   -6.6250 H   0  0  0  0  0  0  0  0  0  0  0  0
    4.1050    5.9536   -5.4262 H   0  0  0  0  0  0  0  0  0  0  0  0
    6.5351    5.8094   -3.0536 H   0  0  0  0  0  0  0  0  0  0  0  0
    5.9611    6.9263   -4.3013 H   0  0  0  0  0  0  0  0  0  0  0  0
    7.5259    6.1217   -4.4714 H   0  0  0  0  0  0  0  0  0  0  0  0
    7.4341    3.4839   -4.4159 H   0  0  0  0  0  0  0  0  0  0  0  0
    6.4183    1.6097   -5.6429 H   0  0  0  0  0  0  0  0  0  0  0  0
   -0.9987    3.5567   -4.8137 H   0  0  0  0  0  0  0  0  0  0  0  0
   -2.5249    5.3010   -4.0147 H   0  0  0  0  0  0  0  0  0  0  0  0
   -4.8409    5.1949   -1.8993 H   0  0  0  0  0  0  0  0  0  0  0  0
   -4.8360    5.9519   -3.4909 H   0  0  0  0  0  0  0  0  0  0  0  0
   -6.0435    4.7197   -3.0960 H   0  0  0  0  0  0  0  0  0  0  0  0
   -5.4214    2.3348   -3.0352 H   0  0  0  0  0  0  0  0  0  0  0  0
   -3.8848    0.5815   -3.7968 H   0  0  0  0  0  0  0  0  0  0  0  0
   -0.3224   -1.4316   -4.8602 H   0  0  0  0  0  0  0  0  0  0  0  0
   -1.1066   -3.4093   -6.0835 H   0  0  0  0  0  0  0  0  0  0  0  0
   -3.4628   -4.4991   -6.8978 H   0  0  0  0  0  0  0  0  0  0  0  0
   -4.2774   -3.4842   -8.0985 H   0  0  0  0  0  0  0  0  0  0  0  0
   -2.6010   -3.9952   -8.3409 H   0  0  0  0  0  0  0  0  0  0  0  0
   -4.4367   -1.1830   -7.5476 H   0  0  0  0  0  0  0  0  0  0  0  0
   -3.6447    0.8011   -6.3572 H   0  0  0  0  0  0  0  0  0  0  0  0
    3.9370    4.2348   -1.5578 H   0  0  0  0  0  0  0  0  0  0  0  0
    4.0069    6.3337   -2.8342 H   0  0  0  0  0  0  0  0  0  0  0  0
    0.0200    7.4400   -5.4294 H   0  0  0  0  0  0  0  0  0  0  0  0
    0.5154    9.1422   -5.3184 H   0  0  0  0  0  0  0  0  0  0  0  0
   -0.1798    8.3432   -3.8907 H   0  0  0  0  0  0  0  0  0  0  0  0
   -0.1776    5.9780   -3.6353 H   0  0  0  0  0  0  0  0  0  0  0  0
   -0.2690    3.9602   -2.2962 H   0  0  0  0  0  0  0  0  0  0  0  0
    2.3029    4.6705    0.7430 H   0  0  0  0  0  0  0  0  0  0  0  0
    3.6386    4.3808    2.7964 H   0  0  0  0  0  0  0  0  0  0  0  0
    5.4903    0.3408    5.2060 H   0  0  0  0  0  0  0  0  0  0  0  0
    4.1658    0.0115    4.0655 H   0  0  0  0  0  0  0  0  0  0  0  0
    5.8715   -0.0088    3.5090 H   0  0  0  0  0  0  0  0  0  0  0  0
    4.5576    0.3704    1.6277 H   0  0  0  0  0  0  0  0  0  0  0  0
    3.2171    0.6573   -0.3993 H   0  0  0  0  0  0  0  0  0  0  0  0
   -3.7948    0.2650    0.1347 H   0  0  0  0  0  0  0  0  0  0  0  0
   -5.4707    0.2753   -1.6768 H   0  0  0  0  0  0  0  0  0  0  0  0
   -4.8530   -2.9892   -5.2264 H   0  0  0  0  0  0  0  0  0  0  0  0
   -6.0084   -3.7987   -4.1102 H   0  0  0  0  0  0  0  0  0  0  0  0
   -6.6023   -2.9036   -5.5259 H   0  0  0  0  0  0  0  0  0  0  0  0
   -3.8738   -3.4042   -3.1678 H   0  0  0  0  0  0  0  0  0  0  0  0
   -2.2731   -3.4497   -1.3252 H   0  0  0  0  0  0  0  0  0  0  0  0
   -4.0115   -3.1865    1.2358 H   0  0  0  0  0  0  0  0  0  0  0  0
   -3.9004   -5.2062    2.6377 H   0  0  0  0  0  0  0  0  0  0  0  0
   -0.1885   -5.3513    5.2693 H   0  0  0  0  0  0  0  0  0  0  0  0
    0.5653   -6.6729    4.3183 H   0  0  0  0  0  0  0  0  0  0  0  0
   -0.4047   -7.0496    5.7578 H   0  0  0  0  0  0  0  0  0  0  0  0
    0.3402   -4.7541    2.9440 H   0  0  0  0  0  0  0  0  0  0  0  0
    0.2314   -2.7525    1.5543 H   0  0  0  0  0  0  0  0  0  0  0  0
    0.9228    0.6992    4.0942 H   0  0  0  0  0  0  0  0  0  0  0  0
    2.9020   -0.5386    7.8622 H   0  0  0  0  0  0  0  0  0  0  0  0
    5.7729    3.1020    6.9480 H   0  0  0  0  0  0  0  0  0  0  0  0
    4.7392    4.3530    6.2409 H   0  0  0  0  0  0  0  0  0  0  0  0
    4.8617    3.6244    9.2131 H   0  0  0  0  0  0  0  0  0  0  0  0
    5.5913    5.0518    8.4727 H   0  0  0  0  0  0  0  0  0  0  0  0
    3.8338    4.8793    8.5118 H   0  0  0  0  0  0  0  0  0  0  0  0
    0.4968    2.3793    5.8261 H   0  0  0  0  0  0  0  0  0  0  0  0
   -4.1053   -2.1535    5.3002 H   0  0  0  0  0  0  0  0  0  0  0  0
   -4.6271   -7.5116    5.7870 H   0  0  0  0  0  0  0  0  0  0  0  0
   -5.8770   -6.4758    5.0735 H   0  0  0  0  0  0  0  0  0  0  0  0
   -5.5099   -7.0133    8.0643 H   0  0  0  0  0  0  0  0  0  0  0  0
   -6.7515   -5.9706    7.3617 H   0  0  0  0  0  0  0  0  0  0  0  0
   -6.7677   -7.7072    7.0379 H   0  0  0  0  0  0  0  0  0  0  0  0
   -1.4594   -4.5602    7.6830 H   0  0  0  0  0  0  0  0  0  0  0  0
   -2.2071   -2.9690    9.3197 H   0  0  0  0  0  0  0  0  0  0  0  0
    0.1402   -1.3873   12.0478 H   0  0  0  0  0  0  0  0  0  0  0  0
   -4.9343   -5.0509   12.6588 H   0  0  0  0  0  0  0  0  0  0  0  0
   -4.2080   -4.8258   16.8836 H   0  0  0  0  0  0  0  0  0  0  0  0
   -2.1830   -3.5026   16.5086 H   0  0  0  0  0  0  0  0  0  0  0  0
  1  2  2  0  0  0  0
  2  3  1  0  0  0  0
  3  4  2  0  0  0  0
  3  5  1  0  0  0  0
  5  6  2  0  0  0  0
  6  7  1  0  0  0  0
  6  8  1  0  0  0  0
  8  9  1  0  0  0  0
  8 10  2  0  0  0  0
 10 11  1  0  0  0  0
 10 12  1  0  0  0  0
 12 13  1  0  0  0  0
 12 14  2  0  0  0  0
 14 15  1  0  0  0  0
 15 16  2  0  0  0  0
 16 17  1  0  0  0  0
 17 18  3  0  0  0  0
 16 19  1  0  0  0  0
 19 20  3  0  0  0  0
  1 21  1  0  0  0  0
 21 22  2  0  0  0  0
 22 23  1  0  0  0  0
 23 24  1  0  0  0  0
 24 25  2  0  0  0  0
 25 26  1  0  0  0  0
 26 27  2  0  0  0  0
 27 28  1  0  0  0  0
 27 29  1  0  0  0  0
 29 30  2  0  0  0  0
 23 31  1  0  0  0  0
 31 32  2  0  0  0  0
 32 33  1  0  0  0  0
 33 34  2  0  0  0  0
 34 35  1  0  0  0  0
 34 36  1  0  0  0  0
 36 37  2  0  0  0  0
 22 38  1  0  0  0  0
 38 39  1  0  0  0  0
 39 40  1  0  0  0  0
 40 41  2  0  0  0  0
 41 42  1  0  0  0  0
 42 43  1  0  0  0  0
 43 44  2  0  0  0  0
 44 45  1  0  0  0  0
 45 46  2  0  0  0  0
 46 47  1  0  0  0  0
 46 48  1  0  0  0  0
 48 49  2  0  0  0  0
 42 50  1  0  0  0  0
 50 51  2  0  0  0  0
 51 52  1  0  0  0  0
 52 53  2  0  0  0  0
 53 54  1  0  0  0  0
 53 55  1  0  0  0  0
 55 56  2  0  0  0  0
 41 57  1  0  0  0  0
 57 58  1  0  0  0  0
 40 59  1  0  0  0  0
 59 60  2  0  0  0  0
 60 61  1  0  0  0  0
 61 62  1  0  0  0  0
 62 63  2  0  0  0  0
 63 64  1  0  0  0  0
 64 65  2  0  0  0  0
 65 66  1  0  0  0  0
 66 67  1  0  0  0  0
 65 68  1  0  0  0  0
 68 69  2  0  0  0  0
 61 70  1  0  0  0  0
 70 71  2  0  0  0  0
 71 72  1  0  0  0  0
 72 73  2  0  0  0  0
 73 74  1  0  0  0  0
 74 75  1  0  0  0  0
 73 76  1  0  0  0  0
 76 77  2  0  0  0  0
 60 78  1  0  0  0  0
 78 79  1  0  0  0  0
 79 80  1  0  0  0  0
 80 81  2  0  0  0  0
 81 82  1  0  0  0  0
 82 83  1  0  0  0  0
 83 84  2  0  0  0  0
 84 85  1  0  0  0  0
 85 86  2  0  0  0  0
 86 87  1  0  0  0  0
 87 88  1  0  0  0  0
 86 89  1  0  0  0  0
 89 90  2  0  0  0  0
 82 91  1  0  0  0  0
 91 92  2  0  0  0  0
 92 93  1  0  0  0  0
 93 94  2  0  0  0  0
 94 95  1  0  0  0  0
 95 96  1  0  0  0  0
 94 97  1  0  0  0  0
 97 98  2  0  0  0  0
 81 99  1  0  0  0  0
 99100  1  0  0  0  0
 80101  1  0  0  0  0
101102  2  0  0  0  0
102103  1  0  0  0  0
103104  2  0  0  0  0
104105  1  0  0  0  0
105106  2  0  0  0  0
106107  1  0  0  0  0
107108  1  0  0  0  0
107109  2  0  0  0  0
109110  1  0  0  0  0
110111  1  0  0  0  0
109112  1  0  0  0  0
112113  1  0  0  0  0
112114  2  0  0  0  0
104115  1  0  0  0  0
115116  2  0  0  0  0
116117  1  0  0  0  0
117118  1  0  0  0  0
118119  2  0  0  0  0
119120  1  0  0  0  0
120121  2  0  0  0  0
121122  1  0  0  0  0
122123  1  0  0  0  0
121124  1  0  0  0  0
124125  2  0  0  0  0
124126  1  0  0  0  0
120127  1  0  0  0  0
117128  2  0  0  0  0
128129  1  0  0  0  0
116130  1  0  0  0  0
130131  2  0  0  0  0
131132  1  0  0  0  0
131133  1  0  0  0  0
133134  2  0  0  0  0
134135  1  0  0  0  0
135136  2  0  0  0  0
135137  1  0  0  0  0
137138  2  0  0  0  0
138139  1  0  0  0  0
139140  1  0  0  0  0
139141  2  0  0  0  0
141142  1  0  0  0  0
142143  2  0  0  0  0
143144  1  0  0  0  0
144145  2  0  0  0  0
145146  1  0  0  0  0
146147  3  0  0  0  0
145148  1  0  0  0  0
148149  3  0  0  0  0
 15  2  1  0  0  0  0
 58 21  1  0  0  0  0
100 59  1  0  0  0  0
129101  1  0  0  0  0
144134  1  0  0  0  0
 14  5  1  0  0  0  0
 30 24  1  0  0  0  0
 37 31  1  0  0  0  0
 57 38  2  0  0  0  0
 69 62  1  0  0  0  0
 77 70  1  0  0  0  0
 99 78  2  0  0  0  0
128103  1  0  0  0  0
143137  1  0  0  0  0
 49 43  1  0  0  0  0
 56 50  1  0  0  0  0
 90 83  1  0  0  0  0
 98 91  1  0  0  0  0
114105  1  0  0  0  0
132115  1  0  0  0  0
125118  1  0  0  0  0
  1150  1  0  0  0  0
 25151  1  0  0  0  0
 26152  1  0  0  0  0
 28153  1  0  0  0  0
 28154  1  0  0  0  0
 28155  1  0  0  0  0
 29156  1  0  0  0  0
 30157  1  0  0  0  0
 32158  1  0  0  0  0
 33159  1  0  0  0  0
 35160  1  0  0  0  0
 35161  1  0  0  0  0
 35162  1  0  0  0  0
 36163  1  0  0  0  0
 37164  1  0  0  0  0
 44165  1  0  0  0  0
 45166  1  0  0  0  0
 47167  1  0  0  0  0
 47168  1  0  0  0  0
 47169  1  0  0  0  0
 48170  1  0  0  0  0
 49171  1  0  0  0  0
 51172  1  0  0  0  0
 52173  1  0  0  0  0
 54174  1  0  0  0  0
 54175  1  0  0  0  0
 54176  1  0  0  0  0
 55177  1  0  0  0  0
 56178  1  0  0  0  0
 63179  1  0  0  0  0
 64180  1  0  0  0  0
 67181  1  0  0  0  0
 67182  1  0  0  0  0
 67183  1  0  0  0  0
 68184  1  0  0  0  0
 69185  1  0  0  0  0
 71186  1  0  0  0  0
 72187  1  0  0  0  0
 75188  1  0  0  0  0
 75189  1  0  0  0  0
 75190  1  0  0  0  0
 76191  1  0  0  0  0
 77192  1  0  0  0  0
 84193  1  0  0  0  0
 85194  1  0  0  0  0
 88195  1  0  0  0  0
 88196  1  0  0  0  0
 88197  1  0  0  0  0
 89198  1  0  0  0  0
 90199  1  0  0  0  0
 92200  1  0  0  0  0
 93201  1  0  0  0  0
 96202  1  0  0  0  0
 96203  1  0  0  0  0
 96204  1  0  0  0  0
 97205  1  0  0  0  0
 98206  1  0  0  0  0
102207  1  0  0  0  0
106208  1  0  0  0  0
110209  1  0  0  0  0
110210  1  0  0  0  0
111211  1  0  0  0  0
111212  1  0  0  0  0
111213  1  0  0  0  0
114214  1  0  0  0  0
119215  1  0  0  0  0
122216  1  0  0  0  0
122217  1  0  0  0  0
123218  1  0  0  0  0
123219  1  0  0  0  0
123220  1  0  0  0  0
125221  1  0  0  0  0
130222  1  0  0  0  0
133223  1  0  0  0  0
138224  1  0  0  0  0
141225  1  0  0  0  0
142226  1  0  0  0  0
M  END
