235

C         -7.67520       -6.83160       -4.64810
C         -8.14700       -7.03210       -5.93270
C         -7.54960       -6.49090       -7.14690
O         -6.68480       -5.64090       -7.24790
C         -8.21050       -7.19900       -8.26920
C         -8.02700       -7.01770       -9.62620
Cl        -6.83730       -5.95530      -10.22710
C         -8.85240       -7.72570      -10.51050
Cl        -8.63680       -7.56260      -12.20000
C         -9.87250       -8.53120      -10.01110
Cl       -10.92350       -9.32090      -11.10730
C        -10.06500       -8.69800       -8.62950
Cl       -11.44120       -9.58200       -8.11140
C         -9.18210       -8.08040       -7.75130
C         -9.11150       -8.03930       -6.29220
C         -9.75810       -8.88150       -5.40830
C         -9.94750       -8.60150       -4.04270
N        -10.22000       -8.41590       -2.94020
C        -10.19190      -10.19050       -5.68290
N        -10.42090      -11.31520       -5.74990
C         -6.64820       -6.03060       -4.17160
C         -6.17010       -6.09850       -2.83180
N         -6.51840       -7.03710       -1.90250
C         -6.82590       -8.37150       -2.22930
C         -6.16460       -9.02290       -3.26990
C         -6.51980      -10.31000       -3.61380
C         -7.51460      -10.99460       -2.91950
C         -7.93800      -12.36470       -3.34250
C         -8.12040      -10.35850       -1.84390
C         -7.79270       -9.06010       -1.50210
C         -6.46850       -6.67290       -0.53970
C         -7.03700       -5.47270       -0.12220
C         -6.96280       -5.09650        1.20370
C         -6.33420       -5.90570        2.14260
C         -6.21970       -5.47400        3.57160
C         -5.79340       -7.11480        1.71930
C         -5.85520       -7.50020        0.39490
C         -5.25040       -5.06610       -2.58320
S         -4.32440       -4.59510       -1.19430
C         -3.57070       -3.32280       -2.12620
C         -4.06370       -3.21830       -3.41760
N         -3.76770       -2.18570       -4.28460
C         -3.49630       -0.90700       -3.76940
C         -4.19980       -0.42370       -2.66800
C         -3.81970        0.75550       -2.06030
C         -2.75490        1.50110       -2.54960
C         -2.29330        2.74070       -1.84770
C         -2.12570        1.06590       -3.71000
C         -2.48170       -0.12520       -4.31340
C         -3.78780       -2.41440       -5.66970
C         -3.29510       -3.60670       -6.19400
C         -3.35800       -3.84500       -7.55210
C         -3.89520       -2.90330       -8.42080
C         -3.99000       -3.18980       -9.88710
C         -4.35890       -1.70540       -7.89130
C         -4.31220       -1.45840       -6.53370
C         -4.99960       -4.25010       -3.68200
S         -5.85650       -4.74780       -5.09460
C         -2.61820       -2.44890       -1.49400
C         -1.39460       -2.01220       -1.91050
C         -0.94430       -1.07910       -0.93560
C          0.21210       -0.29470       -0.80290
C          1.32720       -0.29450       -1.75330
C          1.10300       -0.37100       -3.12670
C          2.16100       -0.36980       -4.01380
C          3.47380       -0.29130       -3.56370
C          4.61930       -0.35540       -4.53250
C          4.94000       -1.81010       -4.88230
C          3.69630       -0.20010       -2.19550
C          2.64330       -0.19920       -1.30230
C          0.21660        0.50060        0.33560
C         -0.83640        0.58310        1.28420
C         -1.98760       -0.20850        1.15380
C         -3.13290       -0.15660        2.06330
C         -3.82770       -1.31660        2.40390
C         -4.93150       -1.25650        3.23070
C         -5.38100       -0.04360        3.73820
C         -6.55790        0.01130        4.66900
C         -6.09770       -0.12900        6.12150
C         -4.68850        1.11130        3.39640
C         -3.58260        1.06080        2.57090
C         -1.97320       -1.04190        0.04130
O         -2.96680       -1.89380       -0.30210
C         -0.39120        1.51850        2.26080
C          0.84590        1.94400        1.85670
O          1.21670        1.33680        0.69300
C          1.85030        2.79680        2.40350
C          1.81030        3.81250        3.34850
N          0.68290        4.29340        3.98850
C         -0.53720        4.43650        3.31930
C         -1.73520        4.33280        4.02650
C         -2.94240        4.47820        3.37590
C         -3.00040        4.71320        2.00550
C         -4.32260        4.82960        1.31010
C         -1.80400        4.81690        1.30890
C         -0.58760        4.68610        1.95060
C          0.82940        4.77890        5.30120
C          1.59190        4.06780        6.22440
C          1.75850        4.55200        7.50610
C          1.16610        5.74450        7.90490
C          1.37270        6.27020        9.29210
C          0.39980        6.44250        6.97960
C          0.23360        5.97440        5.69150
C          3.10900        4.34740        3.54670
S          3.76950        5.60630        4.52910
C          5.38900        5.30560        3.89640
C          5.39570        4.28400        2.94110
N          6.42860        3.94600        2.09170
C          6.13240        3.78270        0.73020
C          6.73410        2.77910       -0.02430
C          6.40370        2.62110       -1.35600
C          5.47130        3.44620       -1.97200
C          5.07460        3.23330       -3.39990
C          4.89910        4.46500       -1.21930
C          5.22740        4.64230        0.10830
C          7.67140        3.45830        2.56190
C          7.71710        2.30220        3.33230
C          8.93680        1.80240        3.74540
C         10.12350        2.44240        3.40870
C         11.43560        1.88740        3.87180
C         10.06230        3.60130        2.64410
C          8.84890        4.10340        2.21160
C          4.09030        3.76710        2.76030
S          3.45060        2.54160        1.72830
C          6.40430        6.23070        4.23410
C          7.68650        5.92360        4.59620
C          8.04990        4.66540        5.27780
O          7.33390        3.70520        5.47630
C          9.41360        4.87880        5.80140
C         10.17260        3.98550        6.55330
C         11.40790        4.46670        6.91810
C         11.84940        5.75310        6.58280
C         11.10900        6.64790        5.84720
C          9.85690        6.16980        5.45150
C          8.81060        6.82230        4.67100
C          8.90810        8.02290        4.01340
C          7.90270        8.52170        3.16000
N          7.13490        8.96110        2.42730
C         10.02910        8.87310        4.06360
N         10.91140        9.60880        4.06980
C         13.16640        5.57650        7.29860
C         14.40490        5.31510        6.41650
C         15.41020        4.70980        7.36890
C         14.99640        3.48490        7.66690
C         13.70320        3.24260        6.92220
C         13.97310        4.05820        5.65100
C         12.68120        4.13540        7.65830
H         -8.15690       -7.42550       -3.88300
H         -5.38700       -8.50850       -3.81540
H         -6.01310      -10.79720       -4.43430
H         -8.31150      -12.93570       -2.49620
H         -8.74240      -12.28870       -4.07690
H         -7.11390      -12.90460       -3.80290
H         -8.88430      -10.87330       -1.28150
H         -8.29860       -8.56860       -0.68590
H         -7.53690       -4.84190       -0.84250
H         -7.40200       -4.15960        1.51340
H         -7.04540       -4.82240        3.84830
H         -5.28920       -4.92350        3.71630
H         -6.20770       -6.33260        4.23850
H         -5.30700       -7.76020        2.43590
H         -5.42190       -8.43630        0.07540
H         -5.02530       -0.99370       -2.26770
H         -4.35050        1.09210       -1.18130
H         -2.59640        3.62940       -2.40230
H         -1.20730        2.74790       -1.76840
H         -2.71560        2.79370       -0.84720
H         -1.32040        1.65370       -4.12700
H         -1.95990       -0.47170       -5.19400
H         -2.85980       -4.34070       -5.53120
H         -2.98390       -4.77860       -7.94530
H         -4.13650       -2.27560      -10.45700
H         -4.83660       -3.84950      -10.07600
H         -3.09190       -3.69020      -10.24410
H         -4.77740       -0.95770       -8.54970
H         -4.68970       -0.52920       -6.13250
H         -0.88120       -2.33500       -2.79180
H          0.09060       -0.40180       -3.49650
H          1.96610       -0.42580       -5.07600
H          4.36440        0.18560       -5.44680
H          5.50300        0.11040       -4.09290
H          4.07290       -2.29350       -5.32650
H          5.21610       -2.36120       -3.98600
H          5.76530       -1.85930       -5.58910
H          4.70760       -0.12550       -1.82190
H          2.84600       -0.13740       -0.24490
H         -3.49460       -2.27010        2.02420
H         -5.45810       -2.16610        3.48370
H         -7.08280        0.96140        4.54880
H         -7.25490       -0.79570        4.43360
H         -5.41160        0.67450        6.37970
H         -6.94920       -0.09010        6.79710
H         -5.58270       -1.07640        6.26490
H         -5.02700        2.06540        3.77550
H         -3.07580        1.97300        2.29500
H         -0.90000        1.80370        3.15700
H         -1.71090        4.13610        5.08830
H         -3.86010        4.40040        3.94080
H         -4.19730        5.19590        0.29430
H         -4.98140        5.50850        1.84890
H         -4.81270        3.85600        1.26670
H         -1.81910        5.01380        0.24690
H          0.32840        4.79150        1.38940
H          2.05010        3.13450        5.93060
H          2.35580        3.99210        8.21090
H          0.61650        7.00890        9.54580
H          2.35140        6.74500        9.36720
H          1.33730        5.46320       10.02100
H         -0.06630        7.37380        7.26720
H         -0.35370        6.53480        4.97910
H          7.44980        2.11680        0.43960
H          6.87570        1.83280       -1.92500
H          5.90040        2.82420       -3.97730
H          4.75380        4.16660       -3.85650
H          4.24390        2.52770       -3.44960
H          4.18890        5.13460       -1.68220
H          4.78510        5.45040        0.67260
H          6.79810        1.80330        3.59830
H          8.96820        0.90170        4.34080
H         11.56010        2.06600        4.93950
H         12.26510        2.35390        3.34650
H         11.47550        0.81230        3.70600
H         10.97510        4.11630        2.37960
H          8.80470        4.99740        1.60650
H          6.09630        7.27120        4.23850
H          9.78490        3.01160        6.80850
H         11.45260        7.64020        5.60550
H         13.36030        6.27570        8.10970
H         14.73610        6.16920        5.83220
H         16.26140        5.23680        7.75820
H         15.43200        2.78470        8.35540
H         13.40120        2.20540        6.80000
H         13.09660        4.20790        5.02420
H         14.78260        3.63720        5.05660
H         12.56600        3.87100        8.70800
