
  xtb     02112210173D
 energy: -360.932819726683 gnorm: 0.000567898302 xtb: 6.4.1 (unknown)
210229  0     0  0            999 V2000
   -3.5778   -6.9440    4.0880 C   0  0  0  0  0  0  0  0  0  0  0  0
   -4.7639   -7.0401    4.8015 C   0  0  0  0  0  0  0  0  0  0  0  0
   -5.7941   -6.0059    4.7926 C   0  0  0  0  0  0  0  0  0  0  0  0
   -5.7886   -4.9553    4.1789 O   0  0  0  0  0  0  0  0  0  0  0  0
   -6.9305   -6.5727    5.5643 C   0  0  0  0  0  0  0  0  0  0  0  0
   -8.1566   -6.0025    5.8411 C   0  0  0  0  0  0  0  0  0  0  0  0
   -8.4935   -4.3792    5.4263 Cl  0  0  0  0  0  0  0  0  0  0  0  0
   -9.1235   -6.7831    6.4892 C   0  0  0  0  0  0  0  0  0  0  0  0
  -10.6403   -6.1027    6.8970 Cl  0  0  0  0  0  0  0  0  0  0  0  0
   -8.8626   -8.1215    6.7675 C   0  0  0  0  0  0  0  0  0  0  0  0
  -10.0910   -9.0872    7.4682 Cl  0  0  0  0  0  0  0  0  0  0  0  0
   -7.6143   -8.6971    6.4771 C   0  0  0  0  0  0  0  0  0  0  0  0
   -7.4288  -10.3886    6.6984 Cl  0  0  0  0  0  0  0  0  0  0  0  0
   -6.6193   -7.8940    5.9395 C   0  0  0  0  0  0  0  0  0  0  0  0
   -5.2206   -8.1469    5.5893 C   0  0  0  0  0  0  0  0  0  0  0  0
   -4.3866   -9.0973    6.1327 C   0  0  0  0  0  0  0  0  0  0  0  0
   -4.6653   -9.9348    7.2271 C   0  0  0  0  0  0  0  0  0  0  0  0
   -4.7404  -10.5720    8.1808 N   0  0  0  0  0  0  0  0  0  0  0  0
   -3.0204   -9.1979    5.7962 C   0  0  0  0  0  0  0  0  0  0  0  0
   -1.9000   -9.3367    5.5840 N   0  0  0  0  0  0  0  0  0  0  0  0
   -2.9443   -5.7709    3.7029 C   0  0  0  0  0  0  0  0  0  0  0  0
   -3.0427   -4.4402    4.1869 C   0  0  0  0  0  0  0  0  0  0  0  0
   -3.6622   -4.0246    5.3250 N   0  0  0  0  0  0  0  0  0  0  0  0
   -3.8851   -4.8549    6.4327 C   0  0  0  0  0  0  0  0  0  0  0  0
   -2.9465   -5.8047    6.8344 C   0  0  0  0  0  0  0  0  0  0  0  0
   -3.1945   -6.6006    7.9325 C   0  0  0  0  0  0  0  0  0  0  0  0
   -4.3781   -6.4839    8.6595 C   0  0  0  0  0  0  0  0  0  0  0  0
   -4.6307   -7.3647    9.8409 C   0  0  0  0  0  0  0  0  0  0  0  0
   -5.2985   -5.5228    8.2634 C   0  0  0  0  0  0  0  0  0  0  0  0
   -5.0593   -4.7121    7.1698 C   0  0  0  0  0  0  0  0  0  0  0  0
   -4.0209   -2.6626    5.4548 C   0  0  0  0  0  0  0  0  0  0  0  0
   -3.6621   -1.9585    6.5983 C   0  0  0  0  0  0  0  0  0  0  0  0
   -4.0004   -0.6243    6.7179 C   0  0  0  0  0  0  0  0  0  0  0  0
   -4.6911    0.0345    5.7076 C   0  0  0  0  0  0  0  0  0  0  0  0
   -5.0515    1.4820    5.8342 C   0  0  0  0  0  0  0  0  0  0  0  0
   -5.0623   -0.6877    4.5784 C   0  0  0  0  0  0  0  0  0  0  0  0
   -4.7397   -2.0237    4.4489 C   0  0  0  0  0  0  0  0  0  0  0  0
   -2.2847   -3.5702    3.3759 C   0  0  0  0  0  0  0  0  0  0  0  0
   -1.9804   -1.8670    3.4224 S   0  0  0  0  0  0  0  0  0  0  0  0
   -0.8570   -2.0035    2.0816 C   0  0  0  0  0  0  0  0  0  0  0  0
   -0.6958   -3.3233    1.6607 C   0  0  0  0  0  0  0  0  0  0  0  0
    0.1826   -3.7404    0.6685 N   0  0  0  0  0  0  0  0  0  0  0  0
   -0.2996   -4.6647   -0.2729 C   0  0  0  0  0  0  0  0  0  0  0  0
   -1.5814   -4.5045   -0.7936 C   0  0  0  0  0  0  0  0  0  0  0  0
   -2.0785   -5.4119   -1.7047 C   0  0  0  0  0  0  0  0  0  0  0  0
   -1.3155   -6.4948   -2.1274 C   0  0  0  0  0  0  0  0  0  0  0  0
   -1.8707   -7.4621   -3.1268 C   0  0  0  0  0  0  0  0  0  0  0  0
   -0.0392   -6.6474   -1.6023 C   0  0  0  0  0  0  0  0  0  0  0  0
    0.4677   -5.7501   -0.6817 C   0  0  0  0  0  0  0  0  0  0  0  0
    1.5291   -3.3728    0.7127 C   0  0  0  0  0  0  0  0  0  0  0  0
    2.1434   -3.0426    1.9180 C   0  0  0  0  0  0  0  0  0  0  0  0
    3.4633   -2.6344    1.9373 C   0  0  0  0  0  0  0  0  0  0  0  0
    4.2101   -2.5500    0.7705 C   0  0  0  0  0  0  0  0  0  0  0  0
    5.6424   -2.1107    0.7870 C   0  0  0  0  0  0  0  0  0  0  0  0
    3.5919   -2.8897   -0.4290 C   0  0  0  0  0  0  0  0  0  0  0  0
    2.2744   -3.2909   -0.4647 C   0  0  0  0  0  0  0  0  0  0  0  0
   -1.5326   -4.1926    2.3862 C   0  0  0  0  0  0  0  0  0  0  0  0
   -1.7714   -5.9004    2.3752 S   0  0  0  0  0  0  0  0  0  0  0  0
   -0.3550   -0.8364    1.4601 C   0  0  0  0  0  0  0  0  0  0  0  0
   -0.4262    0.4730    1.9283 C   0  0  0  0  0  0  0  0  0  0  0  0
   -0.7751    0.8416    3.2217 N   0  0  0  0  0  0  0  0  0  0  0  0
   -0.1589    0.2297    4.3155 C   0  0  0  0  0  0  0  0  0  0  0  0
    1.1134   -0.3244    4.1976 C   0  0  0  0  0  0  0  0  0  0  0  0
    1.6989   -0.9842    5.2607 C   0  0  0  0  0  0  0  0  0  0  0  0
    1.0254   -1.0959    6.4689 C   0  0  0  0  0  0  0  0  0  0  0  0
    1.6586   -1.9293    7.8909 S   0  0  0  0  0  0  0  0  0  0  0  0
    3.2595   -2.5841    7.3405 C   0  0  0  0  0  0  0  0  0  0  0  0
   -0.2397   -0.5247    6.5979 C   0  0  0  0  0  0  0  0  0  0  0  0
   -0.8269    0.1261    5.5386 C   0  0  0  0  0  0  0  0  0  0  0  0
   -1.6650    1.9103    3.3759 C   0  0  0  0  0  0  0  0  0  0  0  0
   -1.4917    2.8618    4.3764 C   0  0  0  0  0  0  0  0  0  0  0  0
   -2.3782    3.9118    4.5120 C   0  0  0  0  0  0  0  0  0  0  0  0
   -3.4509    4.0355    3.6390 C   0  0  0  0  0  0  0  0  0  0  0  0
   -4.6596    5.3198    3.7215 S   0  0  0  0  0  0  0  0  0  0  0  0
   -4.1375    6.3243    5.1396 C   0  0  0  0  0  0  0  0  0  0  0  0
   -3.6193    3.0928    2.6257 C   0  0  0  0  0  0  0  0  0  0  0  0
   -2.7410    2.0416    2.4970 C   0  0  0  0  0  0  0  0  0  0  0  0
   -0.0511    1.3929    0.9263 C   0  0  0  0  0  0  0  0  0  0  0  0
    0.1100    3.1103    0.8635 S   0  0  0  0  0  0  0  0  0  0  0  0
    0.7268    3.0231   -0.7841 C   0  0  0  0  0  0  0  0  0  0  0  0
    0.8358    1.7157   -1.2332 C   0  0  0  0  0  0  0  0  0  0  0  0
    1.3961    1.2802   -2.4275 N   0  0  0  0  0  0  0  0  0  0  0  0
    0.9455    0.0517   -2.9435 C   0  0  0  0  0  0  0  0  0  0  0  0
   -0.4226   -0.2041   -3.0482 C   0  0  0  0  0  0  0  0  0  0  0  0
   -0.8690   -1.4222   -3.5103 C   0  0  0  0  0  0  0  0  0  0  0  0
    0.0374   -2.4101   -3.8890 C   0  0  0  0  0  0  0  0  0  0  0  0
   -0.6477   -3.9258   -4.4765 S   0  0  0  0  0  0  0  0  0  0  0  0
    0.7851   -5.0306   -4.6086 C   0  0  0  0  0  0  0  0  0  0  0  0
    1.3997   -2.1514   -3.8069 C   0  0  0  0  0  0  0  0  0  0  0  0
    1.8471   -0.9338   -3.3340 C   0  0  0  0  0  0  0  0  0  0  0  0
    2.5285    1.8854   -2.9850 C   0  0  0  0  0  0  0  0  0  0  0  0
    3.4661    2.5569   -2.2003 C   0  0  0  0  0  0  0  0  0  0  0  0
    4.5511    3.1701   -2.7846 C   0  0  0  0  0  0  0  0  0  0  0  0
    4.7403    3.1192   -4.1638 C   0  0  0  0  0  0  0  0  0  0  0  0
    6.1627    3.9358   -4.8138 S   0  0  0  0  0  0  0  0  0  0  0  0
    6.4458    3.0740   -6.3897 C   0  0  0  0  0  0  0  0  0  0  0  0
    3.8135    2.4481   -4.9510 C   0  0  0  0  0  0  0  0  0  0  0  0
    2.7201    1.8406   -4.3655 C   0  0  0  0  0  0  0  0  0  0  0  0
    0.3549    0.8047   -0.2598 C   0  0  0  0  0  0  0  0  0  0  0  0
    0.2498   -0.9176   -0.1889 S   0  0  0  0  0  0  0  0  0  0  0  0
    1.0963    4.2544   -1.4449 C   0  0  0  0  0  0  0  0  0  0  0  0
    1.0303    4.3640   -2.8334 C   0  0  0  0  0  0  0  0  0  0  0  0
    1.4880    5.5288   -3.4214 C   0  0  0  0  0  0  0  0  0  0  0  0
    1.5803    5.8520   -4.7528 N   0  0  0  0  0  0  0  0  0  0  0  0
    1.2236    4.9954   -5.8518 C   0  0  0  0  0  0  0  0  0  0  0  0
   -0.2284    5.1997   -6.2808 C   0  0  0  0  0  0  0  0  0  0  0  0
    2.0991    7.1175   -4.8576 C   0  0  0  0  0  0  0  0  0  0  0  0
    2.3566    7.6322   -3.5575 C   0  0  0  0  0  0  0  0  0  0  0  0
    1.9643    6.6126   -2.6404 C   0  0  0  0  0  0  0  0  0  0  0  0
    1.9685    6.5133   -1.2522 C   0  0  0  0  0  0  0  0  0  0  0  0
    1.5424    5.3434   -0.6727 C   0  0  0  0  0  0  0  0  0  0  0  0
    2.8825    8.9118   -3.4102 C   0  0  0  0  0  0  0  0  0  0  0  0
    3.1583    9.6505   -4.5360 C   0  0  0  0  0  0  0  0  0  0  0  0
    2.9508    9.1278   -5.8276 C   0  0  0  0  0  0  0  0  0  0  0  0
    2.3829    7.8590   -5.9857 C   0  0  0  0  0  0  0  0  0  0  0  0
    3.3150    9.9259   -6.9651 C   0  0  0  0  0  0  0  0  0  0  0  0
    3.6969    9.5061   -8.1987 C   0  0  0  0  0  0  0  0  0  0  0  0
    3.6539   10.4438   -9.3531 C   0  0  0  0  0  0  0  0  0  0  0  0
    3.5372   11.6470   -9.3096 O   0  0  0  0  0  0  0  0  0  0  0  0
    3.7211    9.5840  -10.5530 C   0  0  0  0  0  0  0  0  0  0  0  0
    3.6171    9.9348  -11.8677 C   0  0  0  0  0  0  0  0  0  0  0  0
    3.6926    8.9300  -12.8583 C   0  0  0  0  0  0  0  0  0  0  0  0
    3.5983    9.2404  -14.2304 C   0  0  0  0  0  0  0  0  0  0  0  0
    3.6701    8.2608  -15.1813 C   0  0  0  0  0  0  0  0  0  0  0  0
    3.8391    6.9309  -14.7727 C   0  0  0  0  0  0  0  0  0  0  0  0
    3.9064    5.9795  -15.7221 F   0  0  0  0  0  0  0  0  0  0  0  0
    3.9362    6.5749  -13.4566 C   0  0  0  0  0  0  0  0  0  0  0  0
    3.8680    7.5716  -12.4635 C   0  0  0  0  0  0  0  0  0  0  0  0
    3.9804    7.2376  -11.0942 C   0  0  0  0  0  0  0  0  0  0  0  0
    3.9145    8.2299  -10.1533 C   0  0  0  0  0  0  0  0  0  0  0  0
    4.0544    8.1944   -8.7014 C   0  0  0  0  0  0  0  0  0  0  0  0
    4.6439    7.1850   -7.9850 C   0  0  0  0  0  0  0  0  0  0  0  0
    4.9269    5.9106   -8.5041 C   0  0  0  0  0  0  0  0  0  0  0  0
    5.1134    4.8289   -8.8460 N   0  0  0  0  0  0  0  0  0  0  0  0
    5.0703    7.3270   -6.6458 C   0  0  0  0  0  0  0  0  0  0  0  0
    5.5122    7.4155   -5.5909 N   0  0  0  0  0  0  0  0  0  0  0  0
   -3.1145   -7.8606    3.7441 H   0  0  0  0  0  0  0  0  0  0  0  0
   -2.0195   -5.9109    6.2914 H   0  0  0  0  0  0  0  0  0  0  0  0
   -2.4563   -7.3289    8.2351 H   0  0  0  0  0  0  0  0  0  0  0  0
   -3.8393   -7.2423   10.5789 H   0  0  0  0  0  0  0  0  0  0  0  0
   -5.5834   -7.1273   10.3067 H   0  0  0  0  0  0  0  0  0  0  0  0
   -4.6406   -8.4124    9.5425 H   0  0  0  0  0  0  0  0  0  0  0  0
   -6.2204   -5.4058    8.8142 H   0  0  0  0  0  0  0  0  0  0  0  0
   -5.7812   -3.9655    6.8754 H   0  0  0  0  0  0  0  0  0  0  0  0
   -3.1125   -2.4576    7.3828 H   0  0  0  0  0  0  0  0  0  0  0  0
   -3.7152   -0.0843    7.6095 H   0  0  0  0  0  0  0  0  0  0  0  0
   -6.1030    1.5836    6.1037 H   0  0  0  0  0  0  0  0  0  0  0  0
   -4.8976    1.9996    4.8895 H   0  0  0  0  0  0  0  0  0  0  0  0
   -4.4547    1.9668    6.6035 H   0  0  0  0  0  0  0  0  0  0  0  0
   -5.6163   -0.1944    3.7934 H   0  0  0  0  0  0  0  0  0  0  0  0
   -5.0556   -2.5927    3.5886 H   0  0  0  0  0  0  0  0  0  0  0  0
   -2.1775   -3.6584   -0.4839 H   0  0  0  0  0  0  0  0  0  0  0  0
   -3.0709   -5.2735   -2.1074 H   0  0  0  0  0  0  0  0  0  0  0  0
   -2.7309   -7.9839   -2.7089 H   0  0  0  0  0  0  0  0  0  0  0  0
   -1.1262   -8.2011   -3.4127 H   0  0  0  0  0  0  0  0  0  0  0  0
   -2.2052   -6.9329   -4.0183 H   0  0  0  0  0  0  0  0  0  0  0  0
    0.5682   -7.4873   -1.9092 H   0  0  0  0  0  0  0  0  0  0  0  0
    1.4566   -5.8907   -0.2704 H   0  0  0  0  0  0  0  0  0  0  0  0
    1.5832   -3.1033    2.8401 H   0  0  0  0  0  0  0  0  0  0  0  0
    3.9230   -2.3806    2.8822 H   0  0  0  0  0  0  0  0  0  0  0  0
    6.2932   -2.9308    0.4843 H   0  0  0  0  0  0  0  0  0  0  0  0
    5.9398   -1.7852    1.7807 H   0  0  0  0  0  0  0  0  0  0  0  0
    5.7982   -1.2890    0.0892 H   0  0  0  0  0  0  0  0  0  0  0  0
    4.1521   -2.8240   -1.3508 H   0  0  0  0  0  0  0  0  0  0  0  0
    1.7978   -3.5171   -1.4062 H   0  0  0  0  0  0  0  0  0  0  0  0
    1.6515   -0.2455    3.2643 H   0  0  0  0  0  0  0  0  0  0  0  0
    2.6839   -1.4023    5.1304 H   0  0  0  0  0  0  0  0  0  0  0  0
    3.9262   -1.7675    7.0788 H   0  0  0  0  0  0  0  0  0  0  0  0
    3.1157   -3.2633    6.5051 H   0  0  0  0  0  0  0  0  0  0  0  0
    3.6599   -3.1269    8.1911 H   0  0  0  0  0  0  0  0  0  0  0  0
   -0.7617   -0.6139    7.5379 H   0  0  0  0  0  0  0  0  0  0  0  0
   -1.8207    0.5329    5.6377 H   0  0  0  0  0  0  0  0  0  0  0  0
   -0.6508    2.7825    5.0489 H   0  0  0  0  0  0  0  0  0  0  0  0
   -2.2133    4.6314    5.2973 H   0  0  0  0  0  0  0  0  0  0  0  0
   -4.1480    5.7239    6.0446 H   0  0  0  0  0  0  0  0  0  0  0  0
   -3.1541    6.7465    4.9544 H   0  0  0  0  0  0  0  0  0  0  0  0
   -4.8710    7.1208    5.2179 H   0  0  0  0  0  0  0  0  0  0  0  0
   -4.4543    3.1943    1.9493 H   0  0  0  0  0  0  0  0  0  0  0  0
   -2.8859    1.3056    1.7203 H   0  0  0  0  0  0  0  0  0  0  0  0
   -1.1305    0.5574   -2.7551 H   0  0  0  0  0  0  0  0  0  0  0  0
   -1.9261   -1.6248   -3.5852 H   0  0  0  0  0  0  0  0  0  0  0  0
    1.2786   -5.1056   -3.6442 H   0  0  0  0  0  0  0  0  0  0  0  0
    0.3812   -5.9983   -4.8878 H   0  0  0  0  0  0  0  0  0  0  0  0
    1.4629   -4.6789   -5.3810 H   0  0  0  0  0  0  0  0  0  0  0  0
    2.1253   -2.8930   -4.1002 H   0  0  0  0  0  0  0  0  0  0  0  0
    2.9074   -0.7442   -3.2561 H   0  0  0  0  0  0  0  0  0  0  0  0
    3.3485    2.5851   -1.1282 H   0  0  0  0  0  0  0  0  0  0  0  0
    5.2750    3.6897   -2.1767 H   0  0  0  0  0  0  0  0  0  0  0  0
    5.7600    3.4276   -7.1546 H   0  0  0  0  0  0  0  0  0  0  0  0
    6.3524    2.0036   -6.2355 H   0  0  0  0  0  0  0  0  0  0  0  0
    7.4628    3.3210   -6.6778 H   0  0  0  0  0  0  0  0  0  0  0  0
    3.9281    2.4067   -6.0228 H   0  0  0  0  0  0  0  0  0  0  0  0
    2.0003    1.3233   -4.9847 H   0  0  0  0  0  0  0  0  0  0  0  0
    0.6188    3.5618   -3.4236 H   0  0  0  0  0  0  0  0  0  0  0  0
    1.8975    5.2043   -6.6879 H   0  0  0  0  0  0  0  0  0  0  0  0
    1.3861    3.9594   -5.5432 H   0  0  0  0  0  0  0  0  0  0  0  0
   -0.4699    4.5428   -7.1120 H   0  0  0  0  0  0  0  0  0  0  0  0
   -0.3913    6.2299   -6.5895 H   0  0  0  0  0  0  0  0  0  0  0  0
   -0.8987    4.9793   -5.4535 H   0  0  0  0  0  0  0  0  0  0  0  0
    2.3145    7.3361   -0.6461 H   0  0  0  0  0  0  0  0  0  0  0  0
    1.5609    5.2374    0.4020 H   0  0  0  0  0  0  0  0  0  0  0  0
    3.0694    9.3140   -2.4267 H   0  0  0  0  0  0  0  0  0  0  0  0
    3.5825   10.6387   -4.4440 H   0  0  0  0  0  0  0  0  0  0  0  0
    2.1464    7.4910   -6.9732 H   0  0  0  0  0  0  0  0  0  0  0  0
    3.2357   11.0022   -6.8484 H   0  0  0  0  0  0  0  0  0  0  0  0
    3.4816   10.9681  -12.1500 H   0  0  0  0  0  0  0  0  0  0  0  0
    3.4682   10.2722  -14.5202 H   0  0  0  0  0  0  0  0  0  0  0  0
    3.6009    8.4816  -16.2346 H   0  0  0  0  0  0  0  0  0  0  0  0
    4.0696    5.5409  -13.1791 H   0  0  0  0  0  0  0  0  0  0  0  0
    4.1102    6.2017  -10.8217 H   0  0  0  0  0  0  0  0  0  0  0  0
  1  2  2  0  0  0  0
  2  3  1  0  0  0  0
  3  4  2  0  0  0  0
  3  5  1  0  0  0  0
  5  6  2  0  0  0  0
  6  7  1  0  0  0  0
  6  8  1  0  0  0  0
  8  9  1  0  0  0  0
  8 10  2  0  0  0  0
 10 11  1  0  0  0  0
 10 12  1  0  0  0  0
 12 13  1  0  0  0  0
 12 14  2  0  0  0  0
 14 15  1  0  0  0  0
 15 16  2  0  0  0  0
 16 17  1  0  0  0  0
 17 18  3  0  0  0  0
 16 19  1  0  0  0  0
 19 20  3  0  0  0  0
  1 21  1  0  0  0  0
 21 22  2  0  0  0  0
 22 23  1  0  0  0  0
 23 24  1  0  0  0  0
 24 25  2  0  0  0  0
 25 26  1  0  0  0  0
 26 27  2  0  0  0  0
 27 28  1  0  0  0  0
 27 29  1  0  0  0  0
 29 30  2  0  0  0  0
 23 31  1  0  0  0  0
 31 32  2  0  0  0  0
 32 33  1  0  0  0  0
 33 34  2  0  0  0  0
 34 35  1  0  0  0  0
 34 36  1  0  0  0  0
 36 37  2  0  0  0  0
 22 38  1  0  0  0  0
 38 39  1  0  0  0  0
 39 40  1  0  0  0  0
 40 41  2  0  0  0  0
 41 42  1  0  0  0  0
 42 43  1  0  0  0  0
 43 44  2  0  0  0  0
 44 45  1  0  0  0  0
 45 46  2  0  0  0  0
 46 47  1  0  0  0  0
 46 48  1  0  0  0  0
 48 49  2  0  0  0  0
 42 50  1  0  0  0  0
 50 51  2  0  0  0  0
 51 52  1  0  0  0  0
 52 53  2  0  0  0  0
 53 54  1  0  0  0  0
 53 55  1  0  0  0  0
 55 56  2  0  0  0  0
 41 57  1  0  0  0  0
 57 58  1  0  0  0  0
 40 59  1  0  0  0  0
 59 60  2  0  0  0  0
 60 61  1  0  0  0  0
 61 62  1  0  0  0  0
 62 63  2  0  0  0  0
 63 64  1  0  0  0  0
 64 65  2  0  0  0  0
 65 66  1  0  0  0  0
 66 67  1  0  0  0  0
 65 68  1  0  0  0  0
 68 69  2  0  0  0  0
 61 70  1  0  0  0  0
 70 71  2  0  0  0  0
 71 72  1  0  0  0  0
 72 73  2  0  0  0  0
 73 74  1  0  0  0  0
 74 75  1  0  0  0  0
 73 76  1  0  0  0  0
 76 77  2  0  0  0  0
 60 78  1  0  0  0  0
 78 79  1  0  0  0  0
 79 80  1  0  0  0  0
 80 81  2  0  0  0  0
 81 82  1  0  0  0  0
 82 83  1  0  0  0  0
 83 84  2  0  0  0  0
 84 85  1  0  0  0  0
 85 86  2  0  0  0  0
 86 87  1  0  0  0  0
 87 88  1  0  0  0  0
 86 89  1  0  0  0  0
 89 90  2  0  0  0  0
 82 91  1  0  0  0  0
 91 92  2  0  0  0  0
 92 93  1  0  0  0  0
 93 94  2  0  0  0  0
 94 95  1  0  0  0  0
 95 96  1  0  0  0  0
 94 97  1  0  0  0  0
 97 98  2  0  0  0  0
 81 99  1  0  0  0  0
 99100  1  0  0  0  0
 80101  1  0  0  0  0
101102  2  0  0  0  0
102103  1  0  0  0  0
103104  1  0  0  0  0
104105  1  0  0  0  0
105106  1  0  0  0  0
104107  1  0  0  0  0
107108  2  0  0  0  0
108109  1  0  0  0  0
109110  1  0  0  0  0
110111  2  0  0  0  0
108112  1  0  0  0  0
112113  2  0  0  0  0
113114  1  0  0  0  0
114115  2  0  0  0  0
114116  1  0  0  0  0
116117  2  0  0  0  0
117118  1  0  0  0  0
118119  2  0  0  0  0
118120  1  0  0  0  0
120121  2  0  0  0  0
121122  1  0  0  0  0
122123  2  0  0  0  0
123124  1  0  0  0  0
124125  2  0  0  0  0
125126  1  0  0  0  0
125127  1  0  0  0  0
127128  2  0  0  0  0
128129  1  0  0  0  0
129130  2  0  0  0  0
130131  1  0  0  0  0
131132  2  0  0  0  0
132133  1  0  0  0  0
133134  3  0  0  0  0
132135  1  0  0  0  0
135136  3  0  0  0  0
 15  2  1  0  0  0  0
 58 21  1  0  0  0  0
100 59  1  0  0  0  0
111101  1  0  0  0  0
131117  1  0  0  0  0
 14  5  1  0  0  0  0
 30 24  1  0  0  0  0
 37 31  1  0  0  0  0
 57 38  2  0  0  0  0
 69 62  1  0  0  0  0
 77 70  1  0  0  0  0
 99 78  2  0  0  0  0
109103  2  0  0  0  0
130120  1  0  0  0  0
 49 43  1  0  0  0  0
 56 50  1  0  0  0  0
 90 83  1  0  0  0  0
 98 91  1  0  0  0  0
115107  1  0  0  0  0
128122  1  0  0  0  0
  1137  1  0  0  0  0
 25138  1  0  0  0  0
 26139  1  0  0  0  0
 28140  1  0  0  0  0
 28141  1  0  0  0  0
 28142  1  0  0  0  0
 29143  1  0  0  0  0
 30144  1  0  0  0  0
 32145  1  0  0  0  0
 33146  1  0  0  0  0
 35147  1  0  0  0  0
 35148  1  0  0  0  0
 35149  1  0  0  0  0
 36150  1  0  0  0  0
 37151  1  0  0  0  0
 44152  1  0  0  0  0
 45153  1  0  0  0  0
 47154  1  0  0  0  0
 47155  1  0  0  0  0
 47156  1  0  0  0  0
 48157  1  0  0  0  0
 49158  1  0  0  0  0
 51159  1  0  0  0  0
 52160  1  0  0  0  0
 54161  1  0  0  0  0
 54162  1  0  0  0  0
 54163  1  0  0  0  0
 55164  1  0  0  0  0
 56165  1  0  0  0  0
 63166  1  0  0  0  0
 64167  1  0  0  0  0
 67168  1  0  0  0  0
 67169  1  0  0  0  0
 67170  1  0  0  0  0
 68171  1  0  0  0  0
 69172  1  0  0  0  0
 71173  1  0  0  0  0
 72174  1  0  0  0  0
 75175  1  0  0  0  0
 75176  1  0  0  0  0
 75177  1  0  0  0  0
 76178  1  0  0  0  0
 77179  1  0  0  0  0
 84180  1  0  0  0  0
 85181  1  0  0  0  0
 88182  1  0  0  0  0
 88183  1  0  0  0  0
 88184  1  0  0  0  0
 89185  1  0  0  0  0
 90186  1  0  0  0  0
 92187  1  0  0  0  0
 93188  1  0  0  0  0
 96189  1  0  0  0  0
 96190  1  0  0  0  0
 96191  1  0  0  0  0
 97192  1  0  0  0  0
 98193  1  0  0  0  0
102194  1  0  0  0  0
105195  1  0  0  0  0
105196  1  0  0  0  0
106197  1  0  0  0  0
106198  1  0  0  0  0
106199  1  0  0  0  0
110200  1  0  0  0  0
111201  1  0  0  0  0
112202  1  0  0  0  0
113203  1  0  0  0  0
115204  1  0  0  0  0
116205  1  0  0  0  0
121206  1  0  0  0  0
123207  1  0  0  0  0
124208  1  0  0  0  0
127209  1  0  0  0  0
129210  1  0  0  0  0
M  END
