188

C         -6.65650        0.93280       -3.44910
C         -7.95740        0.98410       -2.98470
C         -8.38580        0.93240       -1.59430
O         -7.70970        0.73880       -0.60020
C         -9.84480        1.19540       -1.60930
C        -10.70610        1.33690       -0.53800
Cl       -10.19330        1.03320        1.06040
C        -12.02150        1.74820       -0.79370
Cl       -13.13640        1.90000        0.49510
C        -12.40550        2.07930       -2.09090
Cl       -13.98230        2.68440       -2.36670
C        -11.52120        1.94070       -3.17430
Cl       -12.01240        2.54790       -4.70160
C        -10.25720        1.41680       -2.93870
C         -9.13120        1.10090       -3.81970
C         -9.21140        0.77120       -5.15150
C         -8.11180        0.42960       -5.96540
N         -7.28280        0.14030       -6.70750
C        -10.39770        0.52710       -5.87480
N        -11.28600        0.20380       -6.52670
C         -5.45590        0.78940       -2.76810
C         -4.19240        0.72990       -3.42110
N         -3.94830        0.99300       -4.73700
C         -2.80860        0.42130       -5.33870
C         -1.92560        1.20460       -6.07580
C         -0.79080        0.63830       -6.62260
C         -0.51270       -0.71370       -6.45950
C          0.71170       -1.32610       -7.06250
C         -1.41640       -1.49280       -5.74580
C         -2.55260       -0.93950       -5.19060
C         -4.62640        2.00930       -5.44240
C         -4.94390        3.21390       -4.82070
C         -5.58970        4.20470       -5.53250
C         -5.92160        4.02620       -6.87110
C         -6.64390        5.09090       -7.63650
C         -5.57630        2.82810       -7.48650
C         -4.93440        1.82570       -6.78700
C         -3.17960        0.40130       -2.50700
S         -1.46790        0.23570       -2.65490
C         -1.30530        0.18910       -0.90330
C         -2.53390        0.24260       -0.25220
N         -2.75620        0.26130        1.11310
C         -3.98390       -0.28430        1.55280
C         -4.85210        0.45340        2.35120
C         -6.07190       -0.07790        2.71530
C         -6.45780       -1.34590        2.29540
C         -7.81120       -1.88040        2.64250
C         -5.57430       -2.08300        1.51760
C         -4.34830       -1.56420        1.14910
C         -1.97050        0.99800        2.00100
C         -1.21990        2.09030        1.57290
C         -0.41410        2.77370        2.45970
C         -0.34730        2.41350        3.80100
C          0.56220        3.13910        4.74370
C         -1.14260        1.35990        4.23220
C         -1.93940        0.65600        3.35100
C         -3.59650        0.34160       -1.18530
S         -5.30270        0.55720       -1.01950
C          0.01570        0.08180       -0.38400
C          1.17160        0.58280       -0.96880
N          1.22740        1.34610       -2.13800
C          0.45730        2.51030       -2.24140
C         -0.20780        2.83900       -3.42670
C         -1.04730        3.92730       -3.46770
C         -1.23940        4.72190       -2.33740
S         -2.39870        6.04340       -2.50030
C         -2.31190        6.90220       -0.90370
C         -0.53730        4.43310       -1.17620
C          0.30610        3.33750       -1.13440
C          2.02290        0.89720       -3.19270
C          2.57160        1.79820       -4.10720
C          3.33600        1.34360       -5.15630
C          3.59220       -0.01760       -5.31180
S          4.55610       -0.47980       -6.71810
C          4.89140       -2.24410       -6.45770
C          3.07000       -0.91540       -4.39210
C          2.28850       -0.46110       -3.34860
C          2.31350        0.22110       -0.22250
S          3.98510        0.59910       -0.39220
C          4.33340       -0.28020        1.08540
C          3.21740       -0.92860        1.61810
N          3.28230       -1.89590        2.58980
C          2.13870       -2.36650        3.25370
C          1.18290       -1.49830        3.77070
C          0.04920       -1.99960        4.38280
C         -0.14580       -3.36940        4.48410
S         -1.58380       -4.09550        5.20930
C         -2.85440       -2.82140        4.95380
C          0.83800       -4.23900        4.01850
C          1.96830       -3.74340        3.41120
C          4.49670       -2.57900        2.82980
C          5.25690       -3.08580        1.78090
C          6.50670       -3.62470        2.01510
C          7.01370       -3.66600        3.30860
S          8.65320       -4.17240        3.71080
C          9.43660       -4.46740        2.10020
C          6.20710       -3.25760        4.37080
C          4.95890       -2.72500        4.13650
C          2.05370       -0.57520        0.88460
S          0.35320       -0.85900        1.05950
C          5.66800       -0.26770        1.62960
C          6.80850       -0.48850        0.84680
F          6.67160       -0.68040       -0.47420
C          8.05880       -0.61640        1.41880
F          9.10990       -0.91420        0.63920
C          8.26740       -0.46690        2.79430
C          7.13810       -0.18340        3.57180
F          7.25320       -0.09600        4.90130
C          5.88390       -0.08500        3.00440
F          4.83140        0.19080        3.79100
C          9.57720       -0.69580        3.36750
C         10.13860        0.07180        4.32640
C          9.62390        1.41210        4.72660
O          8.75460        2.04840        4.18350
C         10.46440        1.82180        5.87100
C         10.31690        2.93010        6.68720
Cl         9.13470        4.11550        6.36810
C         11.15880        3.04850        7.80230
Cl        11.03500        4.41220        8.82330
C         12.06630        2.03250        8.10250
Cl        13.01350        2.15340        9.52050
C         12.20790        0.90820        7.27350
Cl        13.21570       -0.37100        7.80810
C         11.45050        0.83940        6.10780
C         11.38780       -0.15600        5.04430
C         12.36950       -1.03570        4.67410
C         12.22410       -2.03770        3.68950
N         12.18840       -2.90210        2.93460
C         13.71740       -0.99680        5.09700
N         14.84970       -0.97860        5.28120
H         -6.54340        1.03070       -4.52080
H         -2.12720        2.25770       -6.20330
H         -0.10240        1.25910       -7.17750
H          0.46750       -1.77800       -8.02440
H          1.10580       -2.10610       -6.41500
H          1.48210       -0.57690       -7.22540
H         -1.22830       -2.54940       -5.62390
H         -3.25020       -1.55500       -4.64180
H         -4.67710        3.37140       -3.78590
H         -5.82640        5.13690       -5.04110
H         -7.69380        4.81960       -7.74990
H         -6.22170        5.20250       -8.63300
H         -6.59180        6.04640       -7.12090
H         -5.82220        2.67260       -8.52590
H         -4.67830        0.89670       -7.27110
H         -4.57220        1.44840        2.66440
H         -6.74800        0.51040        3.31780
H         -8.10570       -1.57780        3.64510
H         -7.83500       -2.96540        2.57610
H         -8.54510       -1.47980        1.94300
H         -5.85110       -3.07400        1.18820
H         -3.66960       -2.14060        0.53630
H         -1.28400        2.40570        0.54290
H          0.16880        3.61410        2.10970
H          0.51350        4.21380        4.57890
H          1.59470        2.82490        4.58540
H          0.29920        2.92970        5.77750
H         -1.13290        1.08500        5.27760
H         -2.55370       -0.15910        3.70080
H         -0.08220        2.21810       -4.30020
H         -1.58320        4.17000       -4.37280
H         -2.99250        7.74380       -0.98760
H         -2.63960        6.24220       -0.10550
H         -1.30160        7.26180       -0.73200
H         -0.63900        5.04550       -0.29460
H          0.85700        3.11520       -0.23260
H          2.39980        2.85660       -3.98560
H          3.75540        2.04020       -5.86610
H          3.97150       -2.81670       -6.53410
H          5.56960       -2.53320       -7.25450
H          5.37030       -2.38730       -5.49380
H          3.25310       -1.97410       -4.48060
H          1.86660       -1.17240       -2.65400
H          1.33320       -0.43090        3.71320
H         -0.67290       -1.31000        4.78350
H         -2.82490       -2.48920        3.92020
H         -2.71060       -1.99440        5.64290
H         -3.80490       -3.30390        5.15860
H          0.69500       -5.30310        4.12430
H          2.72120       -4.41950        3.03450
H          4.87770       -3.03580        0.77070
H          7.07700       -4.00060        1.18140
H          9.32310       -3.59710        1.46110
H          9.01500       -5.35520        1.63800
H         10.48970       -4.62130        2.31620
H          6.58650       -3.33500        5.37760
H          4.34920       -2.37920        4.95700
H         10.10540       -1.55710        2.98210
