
  xtb     02112215003D
 energy: -407.563640604568 gnorm: 0.000305313615 xtb: 6.4.1 (unknown)
246266  0     0  0            999 V2000
   -8.4602   -0.5316    4.9050 C   0  0  0  0  0  0  0  0  0  0  0  0
   -8.2630   -0.3061    6.2603 C   0  0  0  0  0  0  0  0  0  0  0  0
   -6.9713    0.0439    6.8408 C   0  0  0  0  0  0  0  0  0  0  0  0
   -5.9064    0.1862    6.2703 O   0  0  0  0  0  0  0  0  0  0  0  0
   -7.2444    0.3337    8.2710 C   0  0  0  0  0  0  0  0  0  0  0  0
   -6.3616    0.7361    9.2522 C   0  0  0  0  0  0  0  0  0  0  0  0
   -4.6830    0.8198    8.9531 Cl  0  0  0  0  0  0  0  0  0  0  0  0
   -6.8727    1.0654   10.5148 C   0  0  0  0  0  0  0  0  0  0  0  0
   -5.8101    1.5211   11.7774 Cl  0  0  0  0  0  0  0  0  0  0  0  0
   -8.2478    1.0560   10.7296 C   0  0  0  0  0  0  0  0  0  0  0  0
   -8.8616    1.5545   12.2487 Cl  0  0  0  0  0  0  0  0  0  0  0  0
   -9.1417    0.6547    9.7225 C   0  0  0  0  0  0  0  0  0  0  0  0
  -10.8236    0.8298   10.0130 Cl  0  0  0  0  0  0  0  0  0  0  0  0
   -8.6274    0.2217    8.5093 C   0  0  0  0  0  0  0  0  0  0  0  0
   -9.2534   -0.3071    7.2962 C   0  0  0  0  0  0  0  0  0  0  0  0
  -10.4626   -0.9581    7.2036 C   0  0  0  0  0  0  0  0  0  0  0  0
  -10.9513   -1.4990    5.9964 C   0  0  0  0  0  0  0  0  0  0  0  0
  -11.4143   -1.9686    5.0556 N   0  0  0  0  0  0  0  0  0  0  0  0
  -11.2704   -1.3815    8.2736 C   0  0  0  0  0  0  0  0  0  0  0  0
  -11.9335   -1.8806    9.0689 N   0  0  0  0  0  0  0  0  0  0  0  0
   -7.4942   -0.9388    3.9994 C   0  0  0  0  0  0  0  0  0  0  0  0
   -6.2232   -1.5422    4.1866 C   0  0  0  0  0  0  0  0  0  0  0  0
   -5.7915   -2.1991    5.2872 N   0  0  0  0  0  0  0  0  0  0  0  0
   -6.6295   -2.6736    6.3093 C   0  0  0  0  0  0  0  0  0  0  0  0
   -6.1983   -2.5886    7.6310 C   0  0  0  0  0  0  0  0  0  0  0  0
   -7.0041   -3.0446    8.6571 C   0  0  0  0  0  0  0  0  0  0  0  0
   -8.2453   -3.6104    8.3976 C   0  0  0  0  0  0  0  0  0  0  0  0
   -9.1235   -4.1035    9.5024 C   0  0  0  0  0  0  0  0  0  0  0  0
   -8.6525   -3.7224    7.0694 C   0  0  0  0  0  0  0  0  0  0  0  0
   -7.8638   -3.2609    6.0366 C   0  0  0  0  0  0  0  0  0  0  0  0
   -4.4142   -2.5402    5.4018 C   0  0  0  0  0  0  0  0  0  0  0  0
   -4.0329   -3.8759    5.3722 C   0  0  0  0  0  0  0  0  0  0  0  0
   -2.6939   -4.2046    5.4563 C   0  0  0  0  0  0  0  0  0  0  0  0
   -1.7193   -3.2192    5.5792 C   0  0  0  0  0  0  0  0  0  0  0  0
   -0.2715   -3.5881    5.6681 C   0  0  0  0  0  0  0  0  0  0  0  0
   -2.1215   -1.8912    5.6433 C   0  0  0  0  0  0  0  0  0  0  0  0
   -3.4574   -1.5474    5.5587 C   0  0  0  0  0  0  0  0  0  0  0  0
   -5.4858   -1.4874    2.9816 C   0  0  0  0  0  0  0  0  0  0  0  0
   -3.8443   -1.8313    2.5778 S   0  0  0  0  0  0  0  0  0  0  0  0
   -4.1237   -1.3308    0.9163 C   0  0  0  0  0  0  0  0  0  0  0  0
   -5.4618   -1.0708    0.6593 C   0  0  0  0  0  0  0  0  0  0  0  0
   -5.9947   -0.8286   -0.5975 N   0  0  0  0  0  0  0  0  0  0  0  0
   -7.0989    0.0666   -0.6646 C   0  0  0  0  0  0  0  0  0  0  0  0
   -8.4025   -0.4106   -0.7554 C   0  0  0  0  0  0  0  0  0  0  0  0
   -9.4592    0.4765   -0.7878 C   0  0  0  0  0  0  0  0  0  0  0  0
   -9.2440    1.8501   -0.7316 C   0  0  0  0  0  0  0  0  0  0  0  0
  -10.4045    2.7961   -0.7296 C   0  0  0  0  0  0  0  0  0  0  0  0
   -7.9374    2.3148   -0.6718 C   0  0  0  0  0  0  0  0  0  0  0  0
   -6.8705    1.4341   -0.6461 C   0  0  0  0  0  0  0  0  0  0  0  0
   -5.8685   -1.7722   -1.6254 C   0  0  0  0  0  0  0  0  0  0  0  0
   -6.2882   -1.4306   -2.9101 C   0  0  0  0  0  0  0  0  0  0  0  0
   -6.2402   -2.3580   -3.9299 C   0  0  0  0  0  0  0  0  0  0  0  0
   -5.7470   -3.6393   -3.7169 C   0  0  0  0  0  0  0  0  0  0  0  0
   -5.7398   -4.6537   -4.8180 C   0  0  0  0  0  0  0  0  0  0  0  0
   -5.3039   -3.9639   -2.4425 C   0  0  0  0  0  0  0  0  0  0  0  0
   -5.3705   -3.0545   -1.4048 C   0  0  0  0  0  0  0  0  0  0  0  0
   -6.2040   -1.0774    1.8656 C   0  0  0  0  0  0  0  0  0  0  0  0
   -7.8202   -0.6331    2.2803 S   0  0  0  0  0  0  0  0  0  0  0  0
   -2.9532   -1.0986    0.1260 C   0  0  0  0  0  0  0  0  0  0  0  0
   -1.8590   -0.3897    0.6053 C   0  0  0  0  0  0  0  0  0  0  0  0
   -1.7629    0.2951    1.8104 N   0  0  0  0  0  0  0  0  0  0  0  0
   -2.8292    1.0006    2.3710 C   0  0  0  0  0  0  0  0  0  0  0  0
   -2.9158    1.1754    3.7546 C   0  0  0  0  0  0  0  0  0  0  0  0
   -4.0276    1.7561    4.3215 C   0  0  0  0  0  0  0  0  0  0  0  0
   -5.0900    2.1748    3.5246 C   0  0  0  0  0  0  0  0  0  0  0  0
   -6.5251    2.7768    4.3564 S   0  0  0  0  0  0  0  0  0  0  0  0
   -7.7086    3.0875    3.0126 C   0  0  0  0  0  0  0  0  0  0  0  0
   -4.9702    2.0915    2.1459 C   0  0  0  0  0  0  0  0  0  0  0  0
   -3.8500    1.5169    1.5759 C   0  0  0  0  0  0  0  0  0  0  0  0
   -0.5354    0.1675    2.4862 C   0  0  0  0  0  0  0  0  0  0  0  0
    0.0728   -1.0856    2.5701 C   0  0  0  0  0  0  0  0  0  0  0  0
    1.3220   -1.2155    3.1325 C   0  0  0  0  0  0  0  0  0  0  0  0
    1.9842   -0.1001    3.6420 C   0  0  0  0  0  0  0  0  0  0  0  0
    3.5994   -0.3738    4.3008 S   0  0  0  0  0  0  0  0  0  0  0  0
    4.3059    1.2937    4.4089 C   0  0  0  0  0  0  0  0  0  0  0  0
    1.3549    1.1376    3.6160 C   0  0  0  0  0  0  0  0  0  0  0  0
    0.1091    1.2711    3.0341 C   0  0  0  0  0  0  0  0  0  0  0  0
   -0.7878   -0.4378   -0.3163 C   0  0  0  0  0  0  0  0  0  0  0  0
    0.8381    0.1323   -0.2799 S   0  0  0  0  0  0  0  0  0  0  0  0
    1.1732   -0.6432   -1.8299 C   0  0  0  0  0  0  0  0  0  0  0  0
    0.0590   -1.3054   -2.3323 C   0  0  0  0  0  0  0  0  0  0  0  0
    0.0051   -2.0849   -3.4798 N   0  0  0  0  0  0  0  0  0  0  0  0
    0.9679   -3.0734   -3.7111 C   0  0  0  0  0  0  0  0  0  0  0  0
    1.2967   -3.4544   -5.0105 C   0  0  0  0  0  0  0  0  0  0  0  0
    2.2601   -4.4158   -5.2443 C   0  0  0  0  0  0  0  0  0  0  0  0
    2.9352   -5.0001   -4.1798 C   0  0  0  0  0  0  0  0  0  0  0  0
    4.2207   -6.1960   -4.3549 S   0  0  0  0  0  0  0  0  0  0  0  0
    4.3640   -6.4300   -6.1488 C   0  0  0  0  0  0  0  0  0  0  0  0
    2.6060   -4.6267   -2.8781 C   0  0  0  0  0  0  0  0  0  0  0  0
    1.6287   -3.6863   -2.6446 C   0  0  0  0  0  0  0  0  0  0  0  0
   -1.1344   -1.9785   -4.2861 C   0  0  0  0  0  0  0  0  0  0  0  0
   -1.6840   -3.0917   -4.9234 C   0  0  0  0  0  0  0  0  0  0  0  0
   -2.7787   -2.9510   -5.7442 C   0  0  0  0  0  0  0  0  0  0  0  0
   -3.3729   -1.7045   -5.9279 C   0  0  0  0  0  0  0  0  0  0  0  0
   -4.7442   -1.6380   -7.0376 S   0  0  0  0  0  0  0  0  0  0  0  0
   -5.3901    0.0455   -6.8298 C   0  0  0  0  0  0  0  0  0  0  0  0
   -2.8536   -0.6000   -5.2696 C   0  0  0  0  0  0  0  0  0  0  0  0
   -1.7403   -0.7373   -4.4645 C   0  0  0  0  0  0  0  0  0  0  0  0
   -1.0567   -1.1523   -1.4691 C   0  0  0  0  0  0  0  0  0  0  0  0
   -2.6883   -1.7380   -1.4924 S   0  0  0  0  0  0  0  0  0  0  0  0
    2.5098   -0.5106   -2.2970 C   0  0  0  0  0  0  0  0  0  0  0  0
    3.5273    0.0302   -1.5576 C   0  0  0  0  0  0  0  0  0  0  0  0
    4.7785    0.0326   -2.2049 C   0  0  0  0  0  0  0  0  0  0  0  0
    5.9993    0.5122   -1.6969 C   0  0  0  0  0  0  0  0  0  0  0  0
    6.0542    1.2847   -0.4729 C   0  0  0  0  0  0  0  0  0  0  0  0
    6.9692    1.2564    0.5406 C   0  0  0  0  0  0  0  0  0  0  0  0
    6.7063    2.2291    1.5267 C   0  0  0  0  0  0  0  0  0  0  0  0
    7.7033    2.3726    2.9166 Cl  0  0  0  0  0  0  0  0  0  0  0  0
    5.6162    3.0242    1.2956 C   0  0  0  0  0  0  0  0  0  0  0  0
    4.9747    4.5863    2.1513 Si  0  0  0  0  0  4  0  0  0  0  0  0
    5.7775    4.8254    3.8665 C   0  0  0  0  0  0  0  0  0  0  0  0
    5.1763    5.9993    4.6306 C   0  0  0  0  0  0  0  0  0  0  0  0
    5.4692    6.0570    1.0226 C   0  0  0  0  0  0  0  0  0  0  0  0
    4.6824    6.1497   -0.2812 C   0  0  0  0  0  0  0  0  0  0  0  0
    3.0683    4.5223    2.3829 C   0  0  0  0  0  0  0  0  0  0  0  0
    2.2862    3.7270    1.3425 C   0  0  0  0  0  0  0  0  0  0  0  0
    4.8832    2.5393   -0.1956 S   0  0  0  0  0  0  0  0  0  0  0  0
    7.1335    0.2690   -2.4636 C   0  0  0  0  0  0  0  0  0  0  0  0
    7.0732   -0.3470   -3.7428 C   0  0  0  0  0  0  0  0  0  0  0  0
    5.8279   -0.7323   -4.3025 C   0  0  0  0  0  0  0  0  0  0  0  0
    5.7137   -1.2491   -5.6482 C   0  0  0  0  0  0  0  0  0  0  0  0
    6.7252   -0.6619   -6.9386 S   0  0  0  0  0  0  0  0  0  0  0  0
    5.9471   -1.6498   -8.1203 C   0  0  0  0  0  0  0  0  0  0  0  0
    6.4768   -1.6748   -9.9384 Si  0  0  0  0  0  4  0  0  0  0  0  0
    5.0103   -1.0179  -10.9753 C   0  0  0  0  0  0  0  0  0  0  0  0
    4.5406    0.3648  -10.5350 C   0  0  0  0  0  0  0  0  0  0  0  0
    6.9002   -3.4758  -10.4344 C   0  0  0  0  0  0  0  0  0  0  0  0
    7.5160   -4.3072   -9.3122 C   0  0  0  0  0  0  0  0  0  0  0  0
    7.9728   -0.4956  -10.0968 C   0  0  0  0  0  0  0  0  0  0  0  0
    9.2730   -1.0446   -9.5172 C   0  0  0  0  0  0  0  0  0  0  0  0
    4.9599   -2.3737   -7.5125 C   0  0  0  0  0  0  0  0  0  0  0  0
    4.8117   -2.1607   -6.1307 C   0  0  0  0  0  0  0  0  0  0  0  0
    3.9640   -3.4588   -8.3987 Cl  0  0  0  0  0  0  0  0  0  0  0  0
    4.7128   -0.5604   -3.4920 C   0  0  0  0  0  0  0  0  0  0  0  0
    3.0685   -1.0027   -3.8822 S   0  0  0  0  0  0  0  0  0  0  0  0
    8.3602   -0.4942   -4.2868 C   0  0  0  0  0  0  0  0  0  0  0  0
    9.3724    0.0064   -3.4946 C   0  0  0  0  0  0  0  0  0  0  0  0
    8.7560    0.6908   -2.0062 S   0  0  0  0  0  0  0  0  0  0  0  0
   10.7346   -0.0500   -3.8647 C   0  0  0  0  0  0  0  0  0  0  0  0
   11.8410    0.3818   -3.2029 C   0  0  0  0  0  0  0  0  0  0  0  0
   11.9533    1.0361   -1.8940 C   0  0  0  0  0  0  0  0  0  0  0  0
   11.0575    1.3388   -1.1307 O   0  0  0  0  0  0  0  0  0  0  0  0
   13.4032    1.2618   -1.6792 C   0  0  0  0  0  0  0  0  0  0  0  0
   14.0466    1.8398   -0.6009 C   0  0  0  0  0  0  0  0  0  0  0  0
   15.4317    1.9363   -0.6400 C   0  0  0  0  0  0  0  0  0  0  0  0
   16.1506    1.4663   -1.7306 C   0  0  0  0  0  0  0  0  0  0  0  0
   15.5066    0.8847   -2.8154 C   0  0  0  0  0  0  0  0  0  0  0  0
   14.1284    0.7867   -2.7796 C   0  0  0  0  0  0  0  0  0  0  0  0
   13.1939    0.2190   -3.7807 C   0  0  0  0  0  0  0  0  0  0  0  0
   13.4712   -0.2767   -4.8508 O   0  0  0  0  0  0  0  0  0  0  0  0
   -9.4361   -0.3173    4.4873 H   0  0  0  0  0  0  0  0  0  0  0  0
   -5.2338   -2.1540    7.8460 H   0  0  0  0  0  0  0  0  0  0  0  0
   -6.6598   -2.9557    9.6770 H   0  0  0  0  0  0  0  0  0  0  0  0
  -10.0725   -3.5684    9.5045 H   0  0  0  0  0  0  0  0  0  0  0  0
   -9.3448   -5.1611    9.3656 H   0  0  0  0  0  0  0  0  0  0  0  0
   -8.6461   -3.9679   10.4691 H   0  0  0  0  0  0  0  0  0  0  0  0
   -9.6051   -4.1790    6.8436 H   0  0  0  0  0  0  0  0  0  0  0  0
   -8.2013   -3.3642    5.0163 H   0  0  0  0  0  0  0  0  0  0  0  0
   -4.7843   -4.6457    5.2712 H   0  0  0  0  0  0  0  0  0  0  0  0
   -2.3984   -5.2430    5.4199 H   0  0  0  0  0  0  0  0  0  0  0  0
   -0.0376   -4.3972    4.9798 H   0  0  0  0  0  0  0  0  0  0  0  0
   -0.0345   -3.9295    6.6759 H   0  0  0  0  0  0  0  0  0  0  0  0
    0.3613   -2.7343    5.4392 H   0  0  0  0  0  0  0  0  0  0  0  0
   -1.3759   -1.1186    5.7629 H   0  0  0  0  0  0  0  0  0  0  0  0
   -3.7857   -0.5238    5.6216 H   0  0  0  0  0  0  0  0  0  0  0  0
   -8.5767   -1.4756   -0.7969 H   0  0  0  0  0  0  0  0  0  0  0  0
  -10.4694    0.0997   -0.8477 H   0  0  0  0  0  0  0  0  0  0  0  0
  -10.0753    3.8212   -0.8791 H   0  0  0  0  0  0  0  0  0  0  0  0
  -10.9290    2.7387    0.2241 H   0  0  0  0  0  0  0  0  0  0  0  0
  -11.1132    2.5358   -1.5133 H   0  0  0  0  0  0  0  0  0  0  0  0
   -7.7495    3.3793   -0.6526 H   0  0  0  0  0  0  0  0  0  0  0  0
   -5.8549    1.7985   -0.6303 H   0  0  0  0  0  0  0  0  0  0  0  0
   -6.6744   -0.4384   -3.0950 H   0  0  0  0  0  0  0  0  0  0  0  0
   -6.5994   -2.0878   -4.9115 H   0  0  0  0  0  0  0  0  0  0  0  0
   -4.8857   -5.3203   -4.7232 H   0  0  0  0  0  0  0  0  0  0  0  0
   -5.7101   -4.1678   -5.7900 H   0  0  0  0  0  0  0  0  0  0  0  0
   -6.6456   -5.2598   -4.7708 H   0  0  0  0  0  0  0  0  0  0  0  0
   -4.9167   -4.9538   -2.2485 H   0  0  0  0  0  0  0  0  0  0  0  0
   -5.0556   -3.3510   -0.4154 H   0  0  0  0  0  0  0  0  0  0  0  0
   -2.1139    0.8224    4.3830 H   0  0  0  0  0  0  0  0  0  0  0  0
   -4.1073    1.8619    5.3919 H   0  0  0  0  0  0  0  0  0  0  0  0
   -8.6303    3.3851    3.5027 H   0  0  0  0  0  0  0  0  0  0  0  0
   -7.8730    2.1800    2.4375 H   0  0  0  0  0  0  0  0  0  0  0  0
   -7.3536    3.8957    2.3799 H   0  0  0  0  0  0  0  0  0  0  0  0
   -5.7526    2.4621    1.5055 H   0  0  0  0  0  0  0  0  0  0  0  0
   -3.7679    1.4566    0.5005 H   0  0  0  0  0  0  0  0  0  0  0  0
   -0.4406   -1.9516    2.1786 H   0  0  0  0  0  0  0  0  0  0  0  0
    1.8056   -2.1792    3.1771 H   0  0  0  0  0  0  0  0  0  0  0  0
    3.8451    1.8483    5.2215 H   0  0  0  0  0  0  0  0  0  0  0  0
    4.1842    1.8056    3.4588 H   0  0  0  0  0  0  0  0  0  0  0  0
    5.3624    1.1511    4.6144 H   0  0  0  0  0  0  0  0  0  0  0  0
    1.8323    2.0084    4.0342 H   0  0  0  0  0  0  0  0  0  0  0  0
   -0.3654    2.2400    2.9931 H   0  0  0  0  0  0  0  0  0  0  0  0
    0.8071   -2.9801   -5.8472 H   0  0  0  0  0  0  0  0  0  0  0  0
    2.4851   -4.6847   -6.2631 H   0  0  0  0  0  0  0  0  0  0  0  0
    3.4335   -6.8230   -6.5481 H   0  0  0  0  0  0  0  0  0  0  0  0
    4.6340   -5.4942   -6.6280 H   0  0  0  0  0  0  0  0  0  0  0  0
    5.1590   -7.1567   -6.2845 H   0  0  0  0  0  0  0  0  0  0  0  0
    3.1248   -5.0891   -2.0524 H   0  0  0  0  0  0  0  0  0  0  0  0
    1.3775   -3.4157   -1.6299 H   0  0  0  0  0  0  0  0  0  0  0  0
   -1.2469   -4.0667   -4.7714 H   0  0  0  0  0  0  0  0  0  0  0  0
   -3.1884   -3.8087   -6.2538 H   0  0  0  0  0  0  0  0  0  0  0  0
   -6.3047    0.0842   -7.4136 H   0  0  0  0  0  0  0  0  0  0  0  0
   -5.6093    0.2251   -5.7813 H   0  0  0  0  0  0  0  0  0  0  0  0
   -4.6787    0.7700   -7.2159 H   0  0  0  0  0  0  0  0  0  0  0  0
   -3.2904    0.3784   -5.3876 H   0  0  0  0  0  0  0  0  0  0  0  0
   -1.3248    0.1336   -3.9789 H   0  0  0  0  0  0  0  0  0  0  0  0
    3.3812    0.3739   -0.5499 H   0  0  0  0  0  0  0  0  0  0  0  0
    7.7877    0.5635    0.5999 H   0  0  0  0  0  0  0  0  0  0  0  0
    5.6733    3.9235    4.4689 H   0  0  0  0  0  0  0  0  0  0  0  0
    6.8466    4.9971    3.7514 H   0  0  0  0  0  0  0  0  0  0  0  0
    5.3097    6.9264    4.0795 H   0  0  0  0  0  0  0  0  0  0  0  0
    5.6558    6.1120    5.6012 H   0  0  0  0  0  0  0  0  0  0  0  0
    4.1118    5.8524    4.7934 H   0  0  0  0  0  0  0  0  0  0  0  0
    5.3403    6.9904    1.5730 H   0  0  0  0  0  0  0  0  0  0  0  0
    6.5329    5.9848    0.7868 H   0  0  0  0  0  0  0  0  0  0  0  0
    4.7927    5.2385   -0.8643 H   0  0  0  0  0  0  0  0  0  0  0  0
    3.6246    6.3005   -0.0817 H   0  0  0  0  0  0  0  0  0  0  0  0
    5.0363    6.9837   -0.8846 H   0  0  0  0  0  0  0  0  0  0  0  0
    2.8319    4.1282    3.3731 H   0  0  0  0  0  0  0  0  0  0  0  0
    2.7037    5.5511    2.3777 H   0  0  0  0  0  0  0  0  0  0  0  0
    1.2153    3.8310    1.5076 H   0  0  0  0  0  0  0  0  0  0  0  0
    2.5268    2.6679    1.3931 H   0  0  0  0  0  0  0  0  0  0  0  0
    2.5104    4.0741    0.3380 H   0  0  0  0  0  0  0  0  0  0  0  0
    4.1714   -1.7112  -10.9138 H   0  0  0  0  0  0  0  0  0  0  0  0
    5.2984   -0.9788  -12.0261 H   0  0  0  0  0  0  0  0  0  0  0  0
    5.3419    1.0925  -10.6341 H   0  0  0  0  0  0  0  0  0  0  0  0
    3.7001    0.6987  -11.1406 H   0  0  0  0  0  0  0  0  0  0  0  0
    4.2241    0.3474   -9.4945 H   0  0  0  0  0  0  0  0  0  0  0  0
    5.9994   -3.9795  -10.7873 H   0  0  0  0  0  0  0  0  0  0  0  0
    7.5893   -3.4569  -11.2796 H   0  0  0  0  0  0  0  0  0  0  0  0
    7.7526   -5.3097   -9.6642 H   0  0  0  0  0  0  0  0  0  0  0  0
    6.8252   -4.3961   -8.4777 H   0  0  0  0  0  0  0  0  0  0  0  0
    8.4309   -3.8505   -8.9449 H   0  0  0  0  0  0  0  0  0  0  0  0
    7.7409    0.4466   -9.5978 H   0  0  0  0  0  0  0  0  0  0  0  0
    8.1319   -0.2572  -11.1494 H   0  0  0  0  0  0  0  0  0  0  0  0
    9.1527   -1.2819   -8.4630 H   0  0  0  0  0  0  0  0  0  0  0  0
   10.0738   -0.3134   -9.6091 H   0  0  0  0  0  0  0  0  0  0  0  0
    9.5774   -1.9468  -10.0415 H   0  0  0  0  0  0  0  0  0  0  0  0
    4.0953   -2.6852   -5.5262 H   0  0  0  0  0  0  0  0  0  0  0  0
    8.5683   -0.9733   -5.2258 H   0  0  0  0  0  0  0  0  0  0  0  0
   10.9255   -0.5114   -4.8303 H   0  0  0  0  0  0  0  0  0  0  0  0
   13.4791    2.2022    0.2426 H   0  0  0  0  0  0  0  0  0  0  0  0
   15.9585    2.3835    0.1900 H   0  0  0  0  0  0  0  0  0  0  0  0
   17.2270    1.5544   -1.7344 H   0  0  0  0  0  0  0  0  0  0  0  0
   16.0577    0.5162   -3.6670 H   0  0  0  0  0  0  0  0  0  0  0  0
  1  2  2  0  0  0  0
  2  3  1  0  0  0  0
  3  4  2  0  0  0  0
  3  5  1  0  0  0  0
  5  6  2  0  0  0  0
  6  7  1  0  0  0  0
  6  8  1  0  0  0  0
  8  9  1  0  0  0  0
  8 10  2  0  0  0  0
 10 11  1  0  0  0  0
 10 12  1  0  0  0  0
 12 13  1  0  0  0  0
 12 14  2  0  0  0  0
 14 15  1  0  0  0  0
 15 16  2  0  0  0  0
 16 17  1  0  0  0  0
 17 18  3  0  0  0  0
 16 19  1  0  0  0  0
 19 20  3  0  0  0  0
  1 21  1  0  0  0  0
 21 22  2  0  0  0  0
 22 23  1  0  0  0  0
 23 24  1  0  0  0  0
 24 25  2  0  0  0  0
 25 26  1  0  0  0  0
 26 27  2  0  0  0  0
 27 28  1  0  0  0  0
 27 29  1  0  0  0  0
 29 30  2  0  0  0  0
 23 31  1  0  0  0  0
 31 32  2  0  0  0  0
 32 33  1  0  0  0  0
 33 34  2  0  0  0  0
 34 35  1  0  0  0  0
 34 36  1  0  0  0  0
 36 37  2  0  0  0  0
 22 38  1  0  0  0  0
 38 39  1  0  0  0  0
 39 40  1  0  0  0  0
 40 41  2  0  0  0  0
 41 42  1  0  0  0  0
 42 43  1  0  0  0  0
 43 44  2  0  0  0  0
 44 45  1  0  0  0  0
 45 46  2  0  0  0  0
 46 47  1  0  0  0  0
 46 48  1  0  0  0  0
 48 49  2  0  0  0  0
 42 50  1  0  0  0  0
 50 51  2  0  0  0  0
 51 52  1  0  0  0  0
 52 53  2  0  0  0  0
 53 54  1  0  0  0  0
 53 55  1  0  0  0  0
 55 56  2  0  0  0  0
 41 57  1  0  0  0  0
 57 58  1  0  0  0  0
 40 59  1  0  0  0  0
 59 60  2  0  0  0  0
 60 61  1  0  0  0  0
 61 62  1  0  0  0  0
 62 63  2  0  0  0  0
 63 64  1  0  0  0  0
 64 65  2  0  0  0  0
 65 66  1  0  0  0  0
 66 67  1  0  0  0  0
 65 68  1  0  0  0  0
 68 69  2  0  0  0  0
 61 70  1  0  0  0  0
 70 71  2  0  0  0  0
 71 72  1  0  0  0  0
 72 73  2  0  0  0  0
 73 74  1  0  0  0  0
 74 75  1  0  0  0  0
 73 76  1  0  0  0  0
 76 77  2  0  0  0  0
 60 78  1  0  0  0  0
 78 79  1  0  0  0  0
 79 80  1  0  0  0  0
 80 81  2  0  0  0  0
 81 82  1  0  0  0  0
 82 83  1  0  0  0  0
 83 84  2  0  0  0  0
 84 85  1  0  0  0  0
 85 86  2  0  0  0  0
 86 87  1  0  0  0  0
 87 88  1  0  0  0  0
 86 89  1  0  0  0  0
 89 90  2  0  0  0  0
 82 91  1  0  0  0  0
 91 92  2  0  0  0  0
 92 93  1  0  0  0  0
 93 94  2  0  0  0  0
 94 95  1  0  0  0  0
 95 96  1  0  0  0  0
 94 97  1  0  0  0  0
 97 98  2  0  0  0  0
 81 99  1  0  0  0  0
 99100  1  0  0  0  0
 80101  1  0  0  0  0
101102  2  0  0  0  0
102103  1  0  0  0  0
103104  2  0  0  0  0
104105  1  0  0  0  0
105106  2  0  0  0  0
106107  1  0  0  0  0
107108  1  0  0  0  0
107109  2  0  0  0  0
109110  1  0  0  0  0
110111  1  0  0  0  0
111112  1  0  0  0  0
110113  1  0  0  0  0
113114  1  0  0  0  0
110115  1  0  0  0  0
115116  1  0  0  0  0
109117  1  0  0  0  0
104118  1  0  0  0  0
118119  2  0  0  0  0
119120  1  0  0  0  0
120121  1  0  0  0  0
121122  1  0  0  0  0
122123  1  0  0  0  0
123124  1  0  0  0  0
124125  1  0  0  0  0
125126  1  0  0  0  0
124127  1  0  0  0  0
127128  1  0  0  0  0
124129  1  0  0  0  0
129130  1  0  0  0  0
123131  2  0  0  0  0
131132  1  0  0  0  0
131133  1  0  0  0  0
120134  2  0  0  0  0
134135  1  0  0  0  0
119136  1  0  0  0  0
136137  2  0  0  0  0
137138  1  0  0  0  0
137139  1  0  0  0  0
139140  2  0  0  0  0
140141  1  0  0  0  0
141142  2  0  0  0  0
141143  1  0  0  0  0
143144  2  0  0  0  0
144145  1  0  0  0  0
145146  2  0  0  0  0
146147  1  0  0  0  0
147148  2  0  0  0  0
148149  1  0  0  0  0
149150  2  0  0  0  0
 15  2  1  0  0  0  0
 58 21  1  0  0  0  0
100 59  1  0  0  0  0
135101  1  0  0  0  0
149140  1  0  0  0  0
 14  5  1  0  0  0  0
 30 24  1  0  0  0  0
 37 31  1  0  0  0  0
 57 38  2  0  0  0  0
 69 62  1  0  0  0  0
 77 70  1  0  0  0  0
 99 78  2  0  0  0  0
134103  1  0  0  0  0
148143  1  0  0  0  0
 49 43  1  0  0  0  0
 56 50  1  0  0  0  0
 90 83  1  0  0  0  0
 98 91  1  0  0  0  0
117105  1  0  0  0  0
138118  1  0  0  0  0
132121  2  0  0  0  0
  1151  1  0  0  0  0
 25152  1  0  0  0  0
 26153  1  0  0  0  0
 28154  1  0  0  0  0
 28155  1  0  0  0  0
 28156  1  0  0  0  0
 29157  1  0  0  0  0
 30158  1  0  0  0  0
 32159  1  0  0  0  0
 33160  1  0  0  0  0
 35161  1  0  0  0  0
 35162  1  0  0  0  0
 35163  1  0  0  0  0
 36164  1  0  0  0  0
 37165  1  0  0  0  0
 44166  1  0  0  0  0
 45167  1  0  0  0  0
 47168  1  0  0  0  0
 47169  1  0  0  0  0
 47170  1  0  0  0  0
 48171  1  0  0  0  0
 49172  1  0  0  0  0
 51173  1  0  0  0  0
 52174  1  0  0  0  0
 54175  1  0  0  0  0
 54176  1  0  0  0  0
 54177  1  0  0  0  0
 55178  1  0  0  0  0
 56179  1  0  0  0  0
 63180  1  0  0  0  0
 64181  1  0  0  0  0
 67182  1  0  0  0  0
 67183  1  0  0  0  0
 67184  1  0  0  0  0
 68185  1  0  0  0  0
 69186  1  0  0  0  0
 71187  1  0  0  0  0
 72188  1  0  0  0  0
 75189  1  0  0  0  0
 75190  1  0  0  0  0
 75191  1  0  0  0  0
 76192  1  0  0  0  0
 77193  1  0  0  0  0
 84194  1  0  0  0  0
 85195  1  0  0  0  0
 88196  1  0  0  0  0
 88197  1  0  0  0  0
 88198  1  0  0  0  0
 89199  1  0  0  0  0
 90200  1  0  0  0  0
 92201  1  0  0  0  0
 93202  1  0  0  0  0
 96203  1  0  0  0  0
 96204  1  0  0  0  0
 96205  1  0  0  0  0
 97206  1  0  0  0  0
 98207  1  0  0  0  0
102208  1  0  0  0  0
106209  1  0  0  0  0
111210  1  0  0  0  0
111211  1  0  0  0  0
112212  1  0  0  0  0
112213  1  0  0  0  0
112214  1  0  0  0  0
113215  1  0  0  0  0
113216  1  0  0  0  0
114217  1  0  0  0  0
114218  1  0  0  0  0
114219  1  0  0  0  0
115220  1  0  0  0  0
115221  1  0  0  0  0
116222  1  0  0  0  0
116223  1  0  0  0  0
116224  1  0  0  0  0
125225  1  0  0  0  0
125226  1  0  0  0  0
126227  1  0  0  0  0
126228  1  0  0  0  0
126229  1  0  0  0  0
127230  1  0  0  0  0
127231  1  0  0  0  0
128232  1  0  0  0  0
128233  1  0  0  0  0
128234  1  0  0  0  0
129235  1  0  0  0  0
129236  1  0  0  0  0
130237  1  0  0  0  0
130238  1  0  0  0  0
130239  1  0  0  0  0
132240  1  0  0  0  0
136241  1  0  0  0  0
139242  1  0  0  0  0
144243  1  0  0  0  0
145244  1  0  0  0  0
146245  1  0  0  0  0
147246  1  0  0  0  0
M  END
