165

C          0.53900        5.27530        5.85230
C          1.78010        4.72420        5.80250
C          2.18510        3.56200        4.97080
O          1.48580        2.84050        4.29560
C          3.64100        3.40530        5.19150
C          4.51880        2.54490        4.55230
Cl         3.97150        1.36660        3.44260
C          5.88630        2.67540        4.82820
Cl         7.00890        1.61950        4.09450
C          6.34050        3.69560        5.66420
Cl         8.02340        3.89660        5.89960
C          5.44550        4.56800        6.30270
Cl         6.08780        5.90550        7.16320
C          4.08040        4.36790        6.12340
C          2.91110        5.04880        6.66830
C          2.84660        5.70390        7.86860
C          1.71180        6.37930        8.37040
N          0.85340        6.97330        8.84860
C          3.84050        5.66610        8.87250
N          4.52990        5.60140        9.78740
C         -0.54750        4.97280        4.95570
C         -0.32730        4.77070        3.59410
C         -1.37930        4.32900        2.81730
N         -1.38640        3.96430        1.49600
C         -0.27540        4.02690        0.58230
C         -0.36600        5.24970       -0.32770
C         -2.60700        3.41260        1.21150
C         -3.44540        3.47720        2.35490
C         -2.66050        4.08250        3.38510
C         -2.89000        4.38420        4.72530
C         -1.84560        4.84640        5.49160
C         -4.70890        2.89340        2.31420
C         -5.06820        2.15260        1.20840
C         -4.19840        2.02290        0.11790
C         -3.00050        2.73130        0.07520
C         -4.30420        0.94520       -0.86240
C         -4.11870       -0.37340       -0.50620
N         -4.04020       -0.82660        0.82410
C         -2.75810       -1.01850        1.33880
C         -2.53010       -1.88580        2.40990
C         -1.25870       -2.05280        2.91900
C         -0.18670       -1.36890        2.36460
S          1.45070       -1.53660        3.04870
C          1.20660       -0.56970        4.57350
C         -0.38950       -0.55010        1.26710
C         -1.66000       -0.37570        0.76040
C         -5.20850       -0.91910        1.57870
C         -6.40390       -1.26520        0.94450
C         -7.57810       -1.34040        1.65890
C         -7.59190       -1.07530        3.02650
S         -9.15530       -1.20930        3.83930
C         -8.75230       -1.00020        5.59680
C         -6.41060       -0.71220        3.65900
C         -5.23340       -0.63060        2.94160
C         -3.68400       -1.15180       -1.60260
S         -3.06080       -2.75600       -1.72880
C         -2.33900       -2.36300       -3.28920
C         -2.71920       -1.10500       -3.74400
N         -2.28410       -0.51470       -4.91710
C         -1.86650        0.82410       -4.82110
C         -2.26850        1.78250       -5.74400
C         -1.90390        3.10640       -5.58550
C         -1.13550        3.49240       -4.49570
S         -0.64470        5.15410       -4.15810
C         -1.31410        6.10580       -5.54860
C         -0.71050        2.52970       -3.58160
C         -1.06680        1.21110       -3.74390
C         -2.28130       -1.20550       -6.12990
C         -1.38860       -0.85390       -7.14490
C         -1.38690       -1.54060       -8.33680
C         -2.26610       -2.60160       -8.54760
S         -2.16940       -3.40280      -10.11680
C         -3.28610       -4.82480       -9.95200
C         -3.15430       -2.95590       -7.54140
C         -3.16210       -2.26170       -6.34750
C         -3.48880       -0.42600       -2.76680
S         -4.00760        1.21910       -2.56370
C         -1.20890       -3.12700       -3.68180
C         -0.78270       -4.28560       -3.06860
C          0.57940       -4.54670       -3.25240
S          1.44630       -5.92100       -2.61840
C          0.11800       -7.16250       -2.41160
C         -0.52260       -7.55370       -3.72900
C          1.21220       -3.59180       -4.04190
S          0.05280       -2.43680       -4.66640
C          2.59480       -3.35800       -4.22290
C          3.47920       -3.39980       -3.18090
C          3.06020       -3.24960       -1.76410
O          1.95110       -3.38920       -1.29250
C          4.25680       -2.76590       -1.05280
C          4.31500       -2.33420        0.27040
C          5.55940       -1.89590        0.65560
C          6.66520       -1.88980       -0.20570
C          6.61800       -2.30810       -1.51520
C          5.35940       -2.75050       -1.93170
C          4.91040       -3.20430       -3.24420
C          5.69550       -3.46590       -4.33640
C          5.18690       -3.96280       -5.55460
N          4.83150       -4.38040       -6.56350
C          7.09520       -3.31170       -4.36770
N          8.23460       -3.19520       -4.45340
C          7.58090       -1.31530        0.84680
C          8.56310       -2.27820        1.55810
C          7.93470       -3.64870        1.50720
C          6.88780       -3.64500        2.32150
C          6.78860       -2.27130        2.93690
C          8.27860       -1.90400        3.02150
C          6.34680       -1.31590        1.80270
H          0.31330        5.97680        6.64500
H          0.64820        4.95530        3.17390
H         -0.26860        3.11190       -0.01750
H          0.64790        4.05150        1.16460
H         -1.28240        5.22110       -0.91200
H          0.47540        5.27280       -1.01460
H         -0.36060        6.16220        0.26360
H         -3.86870        4.24070        5.15700
H         -1.99400        5.05650        6.54020
H         -5.37500        2.96780        3.15980
H         -6.01720        1.64010        1.18600
H         -2.35900        2.65410       -0.79020
H         -3.35350       -2.44220        2.83140
H         -1.09500       -2.72850        3.74560
H          2.10720       -0.69240        5.16670
H          1.06070        0.47770        4.32120
H          0.34790       -0.95730        5.11320
H          0.45120       -0.04380        0.81810
H         -1.79980        0.27830       -0.08560
H         -6.40230       -1.47640       -0.11460
H         -8.49970       -1.61220        1.16750
H         -8.39740        0.00930        5.78370
H         -9.68240       -1.16650        6.13120
H         -8.01620       -1.74030        5.89680
H         -6.39210       -0.47560        4.71070
H         -4.32920       -0.31370        3.43870
H         -2.88140        1.49120       -6.58380
H         -2.23980        3.82680       -6.31350
H         -2.39820        6.04040       -5.55650
H         -0.88780        5.74880       -6.48160
H         -1.00850        7.13270       -5.37320
H         -0.09180        2.83370       -2.75080
H         -0.72870        0.46530       -3.03880
H         -0.68780       -0.04940       -6.98380
H         -0.69360       -1.27170       -9.11860
H         -2.97870       -5.43910       -9.11100
H         -4.31240       -4.48640       -9.84210
H         -3.18190       -5.38530      -10.87580
H         -3.85410       -3.76510       -7.67410
H         -3.86570       -2.54140       -5.57720
H         -1.42790       -4.85600       -2.42520
H          0.63340       -8.01140       -1.96280
H         -0.60680       -6.77660       -1.69620
H          0.23190       -7.92400       -4.41910
H         -1.25850       -8.33790       -3.56230
H         -1.02130       -6.70230       -4.18770
H          2.92060       -3.01050       -5.19610
H          3.44150       -2.34970        0.90440
H          7.46980       -2.28260       -2.17510
H          8.04080       -0.35790        0.60810
H          9.59170       -2.20880        1.21400
H          8.27090       -4.43690        0.85920
H          6.17260       -4.42870        2.48930
H          6.19930       -2.19280        3.84660
H          8.82660       -2.52440        3.72930
H          8.45430       -0.85190        3.24200
H          5.99520       -0.35860        2.18030
