147

C         -7.58010        1.71380       -4.62150
C         -7.97480        0.40500       -4.63980
C         -8.81970       -0.11920       -5.73300
O         -9.43310        0.52050       -6.55430
C         -8.68320       -1.59550       -5.63800
C         -9.10080       -2.56190       -6.53560
Cl       -10.01610       -2.15510       -7.91780
C         -8.74090       -3.89540       -6.29200
Cl        -9.22870       -5.12140       -7.38040
C         -7.96640       -4.22150       -5.18120
Cl        -7.48350       -5.84330       -4.94010
C         -7.56340       -3.23950       -4.26240
Cl        -6.54840       -3.70510       -2.97130
C         -7.94510       -1.92450       -4.48160
C         -7.67810       -0.69130       -3.74220
C         -7.53240       -0.55370       -2.38540
C         -7.47450        0.70510       -1.74660
N         -7.44990        1.69230       -1.16040
C         -7.60940       -1.56590       -1.40660
N         -7.72850       -2.27480       -0.51140
C         -6.45120        2.23290       -3.95890
C         -6.20640        3.54050       -3.57920
C         -4.98070        3.73130       -2.93370
O         -4.52250        4.89450       -2.43020
C         -5.36070        6.02340       -2.55540
C         -4.20980        2.56370       -2.87160
S         -5.08520        1.22860       -3.56670
C         -2.93260        2.23760       -2.34040
C         -2.12700        2.77410       -1.33820
N         -2.26250        3.98910       -0.67630
C         -2.20620        3.90970        0.72730
C         -1.36740        4.72850        1.48400
C         -1.32440        4.59410        2.85270
C         -2.10590        3.63610        3.49880
S         -1.96120        3.56340        5.25370
C         -3.05430        2.19460        5.72970
C         -2.93400        2.81250        2.74750
C         -2.98160        2.95150        1.37450
C         -2.11050        5.20100       -1.34190
C         -1.52620        5.25680       -2.60560
C         -1.37520        6.46010       -3.26550
C         -1.79090        7.64060       -2.66610
S         -1.65670        9.23890       -3.40540
C         -0.82400        8.92390       -4.98680
C         -2.36790        7.59260       -1.39760
C         -2.53340        6.39200       -0.74600
C         -1.09650        1.86600       -0.98020
S          0.17260        1.91550        0.19320
C          0.72610        0.32670       -0.31660
C          0.00740       -0.17440       -1.39730
N          0.31050       -1.31370       -2.11250
C         -0.70870       -1.93890       -2.85330
C         -1.96240       -2.16170       -2.28340
C         -2.98030       -2.70580       -3.03530
C         -2.76800       -3.04960       -4.36860
S         -4.15760       -3.68240       -5.25360
C         -3.51860       -3.99690       -6.92250
C         -1.50650       -2.87520       -4.92390
C         -0.48840       -2.32320       -4.17210
C          1.63460       -1.76380       -2.25050
C          1.89530       -3.13400       -2.25860
C          3.19150       -3.59420       -2.32810
C          4.26110       -2.70020       -2.37590
S          5.87440       -3.40450       -2.39020
C          6.97090       -2.00650       -2.75310
C          4.00280       -1.33510       -2.40120
C          2.70130       -0.87540       -2.35500
C         -1.05150        0.70430       -1.73110
S         -2.30890        0.68750       -2.91280
C          1.83090       -0.28960        0.34470
C          1.98240       -1.62640        0.63900
C          3.22570       -1.93780        1.21210
O          3.70450       -3.15440        1.47960
C          2.85660       -4.26210        1.27360
C          4.03900       -0.80800        1.38420
S          3.23610        0.62010        0.78690
C          5.37000       -0.73480        1.82690
C          5.96820       -1.58490        2.71860
C          5.25160       -2.35180        3.76030
O          4.05360       -2.45160        3.92160
C          6.30420       -2.85630        4.66890
C          6.11840       -3.59920        5.83210
C          7.28360       -3.90490        6.49460
C          8.54450       -3.49860        6.03880
C          8.74340       -2.76360        4.89430
C          7.56960       -2.44300        4.20600
C          7.38410       -1.69040        2.96990
C          8.37420       -1.26250        2.11920
C          8.12200       -0.69020        0.85830
N          7.98100       -0.25890       -0.19820
C          9.75460       -1.39440        2.36510
N         10.89160       -1.46000        2.51380
C          9.26100       -4.14080        7.20090
C          9.74200       -3.19560        8.32200
C          9.95410       -4.11390        9.50390
C          8.75970       -4.49820        9.93580
C          7.72030       -3.84610        9.05280
C          8.43010       -2.52150        8.74410
C          7.85490       -4.59420        7.70920
H         -8.14210        2.39640       -5.24950
H         -6.93790        4.31250       -3.73090
H         -5.55600        6.25770       -3.60610
H         -4.81240        6.84400       -2.09740
H         -6.30730        5.87250       -2.02890
H         -0.74110        5.45690        0.99210
H         -0.67370        5.22210        3.44130
H         -4.08040        2.42500        5.45870
H         -2.96810        2.11520        6.80890
H         -2.71790        1.27270        5.26450
H         -3.55200        2.06340        3.21470
H         -3.63420        2.31580        0.79380
H         -1.18610        4.34800       -3.07950
H         -0.92160        6.46110       -4.24360
H         -1.44010        8.28460       -5.61230
H         -0.70980        9.89670       -5.45480
H          0.15270        8.48300       -4.80990
H         -2.69340        8.51270       -0.93570
H         -3.00640        6.36660        0.22350
H         -2.13510       -1.89950       -1.25010
H         -3.95190       -2.86440       -2.59590
H         -4.36190       -4.38510       -7.48560
H         -2.72790       -4.74050       -6.88630
H         -3.17270       -3.06960       -7.36960
H         -1.30480       -3.14880       -5.94670
H          0.48520       -2.17300       -4.61490
H          1.07150       -3.83140       -2.20520
H          3.39660       -4.65410       -2.33320
H          7.02620       -1.32970       -1.90390
H          6.63070       -1.50020       -3.65150
H          7.94860       -2.44610       -2.92680
H          4.80790       -0.62020       -2.45130
H          2.51320        0.18730       -2.38830
H          1.20400       -2.34310        0.45450
H          1.97920       -4.20880        1.92380
H          3.44870       -5.13650        1.53630
H          2.54330       -4.32980        0.22750
H          5.94750        0.09480        1.43530
H          5.13030       -3.89350        6.14980
H          9.71730       -2.45100        4.55510
H          9.99310       -4.90400        6.94400
H         10.57230       -2.55030        8.04840
H         10.92000       -4.42360        9.85750
H          8.52870       -5.19290       10.72200
H          6.70840       -3.79260        9.44550
H          8.55210       -1.90330        9.63200
H          7.95730       -1.93790        7.95630
H          7.65030       -5.66000        7.79320
