
  xtb     02042201323D
 energy: -292.869201657250 gnorm: 0.000802592013 xtb: 6.4.1 (unknown)
148159  0     0  0            999 V2000
   -0.3942    0.6643    7.9132 C   0  0  0  0  0  0  0  0  0  0  0  0
    0.5414    1.2426    8.7181 C   0  0  0  0  0  0  0  0  0  0  0  0
    0.2717    1.2219   10.1844 C   0  0  0  0  0  0  0  0  0  0  0  0
   -0.7779    0.9555   10.7164 O   0  0  0  0  0  0  0  0  0  0  0  0
    1.5663    1.5438   10.8275 C   0  0  0  0  0  0  0  0  0  0  0  0
    1.9171    1.4814   12.1649 C   0  0  0  0  0  0  0  0  0  0  0  0
    0.7595    1.1499   13.3730 Cl  0  0  0  0  0  0  0  0  0  0  0  0
    3.2618    1.6893   12.5067 C   0  0  0  0  0  0  0  0  0  0  0  0
    3.7381    1.6482   14.1479 Cl  0  0  0  0  0  0  0  0  0  0  0  0
    4.2170    1.8889   11.5107 C   0  0  0  0  0  0  0  0  0  0  0  0
    5.8632    2.0429   11.9462 Cl  0  0  0  0  0  0  0  0  0  0  0  0
    3.8536    1.9531   10.1557 C   0  0  0  0  0  0  0  0  0  0  0  0
    5.0908    2.0369    8.9728 Cl  0  0  0  0  0  0  0  0  0  0  0  0
    2.5108    1.8414    9.8256 C   0  0  0  0  0  0  0  0  0  0  0  0
    1.8173    1.9021    8.5388 C   0  0  0  0  0  0  0  0  0  0  0  0
    2.1762    2.7145    7.4963 C   0  0  0  0  0  0  0  0  0  0  0  0
    1.4404    2.8337    6.3034 C   0  0  0  0  0  0  0  0  0  0  0  0
    0.9038    2.9590    5.2958 N   0  0  0  0  0  0  0  0  0  0  0  0
    3.2254    3.6589    7.5151 C   0  0  0  0  0  0  0  0  0  0  0  0
    3.9877    4.5148    7.4564 N   0  0  0  0  0  0  0  0  0  0  0  0
   -0.4065    0.2560    6.5485 C   0  0  0  0  0  0  0  0  0  0  0  0
   -1.6622   -0.1116    5.9808 C   0  0  0  0  0  0  0  0  0  0  0  0
   -2.7094   -0.0549    6.8233 O   0  0  0  0  0  0  0  0  0  0  0  0
   -4.0009   -0.4840    6.4372 C   0  0  0  0  0  0  0  0  0  0  0  0
   -1.6864   -0.4595    4.6399 C   0  0  0  0  0  0  0  0  0  0  0  0
   -2.8268   -0.9442    4.0851 F   0  0  0  0  0  0  0  0  0  0  0  0
   -0.5598   -0.4013    3.8024 C   0  0  0  0  0  0  0  0  0  0  0  0
    0.7114   -0.2479    4.4201 C   0  0  0  0  0  0  0  0  0  0  0  0
    1.7773   -0.4301    3.6113 O   0  0  0  0  0  0  0  0  0  0  0  0
    3.0753   -0.0065    3.9746 C   0  0  0  0  0  0  0  0  0  0  0  0
    0.7452    0.0649    5.7642 C   0  0  0  0  0  0  0  0  0  0  0  0
    1.9386    0.1557    6.3980 F   0  0  0  0  0  0  0  0  0  0  0  0
   -0.6709   -0.5019    2.3766 C   0  0  0  0  0  0  0  0  0  0  0  0
   -1.7379   -0.1524    1.5375 C   0  0  0  0  0  0  0  0  0  0  0  0
   -2.9262    0.4724    1.8585 N   0  0  0  0  0  0  0  0  0  0  0  0
   -3.0643    1.4250    2.8676 C   0  0  0  0  0  0  0  0  0  0  0  0
   -1.9798    2.1787    3.3123 C   0  0  0  0  0  0  0  0  0  0  0  0
   -2.1074    3.0358    4.3859 C   0  0  0  0  0  0  0  0  0  0  0  0
   -3.3262    3.1633    5.0372 C   0  0  0  0  0  0  0  0  0  0  0  0
   -3.5465    4.1526    6.4830 S   0  0  0  0  0  0  0  0  0  0  0  0
   -1.8828    4.1525    7.2082 C   0  0  0  0  0  0  0  0  0  0  0  0
   -4.4357    2.4807    4.5444 C   0  0  0  0  0  0  0  0  0  0  0  0
   -4.3075    1.6180    3.4781 C   0  0  0  0  0  0  0  0  0  0  0  0
   -4.0444    0.1220    1.0742 C   0  0  0  0  0  0  0  0  0  0  0  0
   -4.3418   -1.2209    0.8661 C   0  0  0  0  0  0  0  0  0  0  0  0
   -5.4038   -1.5919    0.0655 C   0  0  0  0  0  0  0  0  0  0  0  0
   -6.1878   -0.6171   -0.5366 C   0  0  0  0  0  0  0  0  0  0  0  0
   -7.5500   -0.9616   -1.6054 S   0  0  0  0  0  0  0  0  0  0  0  0
   -7.6718   -2.7739   -1.5963 C   0  0  0  0  0  0  0  0  0  0  0  0
   -5.9034    0.7303   -0.3139 C   0  0  0  0  0  0  0  0  0  0  0  0
   -4.8435    1.0992    0.4829 C   0  0  0  0  0  0  0  0  0  0  0  0
   -1.4316   -0.4569    0.1857 C   0  0  0  0  0  0  0  0  0  0  0  0
   -2.3080   -0.3355   -1.3033 S   0  0  0  0  0  0  0  0  0  0  0  0
   -0.9042   -0.8865   -2.1974 C   0  0  0  0  0  0  0  0  0  0  0  0
    0.1508   -1.2405   -1.3644 C   0  0  0  0  0  0  0  0  0  0  0  0
    1.3136   -1.8693   -1.7554 N   0  0  0  0  0  0  0  0  0  0  0  0
    2.4877   -1.5792   -1.0471 C   0  0  0  0  0  0  0  0  0  0  0  0
    3.3792   -2.5881   -0.6835 C   0  0  0  0  0  0  0  0  0  0  0  0
    4.4979   -2.2844    0.0590 C   0  0  0  0  0  0  0  0  0  0  0  0
    4.7524   -0.9719    0.4555 C   0  0  0  0  0  0  0  0  0  0  0  0
    6.1907   -0.7125    1.4487 S   0  0  0  0  0  0  0  0  0  0  0  0
    6.3454    1.0954    1.5360 C   0  0  0  0  0  0  0  0  0  0  0  0
    3.8780    0.0379    0.0777 C   0  0  0  0  0  0  0  0  0  0  0  0
    2.7589   -0.2661   -0.6711 C   0  0  0  0  0  0  0  0  0  0  0  0
    1.3090   -2.8045   -2.7974 C   0  0  0  0  0  0  0  0  0  0  0  0
    0.2027   -3.6296   -3.0086 C   0  0  0  0  0  0  0  0  0  0  0  0
    0.1922   -4.5201   -4.0559 C   0  0  0  0  0  0  0  0  0  0  0  0
    1.2876   -4.6238   -4.9128 C   0  0  0  0  0  0  0  0  0  0  0  0
    1.1533   -5.8087   -6.2082 S   0  0  0  0  0  0  0  0  0  0  0  0
    2.6508   -5.5309   -7.1921 C   0  0  0  0  0  0  0  0  0  0  0  0
    2.4014   -3.8263   -4.6895 C   0  0  0  0  0  0  0  0  0  0  0  0
    2.4062   -2.9216   -3.6456 C   0  0  0  0  0  0  0  0  0  0  0  0
   -0.1623   -0.9706   -0.0089 C   0  0  0  0  0  0  0  0  0  0  0  0
    0.7182   -1.0848    1.4679 S   0  0  0  0  0  0  0  0  0  0  0  0
   -0.9386   -0.9122   -3.6361 C   0  0  0  0  0  0  0  0  0  0  0  0
   -2.1394   -1.2471   -4.3082 C   0  0  0  0  0  0  0  0  0  0  0  0
   -3.2054   -1.4914   -3.5107 O   0  0  0  0  0  0  0  0  0  0  0  0
   -4.5156   -1.4445   -4.0435 C   0  0  0  0  0  0  0  0  0  0  0  0
   -2.0949   -1.3293   -5.6855 C   0  0  0  0  0  0  0  0  0  0  0  0
   -3.1826   -1.7503   -6.3720 F   0  0  0  0  0  0  0  0  0  0  0  0
   -0.9422   -1.0597   -6.4473 C   0  0  0  0  0  0  0  0  0  0  0  0
    0.2168   -0.5852   -5.7827 C   0  0  0  0  0  0  0  0  0  0  0  0
    1.1926   -0.1083   -6.5707 O   0  0  0  0  0  0  0  0  0  0  0  0
    2.4713    0.1939   -6.0481 C   0  0  0  0  0  0  0  0  0  0  0  0
    0.1803   -0.5505   -4.3933 C   0  0  0  0  0  0  0  0  0  0  0  0
    1.2368   -0.0513   -3.7036 F   0  0  0  0  0  0  0  0  0  0  0  0
   -1.0491   -1.1675   -7.8705 C   0  0  0  0  0  0  0  0  0  0  0  0
   -0.0940   -1.5060   -8.7819 C   0  0  0  0  0  0  0  0  0  0  0  0
    1.2037   -2.1546   -8.4979 C   0  0  0  0  0  0  0  0  0  0  0  0
    1.6736   -2.4712   -7.4258 O   0  0  0  0  0  0  0  0  0  0  0  0
    1.7930   -2.4605   -9.8227 C   0  0  0  0  0  0  0  0  0  0  0  0
    3.0078   -3.0529  -10.1034 C   0  0  0  0  0  0  0  0  0  0  0  0
    3.3497   -3.2675  -11.4332 C   0  0  0  0  0  0  0  0  0  0  0  0
    4.8515   -3.9982  -11.8453 Cl  0  0  0  0  0  0  0  0  0  0  0  0
    2.4592   -2.8835  -12.4378 C   0  0  0  0  0  0  0  0  0  0  0  0
    2.7908   -3.0987  -13.7160 F   0  0  0  0  0  0  0  0  0  0  0  0
    1.2402   -2.2827  -12.1650 C   0  0  0  0  0  0  0  0  0  0  0  0
    0.9046   -2.0659  -10.8372 C   0  0  0  0  0  0  0  0  0  0  0  0
   -0.2662   -1.4462  -10.2240 C   0  0  0  0  0  0  0  0  0  0  0  0
   -1.2909   -0.8450  -10.9051 C   0  0  0  0  0  0  0  0  0  0  0  0
   -1.3929   -0.8175  -12.3127 C   0  0  0  0  0  0  0  0  0  0  0  0
   -1.5372   -0.7666  -13.4500 N   0  0  0  0  0  0  0  0  0  0  0  0
   -2.3672   -0.1414  -10.3212 C   0  0  0  0  0  0  0  0  0  0  0  0
   -3.2597    0.4723   -9.9407 N   0  0  0  0  0  0  0  0  0  0  0  0
   -1.3101    0.4174    8.4433 H   0  0  0  0  0  0  0  0  0  0  0  0
   -4.0063   -1.5404    6.1603 H   0  0  0  0  0  0  0  0  0  0  0  0
   -4.6169   -0.3366    7.3228 H   0  0  0  0  0  0  0  0  0  0  0  0
   -4.3939    0.1166    5.6147 H   0  0  0  0  0  0  0  0  0  0  0  0
    3.0809    1.0440    4.2753 H   0  0  0  0  0  0  0  0  0  0  0  0
    3.4957   -0.6217    4.7726 H   0  0  0  0  0  0  0  0  0  0  0  0
    3.6687   -0.1402    3.0717 H   0  0  0  0  0  0  0  0  0  0  0  0
   -1.0231    2.0970    2.8215 H   0  0  0  0  0  0  0  0  0  0  0  0
   -1.2411    3.5863    4.7103 H   0  0  0  0  0  0  0  0  0  0  0  0
   -1.2201    4.8068    6.6491 H   0  0  0  0  0  0  0  0  0  0  0  0
   -1.9995    4.5248    8.2213 H   0  0  0  0  0  0  0  0  0  0  0  0
   -1.5012    3.1348    7.2246 H   0  0  0  0  0  0  0  0  0  0  0  0
   -5.3920    2.6118    5.0275 H   0  0  0  0  0  0  0  0  0  0  0  0
   -5.1641    1.0580    3.1346 H   0  0  0  0  0  0  0  0  0  0  0  0
   -3.7329   -1.9763    1.3396 H   0  0  0  0  0  0  0  0  0  0  0  0
   -5.6067   -2.6405   -0.0781 H   0  0  0  0  0  0  0  0  0  0  0  0
   -8.5177   -3.0092   -2.2344 H   0  0  0  0  0  0  0  0  0  0  0  0
   -6.7686   -3.2147   -2.0070 H   0  0  0  0  0  0  0  0  0  0  0  0
   -7.8626   -3.1274   -0.5874 H   0  0  0  0  0  0  0  0  0  0  0  0
   -6.5201    1.4801   -0.7848 H   0  0  0  0  0  0  0  0  0  0  0  0
   -4.6198    2.1427    0.6447 H   0  0  0  0  0  0  0  0  0  0  0  0
    3.1809   -3.6080   -0.9764 H   0  0  0  0  0  0  0  0  0  0  0  0
    5.1849   -3.0625    0.3540 H   0  0  0  0  0  0  0  0  0  0  0  0
    7.2811    1.2814    2.0538 H   0  0  0  0  0  0  0  0  0  0  0  0
    6.3903    1.5086    0.5329 H   0  0  0  0  0  0  0  0  0  0  0  0
    5.5232    1.5214    2.1039 H   0  0  0  0  0  0  0  0  0  0  0  0
    4.0541    1.0638    0.3578 H   0  0  0  0  0  0  0  0  0  0  0  0
    2.0865    0.5213   -0.9753 H   0  0  0  0  0  0  0  0  0  0  0  0
   -0.6466   -3.5709   -2.3448 H   0  0  0  0  0  0  0  0  0  0  0  0
   -0.6630   -5.1578   -4.2200 H   0  0  0  0  0  0  0  0  0  0  0  0
    2.5358   -6.1311   -8.0894 H   0  0  0  0  0  0  0  0  0  0  0  0
    2.6998   -4.4766   -7.4450 H   0  0  0  0  0  0  0  0  0  0  0  0
    3.5277   -5.8550   -6.6386 H   0  0  0  0  0  0  0  0  0  0  0  0
    3.2677   -3.8882   -5.3260 H   0  0  0  0  0  0  0  0  0  0  0  0
    3.2698   -2.2936   -3.4812 H   0  0  0  0  0  0  0  0  0  0  0  0
   -5.1700   -1.3496   -3.1790 H   0  0  0  0  0  0  0  0  0  0  0  0
   -4.7569   -2.3559   -4.5952 H   0  0  0  0  0  0  0  0  0  0  0  0
   -4.6553   -0.5786   -4.6933 H   0  0  0  0  0  0  0  0  0  0  0  0
    3.0947    0.3873   -6.9200 H   0  0  0  0  0  0  0  0  0  0  0  0
    2.8772   -0.6523   -5.4911 H   0  0  0  0  0  0  0  0  0  0  0  0
    2.4502    1.0828   -5.4133 H   0  0  0  0  0  0  0  0  0  0  0  0
   -2.0492   -0.9945   -8.2505 H   0  0  0  0  0  0  0  0  0  0  0  0
    3.6849   -3.3370   -9.3139 H   0  0  0  0  0  0  0  0  0  0  0  0
    0.5993   -2.0106  -12.9875 H   0  0  0  0  0  0  0  0  0  0  0  0
  1  2  2  0  0  0  0
  2  3  1  0  0  0  0
  3  4  2  0  0  0  0
  3  5  1  0  0  0  0
  5  6  2  0  0  0  0
  6  7  1  0  0  0  0
  6  8  1  0  0  0  0
  8  9  1  0  0  0  0
  8 10  2  0  0  0  0
 10 11  1  0  0  0  0
 10 12  1  0  0  0  0
 12 13  1  0  0  0  0
 12 14  2  0  0  0  0
 14 15  1  0  0  0  0
 15 16  2  0  0  0  0
 16 17  1  0  0  0  0
 17 18  3  0  0  0  0
 16 19  1  0  0  0  0
 19 20  3  0  0  0  0
  1 21  1  0  0  0  0
 21 22  2  0  0  0  0
 22 23  1  0  0  0  0
 23 24  1  0  0  0  0
 22 25  1  0  0  0  0
 25 26  1  0  0  0  0
 25 27  2  0  0  0  0
 27 28  1  0  0  0  0
 28 29  1  0  0  0  0
 29 30  1  0  0  0  0
 28 31  2  0  0  0  0
 31 32  1  0  0  0  0
 27 33  1  0  0  0  0
 33 34  2  0  0  0  0
 34 35  1  0  0  0  0
 35 36  1  0  0  0  0
 36 37  2  0  0  0  0
 37 38  1  0  0  0  0
 38 39  2  0  0  0  0
 39 40  1  0  0  0  0
 40 41  1  0  0  0  0
 39 42  1  0  0  0  0
 42 43  2  0  0  0  0
 35 44  1  0  0  0  0
 44 45  2  0  0  0  0
 45 46  1  0  0  0  0
 46 47  2  0  0  0  0
 47 48  1  0  0  0  0
 48 49  1  0  0  0  0
 47 50  1  0  0  0  0
 50 51  2  0  0  0  0
 34 52  1  0  0  0  0
 52 53  1  0  0  0  0
 53 54  1  0  0  0  0
 54 55  2  0  0  0  0
 55 56  1  0  0  0  0
 56 57  1  0  0  0  0
 57 58  2  0  0  0  0
 58 59  1  0  0  0  0
 59 60  2  0  0  0  0
 60 61  1  0  0  0  0
 61 62  1  0  0  0  0
 60 63  1  0  0  0  0
 63 64  2  0  0  0  0
 56 65  1  0  0  0  0
 65 66  2  0  0  0  0
 66 67  1  0  0  0  0
 67 68  2  0  0  0  0
 68 69  1  0  0  0  0
 69 70  1  0  0  0  0
 68 71  1  0  0  0  0
 71 72  2  0  0  0  0
 55 73  1  0  0  0  0
 73 74  1  0  0  0  0
 54 75  1  0  0  0  0
 75 76  2  0  0  0  0
 76 77  1  0  0  0  0
 77 78  1  0  0  0  0
 76 79  1  0  0  0  0
 79 80  1  0  0  0  0
 79 81  2  0  0  0  0
 81 82  1  0  0  0  0
 82 83  1  0  0  0  0
 83 84  1  0  0  0  0
 82 85  2  0  0  0  0
 85 86  1  0  0  0  0
 81 87  1  0  0  0  0
 87 88  2  0  0  0  0
 88 89  1  0  0  0  0
 89 90  2  0  0  0  0
 89 91  1  0  0  0  0
 91 92  2  0  0  0  0
 92 93  1  0  0  0  0
 93 94  1  0  0  0  0
 93 95  2  0  0  0  0
 95 96  1  0  0  0  0
 95 97  1  0  0  0  0
 97 98  2  0  0  0  0
 98 99  1  0  0  0  0
 99100  2  0  0  0  0
100101  1  0  0  0  0
101102  3  0  0  0  0
100103  1  0  0  0  0
103104  3  0  0  0  0
 15  2  1  0  0  0  0
 31 21  1  0  0  0  0
 74 33  1  0  0  0  0
 85 75  1  0  0  0  0
 99 88  1  0  0  0  0
 14  5  1  0  0  0  0
 43 36  1  0  0  0  0
 51 44  1  0  0  0  0
 73 52  2  0  0  0  0
 98 91  1  0  0  0  0
 64 57  1  0  0  0  0
 72 65  1  0  0  0  0
  1105  1  0  0  0  0
 24106  1  0  0  0  0
 24107  1  0  0  0  0
 24108  1  0  0  0  0
 30109  1  0  0  0  0
 30110  1  0  0  0  0
 30111  1  0  0  0  0
 37112  1  0  0  0  0
 38113  1  0  0  0  0
 41114  1  0  0  0  0
 41115  1  0  0  0  0
 41116  1  0  0  0  0
 42117  1  0  0  0  0
 43118  1  0  0  0  0
 45119  1  0  0  0  0
 46120  1  0  0  0  0
 49121  1  0  0  0  0
 49122  1  0  0  0  0
 49123  1  0  0  0  0
 50124  1  0  0  0  0
 51125  1  0  0  0  0
 58126  1  0  0  0  0
 59127  1  0  0  0  0
 62128  1  0  0  0  0
 62129  1  0  0  0  0
 62130  1  0  0  0  0
 63131  1  0  0  0  0
 64132  1  0  0  0  0
 66133  1  0  0  0  0
 67134  1  0  0  0  0
 70135  1  0  0  0  0
 70136  1  0  0  0  0
 70137  1  0  0  0  0
 71138  1  0  0  0  0
 72139  1  0  0  0  0
 78140  1  0  0  0  0
 78141  1  0  0  0  0
 78142  1  0  0  0  0
 84143  1  0  0  0  0
 84144  1  0  0  0  0
 84145  1  0  0  0  0
 87146  1  0  0  0  0
 92147  1  0  0  0  0
 97148  1  0  0  0  0
M  END
