148

C         -0.39420        0.66430        7.91320
C          0.54140        1.24260        8.71810
C          0.27170        1.22190       10.18440
O         -0.77790        0.95550       10.71640
C          1.56630        1.54380       10.82750
C          1.91710        1.48140       12.16490
Cl         0.75950        1.14990       13.37300
C          3.26180        1.68930       12.50670
Cl         3.73810        1.64820       14.14790
C          4.21700        1.88890       11.51070
Cl         5.86320        2.04290       11.94620
C          3.85360        1.95310       10.15570
Cl         5.09080        2.03690        8.97280
C          2.51080        1.84140        9.82560
C          1.81730        1.90210        8.53880
C          2.17620        2.71450        7.49630
C          1.44040        2.83370        6.30340
N          0.90380        2.95900        5.29580
C          3.22540        3.65890        7.51510
N          3.98770        4.51480        7.45640
C         -0.40650        0.25600        6.54850
C         -1.66220       -0.11160        5.98080
O         -2.70940       -0.05490        6.82330
C         -4.00090       -0.48400        6.43720
C         -1.68640       -0.45950        4.63990
F         -2.82680       -0.94420        4.08510
C         -0.55980       -0.40130        3.80240
C          0.71140       -0.24790        4.42010
O          1.77730       -0.43010        3.61130
C          3.07530       -0.00650        3.97460
C          0.74520        0.06490        5.76420
F          1.93860        0.15570        6.39800
C         -0.67090       -0.50190        2.37660
C         -1.73790       -0.15240        1.53750
N         -2.92620        0.47240        1.85850
C         -3.06430        1.42500        2.86760
C         -1.97980        2.17870        3.31230
C         -2.10740        3.03580        4.38590
C         -3.32620        3.16330        5.03720
S         -3.54650        4.15260        6.48300
C         -1.88280        4.15250        7.20820
C         -4.43570        2.48070        4.54440
C         -4.30750        1.61800        3.47810
C         -4.04440        0.12200        1.07420
C         -4.34180       -1.22090        0.86610
C         -5.40380       -1.59190        0.06550
C         -6.18780       -0.61710       -0.53660
S         -7.55000       -0.96160       -1.60540
C         -7.67180       -2.77390       -1.59630
C         -5.90340        0.73030       -0.31390
C         -4.84350        1.09920        0.48290
C         -1.43160       -0.45690        0.18570
S         -2.30800       -0.33550       -1.30330
C         -0.90420       -0.88650       -2.19740
C          0.15080       -1.24050       -1.36440
N          1.31360       -1.86930       -1.75540
C          2.48770       -1.57920       -1.04710
C          3.37920       -2.58810       -0.68350
C          4.49790       -2.28440        0.05900
C          4.75240       -0.97190        0.45550
S          6.19070       -0.71250        1.44870
C          6.34540        1.09540        1.53600
C          3.87800        0.03790        0.07770
C          2.75890       -0.26610       -0.67110
C          1.30900       -2.80450       -2.79740
C          0.20270       -3.62960       -3.00860
C          0.19220       -4.52010       -4.05590
C          1.28760       -4.62380       -4.91280
S          1.15330       -5.80870       -6.20820
C          2.65080       -5.53090       -7.19210
C          2.40140       -3.82630       -4.68950
C          2.40620       -2.92160       -3.64560
C         -0.16230       -0.97060       -0.00890
S          0.71820       -1.08480        1.46790
C         -0.93860       -0.91220       -3.63610
C         -2.13940       -1.24710       -4.30820
O         -3.20540       -1.49140       -3.51070
C         -4.51560       -1.44450       -4.04350
C         -2.09490       -1.32930       -5.68550
F         -3.18260       -1.75030       -6.37200
C         -0.94220       -1.05970       -6.44730
C          0.21680       -0.58520       -5.78270
O          1.19260       -0.10830       -6.57070
C          2.47130        0.19390       -6.04810
C          0.18030       -0.55050       -4.39330
F          1.23680       -0.05130       -3.70360
C         -1.04910       -1.16750       -7.87050
C         -0.09400       -1.50600       -8.78190
C          1.20370       -2.15460       -8.49790
O          1.67360       -2.47120       -7.42580
C          1.79300       -2.46050       -9.82270
C          3.00780       -3.05290      -10.10340
C          3.34970       -3.26750      -11.43320
Cl         4.85150       -3.99820      -11.84530
C          2.45920       -2.88350      -12.43780
F          2.79080       -3.09870      -13.71600
C          1.24020       -2.28270      -12.16500
C          0.90460       -2.06590      -10.83720
C         -0.26620       -1.44620      -10.22400
C         -1.29090       -0.84500      -10.90510
C         -1.39290       -0.81750      -12.31270
N         -1.53720       -0.76660      -13.45000
C         -2.36720       -0.14140      -10.32120
N         -3.25970        0.47230       -9.94070
H         -1.31010        0.41740        8.44330
H         -4.00630       -1.54040        6.16030
H         -4.61690       -0.33660        7.32280
H         -4.39390        0.11660        5.61470
H          3.08090        1.04400        4.27530
H          3.49570       -0.62170        4.77260
H          3.66870       -0.14020        3.07170
H         -1.02310        2.09700        2.82150
H         -1.24110        3.58630        4.71030
H         -1.22010        4.80680        6.64910
H         -1.99950        4.52480        8.22130
H         -1.50120        3.13480        7.22460
H         -5.39200        2.61180        5.02750
H         -5.16410        1.05800        3.13460
H         -3.73290       -1.97630        1.33960
H         -5.60670       -2.64050       -0.07810
H         -8.51770       -3.00920       -2.23440
H         -6.76860       -3.21470       -2.00700
H         -7.86260       -3.12740       -0.58740
H         -6.52010        1.48010       -0.78480
H         -4.61980        2.14270        0.64470
H          3.18090       -3.60800       -0.97640
H          5.18490       -3.06250        0.35400
H          7.28110        1.28140        2.05380
H          6.39030        1.50860        0.53290
H          5.52320        1.52140        2.10390
H          4.05410        1.06380        0.35780
H          2.08650        0.52130       -0.97530
H         -0.64660       -3.57090       -2.34480
H         -0.66300       -5.15780       -4.22000
H          2.53580       -6.13110       -8.08940
H          2.69980       -4.47660       -7.44500
H          3.52770       -5.85500       -6.63860
H          3.26770       -3.88820       -5.32600
H          3.26980       -2.29360       -3.48120
H         -5.17000       -1.34960       -3.17900
H         -4.75690       -2.35590       -4.59520
H         -4.65530       -0.57860       -4.69330
H          3.09470        0.38730       -6.92000
H          2.87720       -0.65230       -5.49110
H          2.45020        1.08280       -5.41330
H         -2.04920       -0.99450       -8.25050
H          3.68490       -3.33700       -9.31390
H          0.59930       -2.01060      -12.98750
