
  xtb     02162210483D
 energy: -309.915313095991 gnorm: 0.000596136817 xtb: 6.4.1 (unknown)
164178  0     0  0            999 V2000
   11.5756   -1.3036   -2.2680 C   0  0  0  0  0  0  0  0  0  0  0  0
   11.9456   -1.5138   -3.5658 C   0  0  0  0  0  0  0  0  0  0  0  0
   11.1513   -1.8758   -4.7607 C   0  0  0  0  0  0  0  0  0  0  0  0
    9.9583   -1.7885   -4.9479 O   0  0  0  0  0  0  0  0  0  0  0  0
   12.1322   -2.4062   -5.7401 C   0  0  0  0  0  0  0  0  0  0  0  0
   11.8856   -3.0255   -6.9535 C   0  0  0  0  0  0  0  0  0  0  0  0
   10.3090   -3.1461   -7.5934 Cl  0  0  0  0  0  0  0  0  0  0  0  0
   12.9722   -3.5713   -7.6513 C   0  0  0  0  0  0  0  0  0  0  0  0
   12.7215   -4.3220   -9.1671 Cl  0  0  0  0  0  0  0  0  0  0  0  0
   14.2500   -3.5423   -7.0935 C   0  0  0  0  0  0  0  0  0  0  0  0
   15.5409   -4.3031   -7.9178 Cl  0  0  0  0  0  0  0  0  0  0  0  0
   14.4935   -2.9132   -5.8623 C   0  0  0  0  0  0  0  0  0  0  0  0
   16.0499   -3.0641   -5.1582 Cl  0  0  0  0  0  0  0  0  0  0  0  0
   13.4349   -2.2834   -5.2202 C   0  0  0  0  0  0  0  0  0  0  0  0
   13.3493   -1.5231   -3.9795 C   0  0  0  0  0  0  0  0  0  0  0  0
   14.3361   -0.7543   -3.4287 C   0  0  0  0  0  0  0  0  0  0  0  0
   14.1844    0.0324   -2.2625 C   0  0  0  0  0  0  0  0  0  0  0  0
   14.1541    0.6987   -1.3285 N   0  0  0  0  0  0  0  0  0  0  0  0
   15.5894   -0.4772   -4.0202 C   0  0  0  0  0  0  0  0  0  0  0  0
   16.5835   -0.1145   -4.4630 N   0  0  0  0  0  0  0  0  0  0  0  0
   10.3170   -1.2408   -1.5941 C   0  0  0  0  0  0  0  0  0  0  0  0
    9.0779   -1.1908   -2.2441 C   0  0  0  0  0  0  0  0  0  0  0  0
    7.9320   -1.1373   -1.4767 C   0  0  0  0  0  0  0  0  0  0  0  0
    6.6227   -1.1052   -1.8865 N   0  0  0  0  0  0  0  0  0  0  0  0
    6.1968   -1.0469   -3.2606 C   0  0  0  0  0  0  0  0  0  0  0  0
    6.2642    0.3796   -3.8018 C   0  0  0  0  0  0  0  0  0  0  0  0
    5.8218   -1.0503   -0.7767 C   0  0  0  0  0  0  0  0  0  0  0  0
    6.6312   -1.0600    0.3909 C   0  0  0  0  0  0  0  0  0  0  0  0
    7.9832   -1.1167   -0.0565 C   0  0  0  0  0  0  0  0  0  0  0  0
    9.2209   -1.1478    0.5858 C   0  0  0  0  0  0  0  0  0  0  0  0
   10.3598   -1.2048   -0.1759 C   0  0  0  0  0  0  0  0  0  0  0  0
    6.0365   -1.0245    1.6496 C   0  0  0  0  0  0  0  0  0  0  0  0
    4.6657   -0.9850    1.7337 C   0  0  0  0  0  0  0  0  0  0  0  0
    3.8641   -0.9823    0.5793 C   0  0  0  0  0  0  0  0  0  0  0  0
    4.4383   -1.0126   -0.6835 C   0  0  0  0  0  0  0  0  0  0  0  0
    2.4045   -0.9589    0.7261 C   0  0  0  0  0  0  0  0  0  0  0  0
    1.5770   -1.8049    0.0205 C   0  0  0  0  0  0  0  0  0  0  0  0
    2.0941   -2.7020   -0.8410 F   0  0  0  0  0  0  0  0  0  0  0  0
    0.1810   -1.7689    0.1484 C   0  0  0  0  0  0  0  0  0  0  0  0
   -0.5427   -2.5985   -0.6248 F   0  0  0  0  0  0  0  0  0  0  0  0
   -0.4564   -0.8769    0.9851 C   0  0  0  0  0  0  0  0  0  0  0  0
    0.3693   -0.0297    1.7756 C   0  0  0  0  0  0  0  0  0  0  0  0
   -0.1890    0.7620    2.7101 N   0  0  0  0  0  0  0  0  0  0  0  0
    0.5673    1.5795    3.3987 C   0  0  0  0  0  0  0  0  0  0  0  0
   -0.1151    2.3683    4.4758 C   0  0  0  0  0  0  0  0  0  0  0  0
   -0.3050    3.8427    4.1153 C   0  0  0  0  0  0  0  0  0  0  0  0
    1.9694    1.6621    3.1336 C   0  0  0  0  0  0  0  0  0  0  0  0
    2.5300    0.8353    2.2919 N   0  0  0  0  0  0  0  0  0  0  0  0
    1.7768   -0.0498    1.6184 C   0  0  0  0  0  0  0  0  0  0  0  0
    2.8683    2.6593    3.8010 C   0  0  0  0  0  0  0  0  0  0  0  0
    4.3393    2.2721    3.7085 C   0  0  0  0  0  0  0  0  0  0  0  0
   -1.8966   -0.7279    1.0202 C   0  0  0  0  0  0  0  0  0  0  0  0
   -2.5788    0.4729    0.9166 C   0  0  0  0  0  0  0  0  0  0  0  0
   -2.0148    1.7183    0.7012 N   0  0  0  0  0  0  0  0  0  0  0  0
   -0.8640    1.8337   -0.0851 C   0  0  0  0  0  0  0  0  0  0  0  0
    0.1593    2.7189    0.2542 C   0  0  0  0  0  0  0  0  0  0  0  0
    1.3296    2.7414   -0.4726 C   0  0  0  0  0  0  0  0  0  0  0  0
    1.5019    1.8904   -1.5607 C   0  0  0  0  0  0  0  0  0  0  0  0
    3.0550    1.9396   -2.3982 S   0  0  0  0  0  0  0  0  0  0  0  0
    2.6514    1.2519   -4.0348 C   0  0  0  0  0  0  0  0  0  0  0  0
    0.4700    1.0389   -1.9309 C   0  0  0  0  0  0  0  0  0  0  0  0
   -0.7025    1.0202   -1.2052 C   0  0  0  0  0  0  0  0  0  0  0  0
   -2.6277    2.8315    1.2903 C   0  0  0  0  0  0  0  0  0  0  0  0
   -2.6887    4.0540    0.6280 C   0  0  0  0  0  0  0  0  0  0  0  0
   -3.3408    5.1322    1.1966 C   0  0  0  0  0  0  0  0  0  0  0  0
   -3.9512    5.0043    2.4375 C   0  0  0  0  0  0  0  0  0  0  0  0
   -4.8375    6.2921    3.2554 S   0  0  0  0  0  0  0  0  0  0  0  0
   -4.5445    7.7580    2.2280 C   0  0  0  0  0  0  0  0  0  0  0  0
   -3.8814    3.7852    3.1092 C   0  0  0  0  0  0  0  0  0  0  0  0
   -3.2233    2.7149    2.5484 C   0  0  0  0  0  0  0  0  0  0  0  0
   -3.9732    0.2589    0.9859 C   0  0  0  0  0  0  0  0  0  0  0  0
   -5.3205    1.3196    0.8467 S   0  0  0  0  0  0  0  0  0  0  0  0
   -6.4351   -0.0415    1.0233 C   0  0  0  0  0  0  0  0  0  0  0  0
   -5.7510   -1.2692    1.1307 C   0  0  0  0  0  0  0  0  0  0  0  0
   -6.3460   -2.4905    1.2214 N   0  0  0  0  0  0  0  0  0  0  0  0
   -7.5871   -2.7697    0.6136 C   0  0  0  0  0  0  0  0  0  0  0  0
   -8.5130   -3.5792    1.2702 C   0  0  0  0  0  0  0  0  0  0  0  0
   -9.7166   -3.8756    0.6712 C   0  0  0  0  0  0  0  0  0  0  0  0
  -10.0213   -3.3717   -0.5932 C   0  0  0  0  0  0  0  0  0  0  0  0
  -11.5877   -3.8221   -1.2594 S   0  0  0  0  0  0  0  0  0  0  0  0
  -11.6682   -2.9273   -2.8363 C   0  0  0  0  0  0  0  0  0  0  0  0
   -9.0938   -2.5713   -1.2497 C   0  0  0  0  0  0  0  0  0  0  0  0
   -7.8843   -2.2779   -0.6531 C   0  0  0  0  0  0  0  0  0  0  0  0
   -5.6687   -3.5405    1.8694 C   0  0  0  0  0  0  0  0  0  0  0  0
   -5.6409   -4.8140    1.3114 C   0  0  0  0  0  0  0  0  0  0  0  0
   -4.9805   -5.8451    1.9492 C   0  0  0  0  0  0  0  0  0  0  0  0
   -4.3352   -5.6165    3.1586 C   0  0  0  0  0  0  0  0  0  0  0  0
   -3.4564   -6.8449    4.0628 S   0  0  0  0  0  0  0  0  0  0  0  0
   -3.5506   -8.3210    3.0111 C   0  0  0  0  0  0  0  0  0  0  0  0
   -4.3740   -4.3428    3.7258 C   0  0  0  0  0  0  0  0  0  0  0  0
   -5.0346   -3.3160    3.0918 C   0  0  0  0  0  0  0  0  0  0  0  0
   -4.3486   -1.0680    1.1216 C   0  0  0  0  0  0  0  0  0  0  0  0
   -2.9630   -2.1080    1.1439 S   0  0  0  0  0  0  0  0  0  0  0  0
   -7.7930    0.2065    1.2526 C   0  0  0  0  0  0  0  0  0  0  0  0
   -8.3964    1.4347    1.1531 C   0  0  0  0  0  0  0  0  0  0  0  0
   -9.5721    1.7947    1.9653 C   0  0  0  0  0  0  0  0  0  0  0  0
  -10.3324    1.0471    2.5344 O   0  0  0  0  0  0  0  0  0  0  0  0
   -9.5612    3.2860    1.9965 C   0  0  0  0  0  0  0  0  0  0  0  0
  -10.2946    4.1525    2.7863 C   0  0  0  0  0  0  0  0  0  0  0  0
  -11.5592    3.5891    3.7856 Cl  0  0  0  0  0  0  0  0  0  0  0  0
   -9.9641    5.5168    2.7643 C   0  0  0  0  0  0  0  0  0  0  0  0
  -10.8477    6.6205    3.7275 Cl  0  0  0  0  0  0  0  0  0  0  0  0
   -8.8972    5.9722    1.9926 C   0  0  0  0  0  0  0  0  0  0  0  0
   -8.4531    7.6206    2.0555 Cl  0  0  0  0  0  0  0  0  0  0  0  0
   -8.1724    5.0924    1.1751 C   0  0  0  0  0  0  0  0  0  0  0  0
   -6.8006    5.6691    0.3326 Cl  0  0  0  0  0  0  0  0  0  0  0  0
   -8.5385    3.7575    1.1490 C   0  0  0  0  0  0  0  0  0  0  0  0
   -7.9780    2.6146    0.4341 C   0  0  0  0  0  0  0  0  0  0  0  0
   -7.4724    2.6079   -0.8426 C   0  0  0  0  0  0  0  0  0  0  0  0
   -7.3839    3.7132   -1.7105 C   0  0  0  0  0  0  0  0  0  0  0  0
   -7.3402    4.5355   -2.5107 N   0  0  0  0  0  0  0  0  0  0  0  0
   -7.1386    1.4075   -1.5033 C   0  0  0  0  0  0  0  0  0  0  0  0
   -6.8808    0.4521   -2.0866 N   0  0  0  0  0  0  0  0  0  0  0  0
   12.4110   -1.2098   -1.5820 H   0  0  0  0  0  0  0  0  0  0  0  0
    9.0288   -1.1929   -3.3177 H   0  0  0  0  0  0  0  0  0  0  0  0
    5.1755   -1.4287   -3.3205 H   0  0  0  0  0  0  0  0  0  0  0  0
    6.8431   -1.7008   -3.8527 H   0  0  0  0  0  0  0  0  0  0  0  0
    5.6310    1.0382   -3.2113 H   0  0  0  0  0  0  0  0  0  0  0  0
    5.9347    0.3994   -4.8370 H   0  0  0  0  0  0  0  0  0  0  0  0
    7.2851    0.7503   -3.7577 H   0  0  0  0  0  0  0  0  0  0  0  0
    9.2768   -1.1247    1.6633 H   0  0  0  0  0  0  0  0  0  0  0  0
   11.3236   -1.2266    0.3107 H   0  0  0  0  0  0  0  0  0  0  0  0
    6.6455   -1.0333    2.5405 H   0  0  0  0  0  0  0  0  0  0  0  0
    4.1825   -0.9720    2.6966 H   0  0  0  0  0  0  0  0  0  0  0  0
    3.8175   -0.9875   -1.5644 H   0  0  0  0  0  0  0  0  0  0  0  0
   -1.0940    1.9176    4.6417 H   0  0  0  0  0  0  0  0  0  0  0  0
    0.4633    2.2931    5.3997 H   0  0  0  0  0  0  0  0  0  0  0  0
   -0.9044    3.9375    3.2137 H   0  0  0  0  0  0  0  0  0  0  0  0
    0.6476    4.3411    3.9598 H   0  0  0  0  0  0  0  0  0  0  0  0
   -0.8298    4.3492    4.9213 H   0  0  0  0  0  0  0  0  0  0  0  0
    2.5746    2.7772    4.8463 H   0  0  0  0  0  0  0  0  0  0  0  0
    2.7216    3.6254    3.3084 H   0  0  0  0  0  0  0  0  0  0  0  0
    4.5166    1.3359    4.2307 H   0  0  0  0  0  0  0  0  0  0  0  0
    4.9574    3.0454    4.1574 H   0  0  0  0  0  0  0  0  0  0  0  0
    4.6292    2.1394    2.6706 H   0  0  0  0  0  0  0  0  0  0  0  0
    0.0374    3.3754    1.1021 H   0  0  0  0  0  0  0  0  0  0  0  0
    2.1303    3.4099   -0.1961 H   0  0  0  0  0  0  0  0  0  0  0  0
    3.4869    1.5048   -4.6792 H   0  0  0  0  0  0  0  0  0  0  0  0
    1.7440    1.7177   -4.4059 H   0  0  0  0  0  0  0  0  0  0  0  0
    2.5432    0.1722   -3.9812 H   0  0  0  0  0  0  0  0  0  0  0  0
    0.5670    0.3807   -2.7792 H   0  0  0  0  0  0  0  0  0  0  0  0
   -1.5018    0.3587   -1.5048 H   0  0  0  0  0  0  0  0  0  0  0  0
   -2.2330    4.1573   -0.3457 H   0  0  0  0  0  0  0  0  0  0  0  0
   -3.3802    6.0609    0.6508 H   0  0  0  0  0  0  0  0  0  0  0  0
   -5.0041    7.6303    1.2527 H   0  0  0  0  0  0  0  0  0  0  0  0
   -5.0217    8.5799    2.7527 H   0  0  0  0  0  0  0  0  0  0  0  0
   -3.4773    7.9413    2.1441 H   0  0  0  0  0  0  0  0  0  0  0  0
   -4.3460    3.6943    4.0790 H   0  0  0  0  0  0  0  0  0  0  0  0
   -3.1522    1.7801    3.0828 H   0  0  0  0  0  0  0  0  0  0  0  0
   -8.2853   -3.9652    2.2527 H   0  0  0  0  0  0  0  0  0  0  0  0
  -10.4400   -4.4955    1.1776 H   0  0  0  0  0  0  0  0  0  0  0  0
  -12.6464   -3.1532   -3.2495 H   0  0  0  0  0  0  0  0  0  0  0  0
  -10.8936   -3.2844   -3.5085 H   0  0  0  0  0  0  0  0  0  0  0  0
  -11.5794   -1.8594   -2.6603 H   0  0  0  0  0  0  0  0  0  0  0  0
   -9.2898   -2.1746   -2.2319 H   0  0  0  0  0  0  0  0  0  0  0  0
   -7.1732   -1.6579   -1.1770 H   0  0  0  0  0  0  0  0  0  0  0  0
   -6.1349   -4.9938    0.3684 H   0  0  0  0  0  0  0  0  0  0  0  0
   -4.9726   -6.8193    1.4887 H   0  0  0  0  0  0  0  0  0  0  0  0
   -2.9810   -9.0850    3.5312 H   0  0  0  0  0  0  0  0  0  0  0  0
   -3.0972   -8.1167    2.0458 H   0  0  0  0  0  0  0  0  0  0  0  0
   -4.5834   -8.6403    2.9066 H   0  0  0  0  0  0  0  0  0  0  0  0
   -3.8840   -4.1750    4.6723 H   0  0  0  0  0  0  0  0  0  0  0  0
   -5.0737   -2.3358    3.5430 H   0  0  0  0  0  0  0  0  0  0  0  0
   -8.3827   -0.5894    1.6911 H   0  0  0  0  0  0  0  0  0  0  0  0
  1  2  2  0  0  0  0
  2  3  1  0  0  0  0
  3  4  2  0  0  0  0
  3  5  1  0  0  0  0
  5  6  2  0  0  0  0
  6  7  1  0  0  0  0
  6  8  1  0  0  0  0
  8  9  1  0  0  0  0
  8 10  2  0  0  0  0
 10 11  1  0  0  0  0
 10 12  1  0  0  0  0
 12 13  1  0  0  0  0
 12 14  2  0  0  0  0
 14 15  1  0  0  0  0
 15 16  2  0  0  0  0
 16 17  1  0  0  0  0
 17 18  3  0  0  0  0
 16 19  1  0  0  0  0
 19 20  3  0  0  0  0
  1 21  1  0  0  0  0
 21 22  2  0  0  0  0
 22 23  1  0  0  0  0
 23 24  1  0  0  0  0
 24 25  1  0  0  0  0
 25 26  1  0  0  0  0
 24 27  1  0  0  0  0
 27 28  2  0  0  0  0
 28 29  1  0  0  0  0
 29 30  1  0  0  0  0
 30 31  2  0  0  0  0
 28 32  1  0  0  0  0
 32 33  2  0  0  0  0
 33 34  1  0  0  0  0
 34 35  2  0  0  0  0
 34 36  1  0  0  0  0
 36 37  2  0  0  0  0
 37 38  1  0  0  0  0
 37 39  1  0  0  0  0
 39 40  1  0  0  0  0
 39 41  2  0  0  0  0
 41 42  1  0  0  0  0
 42 43  2  0  0  0  0
 43 44  1  0  0  0  0
 44 45  1  0  0  0  0
 45 46  1  0  0  0  0
 44 47  2  0  0  0  0
 47 48  1  0  0  0  0
 48 49  2  0  0  0  0
 47 50  1  0  0  0  0
 50 51  1  0  0  0  0
 41 52  1  0  0  0  0
 52 53  2  0  0  0  0
 53 54  1  0  0  0  0
 54 55  1  0  0  0  0
 55 56  2  0  0  0  0
 56 57  1  0  0  0  0
 57 58  2  0  0  0  0
 58 59  1  0  0  0  0
 59 60  1  0  0  0  0
 58 61  1  0  0  0  0
 61 62  2  0  0  0  0
 54 63  1  0  0  0  0
 63 64  2  0  0  0  0
 64 65  1  0  0  0  0
 65 66  2  0  0  0  0
 66 67  1  0  0  0  0
 67 68  1  0  0  0  0
 66 69  1  0  0  0  0
 69 70  2  0  0  0  0
 53 71  1  0  0  0  0
 71 72  1  0  0  0  0
 72 73  1  0  0  0  0
 73 74  2  0  0  0  0
 74 75  1  0  0  0  0
 75 76  1  0  0  0  0
 76 77  2  0  0  0  0
 77 78  1  0  0  0  0
 78 79  2  0  0  0  0
 79 80  1  0  0  0  0
 80 81  1  0  0  0  0
 79 82  1  0  0  0  0
 82 83  2  0  0  0  0
 75 84  1  0  0  0  0
 84 85  2  0  0  0  0
 85 86  1  0  0  0  0
 86 87  2  0  0  0  0
 87 88  1  0  0  0  0
 88 89  1  0  0  0  0
 87 90  1  0  0  0  0
 90 91  2  0  0  0  0
 74 92  1  0  0  0  0
 92 93  1  0  0  0  0
 73 94  1  0  0  0  0
 94 95  2  0  0  0  0
 95 96  1  0  0  0  0
 96 97  2  0  0  0  0
 96 98  1  0  0  0  0
 98 99  2  0  0  0  0
 99100  1  0  0  0  0
 99101  1  0  0  0  0
101102  1  0  0  0  0
101103  2  0  0  0  0
103104  1  0  0  0  0
103105  1  0  0  0  0
105106  1  0  0  0  0
105107  2  0  0  0  0
107108  1  0  0  0  0
108109  2  0  0  0  0
109110  1  0  0  0  0
110111  3  0  0  0  0
109112  1  0  0  0  0
112113  3  0  0  0  0
 15  2  1  0  0  0  0
 31 21  1  0  0  0  0
 49 36  1  0  0  0  0
 93 52  1  0  0  0  0
108 95  1  0  0  0  0
 14  5  1  0  0  0  0
 29 23  2  0  0  0  0
 49 42  1  0  0  0  0
 62 55  1  0  0  0  0
 70 63  1  0  0  0  0
 92 71  2  0  0  0  0
107 98  1  0  0  0  0
 35 27  1  0  0  0  0
 83 76  1  0  0  0  0
 91 84  1  0  0  0  0
  1114  1  0  0  0  0
 22115  1  0  0  0  0
 25116  1  0  0  0  0
 25117  1  0  0  0  0
 26118  1  0  0  0  0
 26119  1  0  0  0  0
 26120  1  0  0  0  0
 30121  1  0  0  0  0
 31122  1  0  0  0  0
 32123  1  0  0  0  0
 33124  1  0  0  0  0
 35125  1  0  0  0  0
 45126  1  0  0  0  0
 45127  1  0  0  0  0
 46128  1  0  0  0  0
 46129  1  0  0  0  0
 46130  1  0  0  0  0
 50131  1  0  0  0  0
 50132  1  0  0  0  0
 51133  1  0  0  0  0
 51134  1  0  0  0  0
 51135  1  0  0  0  0
 56136  1  0  0  0  0
 57137  1  0  0  0  0
 60138  1  0  0  0  0
 60139  1  0  0  0  0
 60140  1  0  0  0  0
 61141  1  0  0  0  0
 62142  1  0  0  0  0
 64143  1  0  0  0  0
 65144  1  0  0  0  0
 68145  1  0  0  0  0
 68146  1  0  0  0  0
 68147  1  0  0  0  0
 69148  1  0  0  0  0
 70149  1  0  0  0  0
 77150  1  0  0  0  0
 78151  1  0  0  0  0
 81152  1  0  0  0  0
 81153  1  0  0  0  0
 81154  1  0  0  0  0
 82155  1  0  0  0  0
 83156  1  0  0  0  0
 85157  1  0  0  0  0
 86158  1  0  0  0  0
 89159  1  0  0  0  0
 89160  1  0  0  0  0
 89161  1  0  0  0  0
 90162  1  0  0  0  0
 91163  1  0  0  0  0
 94164  1  0  0  0  0
M  END
