143

C         -2.30330       -3.74800        6.06730
C         -1.74890       -4.64340        6.93920
C         -0.33400       -5.00610        7.16360
O          0.63770       -4.76460        6.48140
C         -0.30860       -5.71000        8.46890
C          0.79250       -6.13760        9.19030
Cl         2.37370       -6.02680        8.56010
C          0.58060       -6.66400       10.47260
Cl         1.90570       -7.23760       11.38850
C         -0.70160       -6.68070       11.01920
Cl        -0.92070       -7.23460       12.62230
C         -1.81380       -6.23820       10.28460
Cl        -3.32660       -6.12290       11.08410
C         -1.61880       -5.81790        8.97500
C         -2.53730       -5.34500        7.94620
C         -3.85430       -5.69200        7.80610
C         -4.69740       -5.25630        6.75950
N         -5.46990       -4.95980        5.96360
C         -4.53810       -6.67040        8.56170
N         -5.15410       -7.51090        9.04200
C         -1.78730       -3.02230        4.95500
C         -0.56650       -3.27530        4.30730
C         -0.17880       -2.57930        3.18170
O          0.97090       -2.78190        2.50180
C          1.99250       -3.62410        3.01290
C          2.74430       -2.99700        4.17950
C         -1.04780       -1.61290        2.60960
C         -2.23280       -1.30340        3.28520
C         -2.58390       -1.99280        4.41470
F         -3.73210       -1.65060        5.03400
C         -0.71930       -0.98060        1.36710
C         -1.60330       -0.52160        0.39210
N         -2.96240       -0.77480        0.37380
C         -3.44090       -2.02210        0.81490
C         -2.70100       -3.18240        0.58470
C         -3.13500       -4.38950        1.07860
C         -4.32270       -4.47530        1.80630
S         -4.75760       -6.07180        2.40600
C         -6.44680       -5.86010        3.03280
C         -5.07620       -3.32720        2.01360
C         -4.63650       -2.11340        1.52140
C         -3.82520        0.16530       -0.19650
C         -4.93440       -0.23510       -0.94350
C         -5.76100        0.70560       -1.51250
C         -5.50260        2.06750       -1.35680
S         -6.62740        3.17370       -2.14710
C         -5.89600        4.81270       -1.87040
C         -4.40900        2.47070       -0.60360
C         -3.58220        1.52660       -0.02680
C         -0.90300        0.11670       -0.65970
S         -1.37720        0.90940       -2.12130
C          0.30720        1.13610       -2.56440
C          1.18450        0.68780       -1.58940
N          2.55570        0.85130       -1.57920
C          3.33460       -0.11800       -0.92540
C          4.37880        0.26490       -0.09070
C          5.08980       -0.68090        0.62240
C          4.76370       -2.02590        0.50990
S          5.55330       -3.31860        1.41780
C          6.64930       -2.44160        2.56840
C          3.75320       -2.41620       -0.36650
C          3.04730       -1.47430       -1.07960
C          3.17180        1.92060       -2.24080
C          4.34490        1.71310       -2.96780
C          4.86070        2.72120       -3.74930
C          4.23180        3.96390       -3.81450
S          4.89670        5.11760       -4.97410
C          3.76670        6.53360       -4.89440
C          3.12820        4.20720       -3.00800
C          2.60620        3.19310       -2.22870
C          0.47460        0.09310       -0.51260
S          0.95600       -0.72960        0.92720
C          0.63180        1.80710       -3.80220
C         -0.05350        2.95910       -4.18630
C          0.36110        3.72260       -5.26480
O         -0.22190        4.87170       -5.66890
C         -1.29620        5.42830       -4.93270
C         -0.82370        6.14280       -3.66950
C          1.49110        3.31550       -6.02200
C          2.11590        2.10850       -5.69130
C          1.68330        1.37430       -4.61850
F          2.29310        0.20260       -4.34220
C          2.02570        4.21600       -6.99550
C          2.91220        4.01220       -8.00280
C          3.69770        5.18430       -8.50270
O          3.49430        6.34870       -8.24620
C          4.77910        4.59180       -9.29910
C          5.88400        5.01890       -9.96100
S          6.70950        3.69360      -10.69320
C          5.55220        2.55300      -10.11380
C          4.58580        3.17310       -9.38500
C          3.36470        2.81680       -8.68900
C          2.67470        1.64680       -8.86980
C          3.20110        0.59820       -9.65060
N          3.63440       -0.26040      -10.27670
C          1.37540        1.41450       -8.37850
N          0.30320        1.20310       -8.02840
H         -3.34320       -3.51280        6.26630
H          0.06360       -4.04940        4.70570
H          2.66810       -3.75410        2.16340
H          1.58350       -4.60090        3.29160
H          3.05690       -1.98980        3.91230
H          3.62340       -3.59590        4.39830
H          2.12410       -2.95190        5.07040
H         -2.86830       -0.50630        2.93680
H         -1.78430       -3.13170        0.01680
H         -2.56390       -5.28790        0.90230
H         -6.78690       -6.85870        3.28910
H         -6.43420       -5.23910        3.92270
H         -7.07530       -5.44390        2.25110
H         -5.99400       -3.35950        2.57680
H         -5.22160       -1.22310        1.69990
H         -5.13170       -1.28690       -1.08320
H         -6.61410        0.39850       -2.09760
H         -5.90510        5.05450       -0.81150
H         -4.88830        4.84000       -2.27460
H         -6.52940        5.50920       -2.41080
H         -4.19210        3.51510       -0.44760
H         -2.74100        1.84830        0.57020
H          4.62400        1.31210        0.00990
H          5.88600       -0.35260        1.27080
H          6.06990       -1.75410        3.17760
H          7.43190       -1.92410        2.02100
H          7.08900       -3.21060        3.19600
H          3.52890       -3.46590       -0.47800
H          2.26870       -1.77860       -1.76220
H          4.81330        0.74110       -2.95270
H          5.74390        2.55040       -4.34560
H          3.93670        7.09480       -3.97970
H          4.00220        7.14300       -5.76180
H          2.74100        6.18680       -4.96210
H          2.66210        5.17890       -2.98060
H          1.73660        3.38320       -1.61660
H         -0.89110        3.25910       -3.57680
H         -2.04290        4.66110       -4.70000
H         -1.74570        6.14950       -5.62030
H         -1.67450        6.58510       -3.15890
H         -0.32540        5.45230       -2.99300
H         -0.12530        6.93390       -3.93210
H          2.98270        1.77050       -6.23500
H          1.75580        5.25730       -6.84680
H          6.26430        6.01480      -10.06900
H          5.67340        1.51310      -10.34280
