
  xtb     02112212063D
 energy: -284.084915512472 gnorm: 0.000361358242 xtb: 6.4.1 (unknown)
161176  0     0  0            999 V2000
   -8.1304    3.0493    7.4484 C   0  0  0  0  0  0  0  0  0  0  0  0
   -8.8915    1.9258    7.5838 C   0  0  0  0  0  0  0  0  0  0  0  0
   -8.4746    0.5401    7.2821 C   0  0  0  0  0  0  0  0  0  0  0  0
   -7.5354    0.1523    6.6199 O   0  0  0  0  0  0  0  0  0  0  0  0
   -9.4051   -0.3200    8.0475 C   0  0  0  0  0  0  0  0  0  0  0  0
   -9.3588   -1.6937    8.2119 C   0  0  0  0  0  0  0  0  0  0  0  0
   -8.1977   -2.6496    7.4062 Cl  0  0  0  0  0  0  0  0  0  0  0  0
  -10.2898   -2.2918    9.0712 C   0  0  0  0  0  0  0  0  0  0  0  0
  -10.2948   -3.9899    9.2774 Cl  0  0  0  0  0  0  0  0  0  0  0  0
  -11.1864   -1.5007    9.7893 C   0  0  0  0  0  0  0  0  0  0  0  0
  -12.2517   -2.2447   10.9012 Cl  0  0  0  0  0  0  0  0  0  0  0  0
  -11.2202   -0.1061    9.6297 C   0  0  0  0  0  0  0  0  0  0  0  0
  -12.2288    0.8104   10.6706 Cl  0  0  0  0  0  0  0  0  0  0  0  0
  -10.3661    0.4785    8.7022 C   0  0  0  0  0  0  0  0  0  0  0  0
  -10.1715    1.8586    8.2766 C   0  0  0  0  0  0  0  0  0  0  0  0
  -11.0841    2.8785    8.2818 C   0  0  0  0  0  0  0  0  0  0  0  0
  -10.8048    4.1649    7.7635 C   0  0  0  0  0  0  0  0  0  0  0  0
  -10.6562    5.2275    7.3568 N   0  0  0  0  0  0  0  0  0  0  0  0
  -12.4531    2.7874    8.6133 C   0  0  0  0  0  0  0  0  0  0  0  0
  -13.5901    2.8071    8.7665 N   0  0  0  0  0  0  0  0  0  0  0  0
   -6.9137    3.1914    6.7076 C   0  0  0  0  0  0  0  0  0  0  0  0
   -6.6974    2.4860    5.5191 C   0  0  0  0  0  0  0  0  0  0  0  0
   -5.4697    2.6058    4.9014 C   0  0  0  0  0  0  0  0  0  0  0  0
   -5.0009    1.9708    3.7777 N   0  0  0  0  0  0  0  0  0  0  0  0
   -5.7984    1.1241    2.9270 C   0  0  0  0  0  0  0  0  0  0  0  0
   -5.9995   -0.2771    3.4986 C   0  0  0  0  0  0  0  0  0  0  0  0
   -3.6932    2.3384    3.5907 C   0  0  0  0  0  0  0  0  0  0  0  0
   -3.3295    3.3045    4.5666 C   0  0  0  0  0  0  0  0  0  0  0  0
   -4.4576    3.4542    5.4250 C   0  0  0  0  0  0  0  0  0  0  0  0
   -4.7063    4.2020    6.5745 C   0  0  0  0  0  0  0  0  0  0  0  0
   -5.9233    4.0738    7.1961 C   0  0  0  0  0  0  0  0  0  0  0  0
   -2.0660    3.8874    4.5337 C   0  0  0  0  0  0  0  0  0  0  0  0
   -1.1605    3.4472    3.5992 C   0  0  0  0  0  0  0  0  0  0  0  0
   -1.4772    2.3967    2.7214 C   0  0  0  0  0  0  0  0  0  0  0  0
   -2.7617    1.8659    2.6815 C   0  0  0  0  0  0  0  0  0  0  0  0
   -0.4238    1.7951    1.9196 C   0  0  0  0  0  0  0  0  0  0  0  0
   -0.0898    0.4563    1.8702 C   0  0  0  0  0  0  0  0  0  0  0  0
   -0.6969   -0.5576    2.6021 N   0  0  0  0  0  0  0  0  0  0  0  0
   -1.2076   -0.3011    3.8817 C   0  0  0  0  0  0  0  0  0  0  0  0
   -0.5568    0.5752    4.7510 C   0  0  0  0  0  0  0  0  0  0  0  0
   -1.1403    0.9297    5.9450 C   0  0  0  0  0  0  0  0  0  0  0  0
   -2.3798    0.4083    6.3116 C   0  0  0  0  0  0  0  0  0  0  0  0
   -3.0804    1.0201    7.8104 S   0  0  0  0  0  0  0  0  0  0  0  0
   -4.6581    0.1400    7.9581 C   0  0  0  0  0  0  0  0  0  0  0  0
   -2.9879   -0.5332    5.4941 C   0  0  0  0  0  0  0  0  0  0  0  0
   -2.4048   -0.8809    4.2905 C   0  0  0  0  0  0  0  0  0  0  0  0
   -0.7887   -1.8340    2.0382 C   0  0  0  0  0  0  0  0  0  0  0  0
   -0.6162   -2.9737    2.8257 C   0  0  0  0  0  0  0  0  0  0  0  0
   -0.6499   -4.2245    2.2528 C   0  0  0  0  0  0  0  0  0  0  0  0
   -0.8518   -4.3703    0.8818 C   0  0  0  0  0  0  0  0  0  0  0  0
   -0.8447   -6.0183    0.2412 S   0  0  0  0  0  0  0  0  0  0  0  0
   -0.5334   -5.7681   -1.5322 C   0  0  0  0  0  0  0  0  0  0  0  0
   -1.0608   -3.2443    0.0996 C   0  0  0  0  0  0  0  0  0  0  0  0
   -1.0321   -1.9889    0.6751 C   0  0  0  0  0  0  0  0  0  0  0  0
    1.0209    0.2451    1.0107 C   0  0  0  0  0  0  0  0  0  0  0  0
    1.8827   -1.1546    0.4692 S   0  0  0  0  0  0  0  0  0  0  0  0
    2.9432   -0.1515   -0.4950 C   0  0  0  0  0  0  0  0  0  0  0  0
    2.6127    1.1858   -0.4393 C   0  0  0  0  0  0  0  0  0  0  0  0
    3.2004    2.1799   -1.2172 N   0  0  0  0  0  0  0  0  0  0  0  0
    3.5241    1.9070   -2.5534 C   0  0  0  0  0  0  0  0  0  0  0  0
    4.7148    2.3716   -3.1148 C   0  0  0  0  0  0  0  0  0  0  0  0
    5.0675    2.0111   -4.3953 C   0  0  0  0  0  0  0  0  0  0  0  0
    4.2456    1.1800   -5.1551 C   0  0  0  0  0  0  0  0  0  0  0  0
    4.8521    0.7131   -6.7480 S   0  0  0  0  0  0  0  0  0  0  0  0
    3.5266   -0.3081   -7.4492 C   0  0  0  0  0  0  0  0  0  0  0  0
    3.0354    0.7605   -4.6219 C   0  0  0  0  0  0  0  0  0  0  0  0
    2.6807    1.1243   -3.3373 C   0  0  0  0  0  0  0  0  0  0  0  0
    3.4651    3.4230   -0.6396 C   0  0  0  0  0  0  0  0  0  0  0  0
    3.3974    4.5905   -1.3959 C   0  0  0  0  0  0  0  0  0  0  0  0
    3.6450    5.8210   -0.8202 C   0  0  0  0  0  0  0  0  0  0  0  0
    3.9574    5.9091    0.5296 C   0  0  0  0  0  0  0  0  0  0  0  0
    4.2853    7.4221    1.3801 S   0  0  0  0  0  0  0  0  0  0  0  0
    4.2636    8.6772    0.0693 C   0  0  0  0  0  0  0  0  0  0  0  0
    4.0219    4.7452    1.2922 C   0  0  0  0  0  0  0  0  0  0  0  0
    3.7851    3.5179    0.7165 C   0  0  0  0  0  0  0  0  0  0  0  0
    1.5249    1.4037    0.4463 C   0  0  0  0  0  0  0  0  0  0  0  0
    0.6601    2.8014    0.9788 S   0  0  0  0  0  0  0  0  0  0  0  0
    3.9441   -0.7278   -1.3775 C   0  0  0  0  0  0  0  0  0  0  0  0
    3.5611   -1.6995   -2.2929 C   0  0  0  0  0  0  0  0  0  0  0  0
    4.4444   -2.0129   -3.3109 C   0  0  0  0  0  0  0  0  0  0  0  0
    4.2331   -2.7699   -4.4357 N   0  0  0  0  0  0  0  0  0  0  0  0
    3.0551   -3.5553   -4.6917 C   0  0  0  0  0  0  0  0  0  0  0  0
    3.1121   -4.9052   -3.9784 C   0  0  0  0  0  0  0  0  0  0  0  0
    5.3341   -2.6479   -5.2522 C   0  0  0  0  0  0  0  0  0  0  0  0
    6.3029   -1.8255   -4.6142 C   0  0  0  0  0  0  0  0  0  0  0  0
    5.7293   -1.4165   -3.3745 C   0  0  0  0  0  0  0  0  0  0  0  0
    6.1414   -0.5419   -2.3739 C   0  0  0  0  0  0  0  0  0  0  0  0
    5.2424   -0.1922   -1.3952 C   0  0  0  0  0  0  0  0  0  0  0  0
    7.4890   -1.5132   -5.2721 C   0  0  0  0  0  0  0  0  0  0  0  0
    7.6878   -1.9694   -6.5524 C   0  0  0  0  0  0  0  0  0  0  0  0
    6.7099   -2.7417   -7.2134 C   0  0  0  0  0  0  0  0  0  0  0  0
    5.5301   -3.0989   -6.5380 C   0  0  0  0  0  0  0  0  0  0  0  0
    6.7594   -3.0629   -8.6045 C   0  0  0  0  0  0  0  0  0  0  0  0
    7.7538   -3.0308   -9.5381 C   0  0  0  0  0  0  0  0  0  0  0  0
    9.2316   -3.0481   -9.3374 C   0  0  0  0  0  0  0  0  0  0  0  0
    9.8578   -2.8993   -8.3126 O   0  0  0  0  0  0  0  0  0  0  0  0
    9.7844   -3.3590  -10.6666 C   0  0  0  0  0  0  0  0  0  0  0  0
   11.0115   -3.5705  -11.2042 C   0  0  0  0  0  0  0  0  0  0  0  0
   10.8903   -3.8959  -12.8949 S   0  0  0  0  0  0  0  0  0  0  0  0
    9.1730   -3.7409  -12.8789 C   0  0  0  0  0  0  0  0  0  0  0  0
    8.7255   -3.4568  -11.6252 C   0  0  0  0  0  0  0  0  0  0  0  0
    7.4709   -3.1910  -10.9584 C   0  0  0  0  0  0  0  0  0  0  0  0
    6.2677   -3.0038  -11.5901 C   0  0  0  0  0  0  0  0  0  0  0  0
    5.0840   -2.5637  -10.9677 C   0  0  0  0  0  0  0  0  0  0  0  0
    4.1003   -2.1698  -10.5215 N   0  0  0  0  0  0  0  0  0  0  0  0
    6.1377   -3.1866  -12.9818 C   0  0  0  0  0  0  0  0  0  0  0  0
    6.0188   -3.3479  -14.1119 N   0  0  0  0  0  0  0  0  0  0  0  0
   -8.4268    3.9199    8.0224 H   0  0  0  0  0  0  0  0  0  0  0  0
   -7.4857    1.8896    5.0935 H   0  0  0  0  0  0  0  0  0  0  0  0
   -6.7717    1.6067    2.7852 H   0  0  0  0  0  0  0  0  0  0  0  0
   -5.3066    1.0648    1.9532 H   0  0  0  0  0  0  0  0  0  0  0  0
   -6.6574   -0.8467    2.8470 H   0  0  0  0  0  0  0  0  0  0  0  0
   -6.4465   -0.2292    4.4882 H   0  0  0  0  0  0  0  0  0  0  0  0
   -5.0475   -0.7934    3.5703 H   0  0  0  0  0  0  0  0  0  0  0  0
   -3.9483    4.8591    6.9710 H   0  0  0  0  0  0  0  0  0  0  0  0
   -6.1269    4.6246    8.1020 H   0  0  0  0  0  0  0  0  0  0  0  0
   -1.8003    4.6544    5.2443 H   0  0  0  0  0  0  0  0  0  0  0  0
   -0.1661    3.8666    3.5629 H   0  0  0  0  0  0  0  0  0  0  0  0
   -3.0031    1.0871    1.9741 H   0  0  0  0  0  0  0  0  0  0  0  0
    0.4012    0.9888    4.4752 H   0  0  0  0  0  0  0  0  0  0  0  0
   -0.6483    1.6255    6.6067 H   0  0  0  0  0  0  0  0  0  0  0  0
   -4.4824   -0.9288    8.0375 H   0  0  0  0  0  0  0  0  0  0  0  0
   -5.3067    0.3741    7.1189 H   0  0  0  0  0  0  0  0  0  0  0  0
   -5.1074    0.5048    8.8770 H   0  0  0  0  0  0  0  0  0  0  0  0
   -3.9258   -0.9849    5.7730 H   0  0  0  0  0  0  0  0  0  0  0  0
   -2.8888   -1.6014    3.6462 H   0  0  0  0  0  0  0  0  0  0  0  0
   -0.4365   -2.8655    3.8847 H   0  0  0  0  0  0  0  0  0  0  0  0
   -0.5011   -5.1056    2.8578 H   0  0  0  0  0  0  0  0  0  0  0  0
    0.3084   -5.0939   -1.6578 H   0  0  0  0  0  0  0  0  0  0  0  0
   -0.2889   -6.7483   -1.9296 H   0  0  0  0  0  0  0  0  0  0  0  0
   -1.4230   -5.3857   -2.0248 H   0  0  0  0  0  0  0  0  0  0  0  0
   -1.2541   -3.3297   -0.9579 H   0  0  0  0  0  0  0  0  0  0  0  0
   -1.2019   -1.1167    0.0604 H   0  0  0  0  0  0  0  0  0  0  0  0
    5.3722    2.9957   -2.5285 H   0  0  0  0  0  0  0  0  0  0  0  0
    5.9999    2.3506   -4.8193 H   0  0  0  0  0  0  0  0  0  0  0  0
    3.8829   -0.6371   -8.4213 H   0  0  0  0  0  0  0  0  0  0  0  0
    3.3510   -1.1695   -6.8124 H   0  0  0  0  0  0  0  0  0  0  0  0
    2.6255    0.2860   -7.5697 H   0  0  0  0  0  0  0  0  0  0  0  0
    2.3588    0.1463   -5.1944 H   0  0  0  0  0  0  0  0  0  0  0  0
    1.7395    0.7857   -2.9291 H   0  0  0  0  0  0  0  0  0  0  0  0
    3.1418    4.5322   -2.4434 H   0  0  0  0  0  0  0  0  0  0  0  0
    3.5787    6.7032   -1.4362 H   0  0  0  0  0  0  0  0  0  0  0  0
    4.5306    9.6106    0.5551 H   0  0  0  0  0  0  0  0  0  0  0  0
    5.0010    8.4321   -0.6895 H   0  0  0  0  0  0  0  0  0  0  0  0
    3.2677    8.7562   -0.3570 H   0  0  0  0  0  0  0  0  0  0  0  0
    4.2697    4.8177    2.3401 H   0  0  0  0  0  0  0  0  0  0  0  0
    3.8567    2.6213    1.3143 H   0  0  0  0  0  0  0  0  0  0  0  0
    2.5668   -2.1174   -2.2448 H   0  0  0  0  0  0  0  0  0  0  0  0
    2.9636   -3.7076   -5.7698 H   0  0  0  0  0  0  0  0  0  0  0  0
    2.1802   -2.9906   -4.3533 H   0  0  0  0  0  0  0  0  0  0  0  0
    2.2105   -5.4764   -4.1838 H   0  0  0  0  0  0  0  0  0  0  0  0
    3.2010   -4.7607   -2.9041 H   0  0  0  0  0  0  0  0  0  0  0  0
    3.9727   -5.4751   -4.3206 H   0  0  0  0  0  0  0  0  0  0  0  0
    7.1308   -0.1130   -2.3966 H   0  0  0  0  0  0  0  0  0  0  0  0
    5.5170    0.5241   -0.6359 H   0  0  0  0  0  0  0  0  0  0  0  0
    8.2282   -0.8933   -4.7898 H   0  0  0  0  0  0  0  0  0  0  0  0
    8.5909   -1.7091   -7.0753 H   0  0  0  0  0  0  0  0  0  0  0  0
    4.7858   -3.6937   -7.0481 H   0  0  0  0  0  0  0  0  0  0  0  0
    5.7910   -3.3620   -8.9941 H   0  0  0  0  0  0  0  0  0  0  0  0
   11.9708   -3.5543  -10.7270 H   0  0  0  0  0  0  0  0  0  0  0  0
    8.6202   -3.8775  -13.7868 H   0  0  0  0  0  0  0  0  0  0  0  0
  1  2  2  0  0  0  0
  2  3  1  0  0  0  0
  3  4  2  0  0  0  0
  3  5  1  0  0  0  0
  5  6  2  0  0  0  0
  6  7  1  0  0  0  0
  6  8  1  0  0  0  0
  8  9  1  0  0  0  0
  8 10  2  0  0  0  0
 10 11  1  0  0  0  0
 10 12  1  0  0  0  0
 12 13  1  0  0  0  0
 12 14  2  0  0  0  0
 14 15  1  0  0  0  0
 15 16  2  0  0  0  0
 16 17  1  0  0  0  0
 17 18  3  0  0  0  0
 16 19  1  0  0  0  0
 19 20  3  0  0  0  0
  1 21  1  0  0  0  0
 21 22  2  0  0  0  0
 22 23  1  0  0  0  0
 23 24  1  0  0  0  0
 24 25  1  0  0  0  0
 25 26  1  0  0  0  0
 24 27  1  0  0  0  0
 27 28  2  0  0  0  0
 28 29  1  0  0  0  0
 29 30  1  0  0  0  0
 30 31  2  0  0  0  0
 28 32  1  0  0  0  0
 32 33  2  0  0  0  0
 33 34  1  0  0  0  0
 34 35  2  0  0  0  0
 34 36  1  0  0  0  0
 36 37  2  0  0  0  0
 37 38  1  0  0  0  0
 38 39  1  0  0  0  0
 39 40  2  0  0  0  0
 40 41  1  0  0  0  0
 41 42  2  0  0  0  0
 42 43  1  0  0  0  0
 43 44  1  0  0  0  0
 42 45  1  0  0  0  0
 45 46  2  0  0  0  0
 38 47  1  0  0  0  0
 47 48  2  0  0  0  0
 48 49  1  0  0  0  0
 49 50  2  0  0  0  0
 50 51  1  0  0  0  0
 51 52  1  0  0  0  0
 50 53  1  0  0  0  0
 53 54  2  0  0  0  0
 37 55  1  0  0  0  0
 55 56  1  0  0  0  0
 56 57  1  0  0  0  0
 57 58  2  0  0  0  0
 58 59  1  0  0  0  0
 59 60  1  0  0  0  0
 60 61  2  0  0  0  0
 61 62  1  0  0  0  0
 62 63  2  0  0  0  0
 63 64  1  0  0  0  0
 64 65  1  0  0  0  0
 63 66  1  0  0  0  0
 66 67  2  0  0  0  0
 59 68  1  0  0  0  0
 68 69  2  0  0  0  0
 69 70  1  0  0  0  0
 70 71  2  0  0  0  0
 71 72  1  0  0  0  0
 72 73  1  0  0  0  0
 71 74  1  0  0  0  0
 74 75  2  0  0  0  0
 58 76  1  0  0  0  0
 76 77  1  0  0  0  0
 57 78  1  0  0  0  0
 78 79  2  0  0  0  0
 79 80  1  0  0  0  0
 80 81  1  0  0  0  0
 81 82  1  0  0  0  0
 82 83  1  0  0  0  0
 81 84  1  0  0  0  0
 84 85  2  0  0  0  0
 85 86  1  0  0  0  0
 86 87  1  0  0  0  0
 87 88  2  0  0  0  0
 85 89  1  0  0  0  0
 89 90  2  0  0  0  0
 90 91  1  0  0  0  0
 91 92  2  0  0  0  0
 91 93  1  0  0  0  0
 93 94  2  0  0  0  0
 94 95  1  0  0  0  0
 95 96  2  0  0  0  0
 95 97  1  0  0  0  0
 97 98  2  0  0  0  0
 98 99  1  0  0  0  0
 99100  1  0  0  0  0
100101  2  0  0  0  0
101102  1  0  0  0  0
102103  2  0  0  0  0
103104  1  0  0  0  0
104105  3  0  0  0  0
103106  1  0  0  0  0
106107  3  0  0  0  0
 15  2  1  0  0  0  0
 31 21  1  0  0  0  0
 77 36  1  0  0  0  0
 88 78  1  0  0  0  0
102 94  1  0  0  0  0
 14  5  1  0  0  0  0
 29 23  2  0  0  0  0
 46 39  1  0  0  0  0
 54 47  1  0  0  0  0
 76 55  2  0  0  0  0
 86 80  2  0  0  0  0
101 97  1  0  0  0  0
 35 27  1  0  0  0  0
 67 60  1  0  0  0  0
 75 68  1  0  0  0  0
 92 84  1  0  0  0  0
  1108  1  0  0  0  0
 22109  1  0  0  0  0
 25110  1  0  0  0  0
 25111  1  0  0  0  0
 26112  1  0  0  0  0
 26113  1  0  0  0  0
 26114  1  0  0  0  0
 30115  1  0  0  0  0
 31116  1  0  0  0  0
 32117  1  0  0  0  0
 33118  1  0  0  0  0
 35119  1  0  0  0  0
 40120  1  0  0  0  0
 41121  1  0  0  0  0
 44122  1  0  0  0  0
 44123  1  0  0  0  0
 44124  1  0  0  0  0
 45125  1  0  0  0  0
 46126  1  0  0  0  0
 48127  1  0  0  0  0
 49128  1  0  0  0  0
 52129  1  0  0  0  0
 52130  1  0  0  0  0
 52131  1  0  0  0  0
 53132  1  0  0  0  0
 54133  1  0  0  0  0
 61134  1  0  0  0  0
 62135  1  0  0  0  0
 65136  1  0  0  0  0
 65137  1  0  0  0  0
 65138  1  0  0  0  0
 66139  1  0  0  0  0
 67140  1  0  0  0  0
 69141  1  0  0  0  0
 70142  1  0  0  0  0
 73143  1  0  0  0  0
 73144  1  0  0  0  0
 73145  1  0  0  0  0
 74146  1  0  0  0  0
 75147  1  0  0  0  0
 79148  1  0  0  0  0
 82149  1  0  0  0  0
 82150  1  0  0  0  0
 83151  1  0  0  0  0
 83152  1  0  0  0  0
 83153  1  0  0  0  0
 87154  1  0  0  0  0
 88155  1  0  0  0  0
 89156  1  0  0  0  0
 90157  1  0  0  0  0
 92158  1  0  0  0  0
 93159  1  0  0  0  0
 98160  1  0  0  0  0
100161  1  0  0  0  0
M  END
