188

C         11.09920       -3.44700       -5.70260
C         11.15340       -2.48600       -6.65400
C         12.34400       -2.34950       -7.53510
O         13.21980       -3.16220       -7.69780
C         12.24760       -0.97960       -8.09630
C         13.17860       -0.27210       -8.83800
Cl        14.62400       -1.00150       -9.37560
C         12.90970        1.07250       -9.13320
Cl        14.01740        1.97590      -10.07140
C         11.76230        1.68810       -8.63030
Cl        11.50820        3.35490       -8.91990
C         10.82240        0.96660       -7.88120
Cl         9.51870        1.80920       -7.14920
C         11.03840       -0.38890       -7.67120
C         10.24060       -1.40440       -6.99360
C          8.87330       -1.48460       -7.00100
C          8.12070       -2.56470       -6.48960
N          7.40000       -3.39040       -6.14660
C          8.00460       -0.59590       -7.67070
N          7.21890        0.02210       -8.23490
C         10.15960       -3.51910       -4.61580
C          9.61760       -2.35360       -4.06770
C          8.62130       -2.47390       -3.11970
N          7.87160       -1.49850       -2.51300
C          7.99790       -0.07420       -2.68730
C          8.74170        0.57710       -1.52370
C          6.90730       -2.11010       -1.75290
C          7.05760       -3.51830       -1.82790
C          8.16290       -3.75360       -2.70130
C          8.76570       -4.90490       -3.19730
C          9.76590       -4.78120       -4.13250
C          6.14760       -4.34770       -1.17860
C          5.06510       -3.78230       -0.54410
C          4.88690       -2.38890       -0.52530
C          5.84380       -1.54070       -1.07800
C          3.62990       -1.79830       -0.10230
C          2.36430       -2.24940       -0.40450
N          2.06050       -3.46640       -1.04990
C          2.13770       -3.51800       -2.44940
C          1.22560       -4.27360       -3.19280
C          1.34810       -4.37890       -4.55960
C          2.37470       -3.72140       -5.23600
S          2.48910       -3.97350       -6.97770
C          4.08080       -3.22350       -7.42270
C          3.22950       -2.90010       -4.51660
C          3.10350       -2.79380       -3.14550
C          1.52350       -4.50890       -0.29240
C          0.92020       -4.27640        0.94370
C          0.33660       -5.30260        1.66170
C          0.35850       -6.59820        1.16960
S         -0.42010       -7.97350        1.96040
C         -1.31350       -7.22820        3.35350
C          1.03940       -6.85620       -0.01950
C          1.62090       -5.83390       -0.73300
C          1.38550       -1.29450       -0.04360
S         -0.33430       -1.25810       -0.10840
C         -0.36560        0.35180        0.63040
C          0.91640        0.82260        0.89950
N          1.29430        2.04810        1.42150
C          2.49560        2.58780        0.92780
C          2.74950        2.56720       -0.44510
C          3.96920        2.97710       -0.93250
C          4.95980        3.42970       -0.06280
S          6.51380        3.83720       -0.79500
C          7.49830        4.48290        0.58590
C          4.68970        3.50950        1.29680
C          3.46770        3.09040        1.78660
C          0.65700        2.64410        2.51240
C          0.61340        4.03660        2.61050
C         -0.05260        4.63640        3.65300
C         -0.69080        3.86550        4.62330
S         -1.53170        4.73920        5.90320
C         -2.70860        3.51310        6.53880
C         -0.61730        2.48110        4.55130
C          0.05290        1.87650        3.50520
C          1.89240       -0.13540        0.51300
S          3.61810       -0.20470        0.61690
C         -1.67430        0.85600        0.86590
C         -2.80890        0.11330        0.65840
C         -4.00380        0.75190        1.03650
C         -5.30130        0.20860        1.03630
C         -5.50530       -1.19810        0.66310
C         -6.47980       -1.57840       -0.25540
C         -6.60280       -2.90540       -0.62700
C         -5.75160       -3.86770       -0.11400
C         -4.77510       -3.49430        0.79820
S         -3.62210       -4.66590        1.48080
C         -3.05030       -5.53060       -0.02660
C         -2.35720       -4.58590       -0.98700
C         -4.67320       -2.17480        1.20560
C         -6.32670        1.05630        1.42360
C         -6.08460        2.37680        1.90190
C         -4.76690        2.88760        1.99310
C         -4.47220        4.16340        2.65360
C         -3.56240        5.06770        2.11300
C         -3.24130        6.22420        2.80210
C         -3.83000        6.50280        4.01920
C         -4.75510        5.61340        4.55920
S         -5.46430        6.02040        6.12580
C         -7.09860        5.18340        6.06690
C         -8.03090        5.82740        7.07290
C         -5.06040        4.44100        3.88670
C         -3.76650        2.07490        1.49760
S         -2.06100        2.45870        1.45840
C         -7.28080        3.02540        2.23030
C         -8.41710        2.25450        2.04360
S         -8.02210        0.66040        1.43040
C         -9.69900        2.73950        2.35770
C        -10.93320        2.17110        2.19360
C        -11.23570        0.91280        1.49790
O        -10.45940        0.06140        1.12220
C        -12.70610        0.91090        1.30790
C        -13.48080        0.01310        0.59530
Cl       -12.80760       -1.39770       -0.08750
C        -14.84520        0.29660        0.43580
Cl       -15.84930       -0.79720       -0.41110
C        -15.37420        1.48850        0.92850
Cl       -17.01820        1.85820        0.63550
C        -14.58080        2.39800        1.64700
Cl       -15.25850        3.91540        2.07060
C        -13.25410        2.07020        1.89510
C        -12.19070        2.75630        2.62330
C        -12.33460        3.61240        3.68460
C        -11.25120        4.17020        4.39770
N        -10.42700        4.65860        5.03150
C        -13.53950        3.92150        4.35220
N        -14.43730        4.16460        5.02430
H         11.85750       -4.21980       -5.76180
H          9.98430       -1.38860       -4.38490
H          8.52490        0.11730       -3.62450
H          6.99600        0.35790       -2.77130
H          8.22910        0.36980       -0.58750
H          9.75640        0.19150       -1.45630
H          8.77960        1.65320       -1.66830
H          8.43810       -5.87750       -2.86480
H         10.22360       -5.66160       -4.55680
H          6.26870       -5.41920       -1.20600
H          4.32980       -4.41010       -0.06620
H          5.69800       -0.47100       -1.04570
H          0.41530       -4.77940       -2.69110
H          0.64710       -4.97620       -5.12220
H          4.24620       -3.48900       -8.46220
H          4.02840       -2.14260       -7.32820
H          4.87480       -3.63500       -6.80570
H          4.00960       -2.34110       -5.00740
H          3.78240       -2.14340       -2.62250
H          0.88840       -3.28360        1.36130
H         -0.14440       -5.06820        2.59710
H         -0.60850       -6.82230        4.07320
H         -1.87310       -8.04090        3.80620
H         -1.99770       -6.46390        2.99490
H          1.10510       -7.87240       -0.37680
H          2.15860       -6.05600       -1.64180
H          1.98880        2.20910       -1.12300
H          4.17290        2.94560       -1.99200
H          8.44630        4.78670        0.15270
H          7.00100        5.34380        1.02290
H          7.66360        3.70310        1.32370
H          5.42860        3.87360        1.99190
H          3.27400        3.12870        2.84820
H          1.08540        4.63730        1.84790
H         -0.10410        5.71140        3.72420
H         -3.42250        4.07660        7.13180
H         -3.21180        3.03690        5.70260
H         -2.20110        2.78450        7.16460
H         -1.07680        1.86220        5.30540
H          0.10190        0.79850        3.45180
H         -2.77950       -0.88090        0.25110
H         -7.12790       -0.83480       -0.69200
H         -7.36710       -3.19410       -1.33270
H         -5.85420       -4.89820       -0.41820
H         -2.36130       -6.29110        0.33830
H         -3.90550       -6.02320       -0.48710
H         -3.04440       -3.81690       -1.33650
H         -1.99420       -5.14240       -1.84890
H         -1.51190       -4.10250       -0.50110
H         -3.94260       -1.91340        1.95610
H         -3.12330        4.87560        1.14620
H         -2.53120        6.91870        2.37940
H         -3.58310        7.40000        4.56430
H         -6.95670        4.12550        6.28990
H         -7.48430        5.30180        5.05540
H         -7.66060        5.68930        8.08600
H         -9.01580        5.37600        6.98620
H         -8.11810        6.89370        6.87840
H         -5.72630        3.71440        4.32690
H         -7.33210        4.04370        2.57380
H         -9.68150        3.74040        2.77380
