138

C          1.04140       -3.85270        6.58340
C          0.41240       -4.97520        7.03260
C         -0.87010       -5.46800        6.49330
O         -1.45230       -5.09320        5.50010
C         -1.35960       -6.43540        7.49990
C         -2.53410       -7.16600        7.47230
Cl        -3.65000       -7.02580        6.19180
C         -2.79210       -8.06070        8.51970
Cl        -4.26260       -8.93120        8.56310
C         -1.83110       -8.26800        9.50330
Cl        -2.13180       -9.41850       10.73100
C         -0.61660       -7.56090        9.50160
Cl         0.56280       -8.01500       10.65970
C         -0.41470       -6.57410        8.54020
C          0.67740       -5.63600        8.30260
C          1.77210       -5.35360        9.08190
C          1.97330       -5.61580       10.45550
N          2.21360       -5.64350       11.57770
C          2.89540       -4.63080        8.61290
N          3.87490       -4.12470        8.29800
C          0.89070       -3.20920        5.31820
C          0.73290       -3.84880        4.08530
C          0.72380       -5.26490        4.00960
N          0.78900       -6.40570        3.92080
C          0.68260       -3.13860        2.86120
C          0.49980       -3.89820        1.68600
N          0.31290       -4.52570        0.74340
C          0.73810       -1.74010        2.80080
C          0.94410       -1.07210        4.03840
C          1.04540       -1.79810        5.27000
N          1.29240       -0.99920        6.30350
S          1.41910        0.51370        5.77620
N          1.14990        0.23120        4.21460
C          0.64920       -0.97830        1.59550
C          0.03680        0.26940        1.45410
N         -0.82930        0.83330        2.35910
C         -1.63330        0.01610        3.16740
C         -2.16100       -1.16900        2.65820
C         -2.88860       -2.02370        3.45800
C         -3.12270       -1.69930        4.79070
S         -4.02210       -2.71570        5.90390
C         -4.66790       -4.04080        4.85310
C         -2.63170       -0.49380        5.29200
C         -1.89710        0.35500        4.49420
C         -0.87640        2.22720        2.46620
C          0.29970        2.96590        2.35500
C          0.27430        4.34430        2.40060
C         -0.93340        5.01010        2.56870
S         -1.09290        6.76320        2.61750
C          0.56490        7.35940        2.18050
C         -2.10810        4.27090        2.71990
C         -2.08430        2.89610        2.66740
C          0.29160        0.81060        0.17190
S         -0.10220        2.31100       -0.58550
C          0.63980        1.76190       -2.07880
C          1.25990        0.51050       -1.95390
N          2.09410       -0.08800       -2.86510
C          2.21340       -1.48830       -2.84320
C          1.08120       -2.28400       -2.68050
C          1.19790       -3.65240       -2.56090
C          2.45420       -4.24740       -2.60860
S          2.72070       -5.97180       -2.40380
C          1.13870       -6.57280       -1.74740
C          3.58140       -3.45720       -2.84060
C          3.46560       -2.09100       -2.95590
C          2.81220        0.65650       -3.81190
C          2.95360        0.17800       -5.11370
C          3.51810        0.96540       -6.09630
C          3.94880        2.25310       -5.79560
S          4.51320        3.40790       -6.99260
C          4.20490        2.58590       -8.57730
C          3.91090        2.69020       -4.46790
C          3.35840        1.90100       -3.48690
C          1.02120       -0.02320       -0.66050
S          1.43530       -1.51260        0.11900
C          0.58180        2.62690       -3.20730
C          0.52670        2.16730       -4.53330
C          0.17700        0.82510       -4.78820
N         -0.19740       -0.24460       -4.96860
C          0.70080        3.04020       -5.62980
C          0.75850        2.48180       -6.92550
N          0.87860        2.03730       -7.97590
C          0.81830        4.42450       -5.48600
C          0.77460        4.92260       -4.15860
C          0.63930        4.03420       -3.03890
N          0.66840        4.68170       -1.87770
S          0.84770        6.25610       -2.16900
N          0.92650        6.18550       -3.77150
C          1.01270        5.28010       -6.62180
C          0.42020        6.49330       -6.76280
C         -0.72990        6.95010       -5.93630
O         -1.37570        6.29590       -5.15040
C         -1.00790        8.33030       -6.38530
C         -0.17660        8.64930       -7.47600
C         -0.27980        9.89230       -8.08230
C         -1.20420       10.79940       -7.58650
C         -2.01720       10.48250       -6.50820
Br        -3.24620       11.76680       -5.87270
C         -1.93690        9.23030       -5.88840
Cl        -2.93640        8.83050       -4.55900
C          0.69340        7.51010       -7.76100
C          1.61180        7.44480       -8.77420
C          2.43400        6.33520       -9.06060
N          3.12940        5.47310       -9.36270
C          1.85120        8.48570       -9.69820
N          2.10640        9.28540      -10.48050
H          1.69670       -3.31480        7.25140
H         -1.99650       -1.42660        1.62200
H         -3.26430       -2.93940        3.03280
H         -5.22700       -3.61610        4.02440
H         -3.85180       -4.66820        4.50490
H         -5.33420       -4.61600        5.48940
H         -2.83100       -0.23890        6.32140
H         -1.51250        1.28080        4.89520
H          1.24050        2.44770        2.24950
H          1.20250        4.88410        2.31130
H          1.26860        7.12360        2.97270
H          0.47360        8.43700        2.08540
H          0.87090        6.92780        1.23310
H         -3.04000        4.79530        2.86380
H         -2.99960        2.33120        2.76290
H          0.10590       -1.82220       -2.66440
H          0.30820       -4.24390       -2.42870
H          0.85320       -5.97260       -0.88690
H          1.31790       -7.59950       -1.44190
H          0.38150       -6.54740       -2.52780
H          4.55010       -3.92740       -2.90420
H          4.34210       -1.47920       -3.10910
H          2.57690       -0.80230       -5.36240
H          3.58360        0.57790       -7.09870
H          3.16300        2.28210       -8.63390
H          4.40760        3.34010       -9.33020
H          4.87770        1.74180       -8.69510
H          4.30750        3.66490       -4.22810
H          3.32290        2.25310       -2.46630
H          1.66960        4.90210       -7.39550
H          0.33650       10.16790       -8.92160
H         -1.29660       11.77250       -8.04340
