153

C         -4.47740        2.20880        6.02250
C         -5.04540        2.99740        6.99920
C         -5.12910        4.46380        7.03740
O         -4.83100        5.26570        6.17760
C         -5.59010        4.79790        8.40910
C         -5.73460        6.04600        8.98650
Cl        -5.53820        7.47880        8.08080
C         -6.04400        6.11330       10.35300
Cl        -6.27140        7.63340       11.10270
C         -6.12060        4.94610       11.10900
Cl        -6.39560        5.05670       12.79410
C         -5.96090        3.68160       10.51780
Cl        -5.88330        2.31020       11.54560
C         -5.76970        3.60950        9.14450
C         -5.60570        2.48200        8.22950
C         -6.09990        1.21160        8.40430
C         -5.93630        0.15040        7.49160
N         -5.84850       -0.78210        6.82500
C         -6.99490        0.79990        9.41490
N         -7.80120        0.38660       10.12000
C         -4.03960        2.52210        4.73460
C         -4.18240        3.63800        3.91730
C         -3.60540        3.48720        2.67140
S         -3.48740        4.82630        1.52530
C         -1.94360        5.55290        2.21640
C         -2.19910        6.38570        3.45480
C         -3.02690        2.22760        2.44030
S         -3.17650        1.25680        3.87070
C         -2.32570        1.79150        1.30410
C         -1.66130        0.56700        1.11030
N         -1.83160       -0.58140        1.84920
C         -3.11590       -1.01300        2.21820
C         -4.23680       -0.68480        1.45350
C         -5.48730       -1.10180        1.84520
C         -5.65570       -1.85880        3.00610
S         -7.30070       -2.32310        3.40370
C         -7.14900       -3.16690        5.00200
C         -4.53830       -2.20650        3.75860
C         -3.28460       -1.78820        3.36610
C         -0.76090       -1.49230        1.91360
C         -0.95750       -2.85080        1.66410
C          0.11400       -3.71420        1.65580
C          1.40580       -3.24340        1.88520
S          2.71400       -4.41970        1.81690
C          4.16800       -3.39960        1.44050
C          1.59970       -1.89900        2.17580
C          0.52390       -1.03370        2.19440
C         -0.82060        0.63320       -0.02280
S          0.33560       -0.45540       -0.69190
C          0.65700        0.66430       -2.01700
C         -0.20020        1.77560       -1.99070
N         -0.37670        2.69710       -2.99060
C         -1.01280        3.92830       -2.72210
C         -0.56150        4.77190       -1.71260
C         -1.18720        5.98410       -1.48600
C         -2.27780        6.36250       -2.25670
S         -3.13150        7.89430       -2.06530
C         -2.89930        8.28570       -0.30710
C         -2.71870        5.52470       -3.27930
C         -2.09290        4.32250       -3.51170
C         -0.13290        2.40010       -4.34340
C         -0.34260        1.12870       -4.86940
C          0.00060        0.84600       -6.17680
C          0.55060        1.83280       -6.98480
S          1.07960        1.54230       -8.64010
C          1.53070       -0.21610       -8.60720
C          0.68720        3.12640       -6.48500
C          0.35290        3.40780       -5.18000
C         -0.96280        1.77670       -0.79140
S         -2.06100        2.89820       -0.05020
C          1.71760        0.26550       -2.86220
C          2.39020        0.91250       -3.88870
C          3.36040        0.11690       -4.48140
S          4.23100        0.68160       -5.90360
C          5.98760        0.62450       -5.34800
C          6.89520        0.45550       -6.54890
C          3.49920       -1.15960       -3.90820
S          2.41420       -1.30090       -2.54770
C          4.29280       -2.18380       -4.43270
C          4.54770       -3.43500       -3.91980
C          4.13110       -3.91010       -2.59900
O          3.49800       -3.29700       -1.75210
C          4.65980       -5.27290       -2.45360
C          4.49270       -6.12360       -1.36370
C          5.11300       -7.34100       -1.51030
C          5.83980       -7.68670       -2.65710
C          5.99950       -6.85900       -3.74430
C          5.38080       -5.61300       -3.61620
C          5.32210       -4.48440       -4.54710
C          5.89780       -4.46000       -5.79310
C          6.65360       -5.51400       -6.34710
N          7.28550       -6.32090       -6.86520
C          5.83420       -3.39280       -6.70990
N          5.83560       -2.57750       -7.52050
C          6.19660       -9.04880       -2.11670
C          7.62900       -9.25290       -1.56380
C          8.10930       -7.89880       -1.10430
C          7.41990       -7.57170       -0.01940
C          6.46070       -8.69840        0.27430
C          7.29470       -9.89600       -0.20810
C          5.38500       -8.66350       -0.83970
H         -4.30960        1.17220        6.29110
H         -4.69880        4.52780        4.22480
H         -1.26660        4.72220        2.41550
H         -1.53280        6.15560        1.40960
H         -2.62110        5.78070        4.25380
H         -1.26330        6.81680        3.80590
H         -2.89350        7.19240        3.23320
H         -4.12270       -0.10590        0.54910
H         -6.35410       -0.84860        1.25450
H         -6.58420       -4.08700        4.88290
H         -8.16560       -3.39640        5.30600
H         -6.68850       -2.49760        5.72240
H         -4.63580       -2.78660        4.66050
H         -2.42120       -2.04500        3.96120
H         -1.94970       -3.21690        1.44820
H         -0.03300       -4.76190        1.44420
H          4.42570       -2.77230        2.28860
H          3.95940       -2.81510        0.54920
H          4.97710       -4.09720        1.24620
H          2.58400       -1.51400        2.38720
H          0.67730        0.01160        2.42020
H          0.29370        4.48560       -1.11810
H         -0.80220        6.63830       -0.72000
H         -3.56060        9.12210       -0.10360
H         -1.87230        8.57800       -0.10890
H         -3.19590        7.42560        0.28520
H         -3.56140        5.82830       -3.88030
H         -2.43990        3.67170       -4.30020
H         -0.77270        0.35390       -4.25300
H         -0.16290       -0.14950       -6.55710
H          0.64230       -0.84070       -8.62260
H          2.11540       -0.38850       -9.50500
H          2.13860       -0.40700       -7.72800
H          1.08560        3.89740       -7.12540
H          0.49300        4.40400       -4.78730
H          2.22010        1.92430       -4.20140
H          6.08920       -0.19840       -4.64320
H          6.17730        1.56810       -4.83430
H          6.75270        1.27590       -7.24820
H          6.67840       -0.47800       -7.06410
H          7.93440        0.44760       -6.22620
H          4.73750       -1.94160       -5.39120
H          3.91340       -5.82350       -0.50420
H          6.55480       -7.14710       -4.62110
H          5.85360       -9.89920       -2.70260
H          8.29500       -9.79840       -2.22690
H          8.83780       -7.31140       -1.63210
H          7.45860       -6.65590        0.54150
H          6.06230       -8.73860        1.28460
H          6.72080      -10.81750       -0.29480
H          8.17800      -10.06890        0.40500
H          4.51060       -9.26110       -0.59050
