140

C          1.23780        3.92710        5.80390
C          1.60740        3.63810        7.09050
C          2.64340        2.69880        7.54770
O          3.35030        1.96250        6.88610
C          2.69410        2.84520        9.02260
C          3.57190        2.26700        9.92110
Cl         4.69730        1.07730        9.43440
C          3.53100        2.68710       11.25700
Cl         4.57790        1.97640       12.40940
C          2.67170        3.71560       11.63980
Cl         2.71490        4.28790       13.25150
C          1.78130        4.29820       10.72380
Cl         0.88370        5.67370       11.21820
C          1.74450        3.80250        9.42760
C          0.91350        4.12710        8.27160
C         -0.38580        4.55600        8.32590
C         -1.15970        4.65330        9.50380
N         -1.89530        4.66930       10.38430
C         -1.22090        4.78180        7.20970
N         -1.97430        4.98700        6.36730
C          1.72790        3.41850        4.58760
C          2.89250        2.77200        4.21810
C          2.83940        2.20890        2.94290
S          4.09140        1.25910        2.16970
C          5.25810        0.88490        3.52730
C          4.68750       -0.07790        4.54870
C          1.60420        2.39700        2.31800
S          0.60350        3.46550        3.24440
C          1.08630        1.75130        1.16370
C         -0.20310        1.24230        1.00810
N         -1.16190        1.14050        1.99750
C         -2.51650        1.22890        1.62950
C         -2.93200        2.17130        0.69470
C         -4.25690        2.24560        0.31030
C         -5.18980        1.37950        0.86440
S         -6.90300        1.37030        0.45570
C         -7.05280        2.62630       -0.84620
C         -4.77740        0.44520        1.81540
C         -3.45730        0.36700        2.19280
C         -0.82750        0.94230        3.34120
C         -1.57760        1.55740        4.34850
C         -1.19480        1.45130        5.66600
C         -0.05460        0.73010        6.01630
S          0.39340        0.73860        7.72480
C          1.71520       -0.49490        7.84260
C          0.66480        0.07220        5.02620
C          0.27730        0.17250        3.70540
C         -0.38420        0.74110       -0.30550
S         -1.70970       -0.00220       -1.13530
C         -0.73560       -0.14480       -2.58190
C          0.57220        0.27590       -2.39830
N          1.57940        0.09660       -3.33350
C          2.60340        1.04550       -3.43510
C          3.91470        0.65260       -3.70630
C          4.91670        1.59170       -3.78380
C          4.64020        2.94380       -3.58370
S          6.00950        4.04980       -3.70030
C          5.32710        5.64510       -3.16670
C          3.33630        3.34000       -3.32200
C          2.32820        2.39790       -3.25370
C          1.60250       -1.07530       -4.10470
C          1.96710       -1.03900       -5.44850
C          1.90190       -2.17820       -6.22810
C          1.46450       -3.37570       -5.67780
S          1.19430       -4.85940       -6.60950
C          2.15040       -4.59530       -8.13350
C          1.16030       -3.43310       -4.32120
C          1.23370       -2.29900       -3.54350
C          0.75020        0.81310       -1.09990
S          2.09010        1.50930       -0.25980
C         -1.24950       -0.66190       -3.81790
C         -1.09530       -0.04860       -5.04080
C         -1.49620       -0.84980       -6.10810
S         -1.42550       -0.19750       -7.73530
C         -0.60930       -1.49270       -8.76090
C          0.50560       -0.84950       -9.56380
C         -1.93010       -2.12400       -5.71220
S         -1.88330       -2.26400       -3.96830
C         -2.27630       -3.14270       -6.60960
C         -2.30260       -4.49970       -6.41780
C         -2.02420       -5.18850       -5.15700
O         -2.03040       -4.71640       -4.03810
C         -1.72550       -6.58900       -5.52540
C         -1.21930       -7.59830       -4.72800
Cl        -1.00390       -7.38200       -3.05040
C         -0.86080       -8.80820       -5.33900
Cl        -0.25860      -10.09690       -4.39160
C         -0.94930       -8.94280       -6.72300
Cl        -0.41040      -10.39060       -7.45750
C         -1.45050       -7.90680       -7.52800
Cl        -1.34650       -8.08280       -9.23010
C         -1.90880       -6.74850       -6.91410
C         -2.44980       -5.50380       -7.45460
C         -3.09410       -5.33790       -8.65350
C         -3.59280       -6.37560       -9.47060
N         -4.13350       -7.13580      -10.13900
C         -3.47080       -4.08710       -9.18640
N         -3.74340       -3.10420       -9.71510
H          0.38600        4.58400        5.68250
H          3.73220        2.69780        4.88020
H          5.57340        1.82460        3.97770
H          6.10700        0.44370        3.00380
H          3.88150        0.38750        5.10920
H          4.31190       -0.97300        4.05730
H          5.46770       -0.36570        5.25050
H         -2.21230        2.85690        0.27200
H         -4.54610        2.98810       -0.41530
H         -6.42320        2.36100       -1.69040
H         -8.09620        2.61130       -1.14570
H         -6.79830        3.60560       -0.45150
H         -5.50830       -0.22270        2.24400
H         -3.14190       -0.36490        2.92090
H         -2.44180        2.14780        4.08770
H         -1.76620        1.94650        6.43540
H          2.60860       -0.12020        7.34770
H          1.90650       -0.61740        8.90430
H          1.38030       -1.43440        7.41460
H          1.53440       -0.51560        5.27050
H          0.84700       -0.34070        2.94480
H          4.14110       -0.39410       -3.84300
H          5.93240        1.28960       -3.98780
H          4.59510        6.00020       -3.88630
H          6.17060        6.32760       -3.13540
H          4.89410        5.54550       -2.17580
H          3.08650        4.37820       -3.17680
H          1.31380        2.71640       -3.06400
H          2.28290       -0.10550       -5.89000
H          2.18120       -2.11640       -7.26780
H          1.66210       -3.86150       -8.76840
H          3.16050       -4.28870       -7.88030
H          2.16850       -5.55780       -8.63510
H          0.84720       -4.36940       -3.88680
H          0.98830       -2.35510       -2.49400
H         -0.70380        0.94450       -5.16850
H         -0.23080       -2.24820       -8.07520
H         -1.36280       -1.92170       -9.42220
H          0.10500       -0.07040      -10.20740
H          1.24580       -0.40230       -8.90390
H          0.99170       -1.59560      -10.19030
H         -2.43660       -2.79610       -7.62120
