155

C         -2.53420       10.04280       -4.48010
C         -1.66420       11.02350       -4.82860
C         -2.10910       12.43600       -4.94300
O         -3.23910       12.83630       -5.06690
C         -0.86460       13.23080       -4.78350
C         -0.72390       14.59980       -4.62950
Cl        -2.06340       15.64860       -4.75150
C          0.55470       15.10980       -4.35930
Cl         0.77790       16.79550       -4.18470
C          1.63740       14.24560       -4.19690
Cl         3.16740       14.88550       -3.78280
C          1.49090       12.85860       -4.35620
Cl         2.81840       11.83440       -4.00070
C          0.24420       12.36030       -4.70550
C         -0.21960       11.00810       -5.00240
C          0.45590       10.02180       -5.66340
C          1.80490       10.04210       -6.07320
N          2.87590        9.96830       -6.47790
C         -0.20770        8.87520       -6.16580
N         -0.72000        7.96600       -6.64110
C         -2.22590        8.75910       -3.95900
C         -3.09530        7.70680       -3.82390
C         -2.51080        6.55750       -3.24960
C         -3.11790        5.31830       -2.96540
C         -4.53540        5.09430       -3.18380
S         -5.09840        3.72100       -4.08900
C         -6.75760        4.16100       -3.87400
C         -7.84800        3.32770       -4.45060
C         -7.75300        1.87540       -3.98520
C         -6.85330        5.30340       -3.13500
Cl        -8.33740        6.04990       -2.70080
C         -5.59630        5.83880       -2.74620
Cl        -5.45430        7.22930       -1.74840
C         -2.29260        4.32220       -2.46550
C         -0.90270        4.49620       -2.23960
C         -0.30100        5.74970       -2.47460
C          1.10900        5.97870       -2.24140
C          1.89260        5.54520       -1.20790
C          3.23320        5.96190       -1.31480
C          3.48610        6.70140       -2.43080
C          4.77970        7.28600       -2.88210
C          4.63870        8.74950       -3.29570
S          2.04990        6.91510       -3.37380
C         -1.13490        6.74650       -2.96670
S         -0.63890        8.37210       -3.32090
C         -0.29380        3.30110       -1.79070
C         -1.17490        2.27280       -1.61450
S         -2.81600        2.72070       -2.02880
C         -0.90110        0.95650       -1.14510
C         -1.81490        0.00260       -0.79890
C         -1.23410       -1.20640       -0.35080
C         -1.89070       -2.37570        0.07740
C         -3.35590       -2.47020        0.05190
C         -4.06500       -2.92470        1.16020
C         -5.44370       -2.99800        1.15360
C         -6.16820       -2.60650        0.02930
O         -7.50580       -2.62390       -0.08740
C         -8.30320       -3.07520        0.99500
C         -9.75440       -2.97580        0.55530
C         -5.45210       -2.14770       -1.09020
C         -6.23450       -1.70230       -2.29200
F         -7.08350       -0.69840       -2.00640
F         -6.97640       -2.68270       -2.83140
F         -5.44940       -1.24340       -3.28170
C         -4.07120       -2.09060       -1.08100
C         -1.08830       -3.41190        0.52730
C          0.33170       -3.34170        0.52770
C          0.99100       -2.18430        0.06540
C          2.45490       -2.11440        0.00170
C          3.19220       -3.13780       -0.58950
C          4.56850       -3.07660       -0.67450
C          5.26140       -1.97810       -0.16760
O          6.59310       -1.81190       -0.19520
C          7.41710       -2.80710       -0.77990
C          8.85440       -2.32980       -0.65750
C          4.51590       -0.94430        0.42600
C          3.13850       -1.01330        0.50870
C          5.25970        0.24320        0.96680
F          4.44180        1.16710        1.49880
F          5.97120        0.88280        0.02300
F          6.12800       -0.08450        1.93880
C          0.18450       -1.13500       -0.34010
S          0.74680        0.40990       -0.92960
C          0.91520       -4.50910        1.05670
C         -0.00160       -5.46560        1.42220
S         -1.64810       -4.95210        1.12990
C          0.26520       -6.73610        2.00010
C         -0.77660       -7.61060        2.37060
C         -0.54580       -8.87930        3.02320
N         -1.69260       -9.50950        3.28920
S         -2.91670       -8.62030        2.76270
N         -2.07910       -7.38060        2.18700
C          0.74420       -9.32410        3.37740
C          1.79300       -8.49900        2.92080
N          3.09290       -8.78970        2.98740
S          3.93350       -7.59220        2.34840
N          2.71530       -6.64670        1.90940
C          1.56360       -7.23120        2.25430
C          0.92400      -10.54250        4.08590
C          1.91960      -10.80850        4.97930
C          2.73040       -9.78060        5.68190
O          2.67990       -8.57530        5.56180
C          3.52060      -10.52460        6.68420
C          4.42750      -10.02690        7.59960
C          5.05450      -10.89680        8.48460
C          6.05090      -10.43130        9.49490
C          4.72010      -12.25040        8.40340
F          5.31650      -13.09890        9.26150
C          3.81100      -12.77490        7.49960
C          3.20120      -11.89130        6.62260
C          2.22130      -12.10130        5.56190
C          1.74390      -13.31400        5.14070
C          2.09000      -14.54690        5.73320
N          2.32880      -15.57730        6.17870
C          0.87030      -13.50660        4.04900
N          0.18480      -13.75470        3.16200
H         -3.58740       10.29870       -4.52410
H         -4.11190        7.74760       -4.17020
H         -8.80540        3.75790       -4.15200
H         -7.78560        3.35900       -5.54200
H         -7.82910        1.81280       -2.90300
H         -6.80320        1.44160       -4.28870
H         -8.55730        1.29010       -4.42170
H          1.51210        4.98780       -0.37060
H          3.98580        5.71750       -0.58650
H          5.15800        6.71230       -3.73390
H          5.50290        7.19250       -2.06880
H          3.97970        8.83990       -4.15690
H          4.22620        9.33710       -2.47800
H          5.60890        9.15990       -3.56350
H          0.76070        3.19560       -1.61210
H         -2.87390        0.18230       -0.84230
H         -3.53090       -3.20820        2.05360
H         -5.95460       -3.35360        2.03330
H         -8.04570       -4.11400        1.24010
H         -8.12500       -2.44560        1.87690
H        -10.40770       -3.30980        1.35590
H         -9.91690       -3.59370       -0.32320
H         -9.99310       -1.94680        0.30170
H         -3.54950       -1.76630       -1.96820
H          2.67690       -3.98650       -1.01280
H          5.10200       -3.88660       -1.14460
H          7.14600       -2.94220       -1.83530
H          7.28210       -3.76020       -0.25160
H          8.97300       -1.38100       -1.17300
H          9.10840       -2.18740        0.38900
H          9.52630       -3.06270       -1.09440
H          2.59780       -0.21360        0.99010
H          1.97060       -4.65370        1.19420
H          0.15340      -11.28340        3.91150
H          4.64390       -8.96970        7.61960
H          6.16220       -9.35170        9.45980
H          7.01890      -10.89580        9.30880
H          5.73800      -10.72730       10.49550
H          3.60520      -13.83240        7.51030
