
  xtb     02042204453D
 energy: -278.675806825503 gnorm: 0.000351162019 xtb: 6.4.1 (unknown)
138151  0     0  0            999 V2000
   -3.9225    6.7404   -1.6892 C   0  0  0  0  0  0  0  0  0  0  0  0
   -4.6759    7.1407   -0.6094 C   0  0  0  0  0  0  0  0  0  0  0  0
   -5.0184    6.3033    0.5332 C   0  0  0  0  0  0  0  0  0  0  0  0
   -4.7921    5.1154    0.6806 O   0  0  0  0  0  0  0  0  0  0  0  0
   -5.7058    7.1895    1.4980 C   0  0  0  0  0  0  0  0  0  0  0  0
   -6.1576    6.8989    2.7723 C   0  0  0  0  0  0  0  0  0  0  0  0
   -6.1540    5.2993    3.3771 Cl  0  0  0  0  0  0  0  0  0  0  0  0
   -6.6155    7.9571    3.5709 C   0  0  0  0  0  0  0  0  0  0  0  0
   -7.2058    7.6449    5.1481 Cl  0  0  0  0  0  0  0  0  0  0  0  0
   -6.5339    9.2677    3.1035 C   0  0  0  0  0  0  0  0  0  0  0  0
   -6.9805   10.5536    4.1403 Cl  0  0  0  0  0  0  0  0  0  0  0  0
   -6.0763    9.5549    1.8059 C   0  0  0  0  0  0  0  0  0  0  0  0
   -5.8354   11.1964    1.3761 Cl  0  0  0  0  0  0  0  0  0  0  0  0
   -5.7419    8.4965    0.9709 C   0  0  0  0  0  0  0  0  0  0  0  0
   -5.2867    8.4406   -0.4184 C   0  0  0  0  0  0  0  0  0  0  0  0
   -5.5598    9.3636   -1.3951 C   0  0  0  0  0  0  0  0  0  0  0  0
   -6.4797   10.4285   -1.2818 C   0  0  0  0  0  0  0  0  0  0  0  0
   -7.2839   11.2461   -1.3261 N   0  0  0  0  0  0  0  0  0  0  0  0
   -5.0923    9.2927   -2.7253 C   0  0  0  0  0  0  0  0  0  0  0  0
   -4.7374    9.3286   -3.8171 N   0  0  0  0  0  0  0  0  0  0  0  0
   -3.1770    5.5726   -1.8639 C   0  0  0  0  0  0  0  0  0  0  0  0
   -2.3199    5.3780   -2.9508 C   0  0  0  0  0  0  0  0  0  0  0  0
   -1.4911    4.2840   -2.8232 C   0  0  0  0  0  0  0  0  0  0  0  0
   -0.2955    3.8589   -4.0586 S   0  0  0  0  0  0  0  0  0  0  0  0
    1.2180    4.5799   -3.2902 C   0  0  0  0  0  0  0  0  0  0  0  0
    2.0210    5.3385   -4.3258 C   0  0  0  0  0  0  0  0  0  0  0  0
   -1.6685    3.5937   -1.6131 C   0  0  0  0  0  0  0  0  0  0  0  0
   -2.9880    4.2726   -0.7110 S   0  0  0  0  0  0  0  0  0  0  0  0
   -0.9059    2.5042   -1.1432 C   0  0  0  0  0  0  0  0  0  0  0  0
   -0.7971    1.9721    0.1526 C   0  0  0  0  0  0  0  0  0  0  0  0
   -1.3282    2.4611    1.3276 N   0  0  0  0  0  0  0  0  0  0  0  0
   -1.4377    3.8125    1.6430 C   0  0  0  0  0  0  0  0  0  0  0  0
   -0.6212    4.7753    1.0438 C   0  0  0  0  0  0  0  0  0  0  0  0
   -0.8355    6.1152    1.2816 C   0  0  0  0  0  0  0  0  0  0  0  0
   -1.8465    6.5244    2.1466 C   0  0  0  0  0  0  0  0  0  0  0  0
   -2.1599    8.2594    2.2715 S   0  0  0  0  0  0  0  0  0  0  0  0
   -2.9050    8.4306    3.9190 C   0  0  0  0  0  0  0  0  0  0  0  0
   -2.5995    5.5686    2.8164 C   0  0  0  0  0  0  0  0  0  0  0  0
   -2.4024    4.2295    2.5612 C   0  0  0  0  0  0  0  0  0  0  0  0
   -1.6398    1.4915    2.3077 C   0  0  0  0  0  0  0  0  0  0  0  0
   -2.4290    0.3991    1.9631 C   0  0  0  0  0  0  0  0  0  0  0  0
   -2.6438   -0.6251    2.8637 C   0  0  0  0  0  0  0  0  0  0  0  0
   -2.0671   -0.5679    4.1257 C   0  0  0  0  0  0  0  0  0  0  0  0
   -2.2001   -1.8516    5.3235 S   0  0  0  0  0  0  0  0  0  0  0  0
   -2.8851   -3.2438    4.3806 C   0  0  0  0  0  0  0  0  0  0  0  0
   -1.3305    0.5576    4.4945 C   0  0  0  0  0  0  0  0  0  0  0  0
   -1.1175    1.5791    3.5969 C   0  0  0  0  0  0  0  0  0  0  0  0
    0.0024    0.8028    0.1483 C   0  0  0  0  0  0  0  0  0  0  0  0
    0.4541   -0.3434    1.3710 S   0  0  0  0  0  0  0  0  0  0  0  0
    1.4296   -1.2213    0.2081 C   0  0  0  0  0  0  0  0  0  0  0  0
    1.3036   -0.7107   -1.0940 C   0  0  0  0  0  0  0  0  0  0  0  0
    1.7202   -1.3233   -2.2480 N   0  0  0  0  0  0  0  0  0  0  0  0
    2.0519   -0.5020   -3.3369 C   0  0  0  0  0  0  0  0  0  0  0  0
    2.8610    0.6166   -3.1333 C   0  0  0  0  0  0  0  0  0  0  0  0
    3.1304    1.4722   -4.1762 C   0  0  0  0  0  0  0  0  0  0  0  0
    2.5887    1.2350   -5.4391 C   0  0  0  0  0  0  0  0  0  0  0  0
    2.9546    2.4173   -6.6911 S   0  0  0  0  0  0  0  0  0  0  0  0
    1.7228    2.0714   -7.9773 C   0  0  0  0  0  0  0  0  0  0  0  0
    1.8187    0.0979   -5.6530 C   0  0  0  0  0  0  0  0  0  0  0  0
    1.5558   -0.7663   -4.6093 C   0  0  0  0  0  0  0  0  0  0  0  0
    1.7881   -2.7145   -2.3490 C   0  0  0  0  0  0  0  0  0  0  0  0
    2.7739   -3.3246   -3.1268 C   0  0  0  0  0  0  0  0  0  0  0  0
    2.9099   -4.6945   -3.1221 C   0  0  0  0  0  0  0  0  0  0  0  0
    2.0629   -5.4923   -2.3508 C   0  0  0  0  0  0  0  0  0  0  0  0
    2.3805   -7.2192   -2.3461 S   0  0  0  0  0  0  0  0  0  0  0  0
    1.0018   -7.9183   -1.4002 C   0  0  0  0  0  0  0  0  0  0  0  0
    1.0324   -4.8923   -1.6336 C   0  0  0  0  0  0  0  0  0  0  0  0
    0.8941   -3.5216   -1.6454 C   0  0  0  0  0  0  0  0  0  0  0  0
    0.5218    0.4660   -1.0899 C   0  0  0  0  0  0  0  0  0  0  0  0
    0.0553    1.5925   -2.3144 S   0  0  0  0  0  0  0  0  0  0  0  0
    2.2057   -2.3084    0.6675 C   0  0  0  0  0  0  0  0  0  0  0  0
    1.8097   -3.0546    1.8011 C   0  0  0  0  0  0  0  0  0  0  0  0
    2.4564   -4.2853    2.1931 C   0  0  0  0  0  0  0  0  0  0  0  0
    1.8864   -4.8095    3.2750 N   0  0  0  0  0  0  0  0  0  0  0  0
    0.6578   -3.8855    3.7316 S   0  0  0  0  0  4  0  0  0  0  0  0
    0.7779   -2.7575    2.5905 N   0  0  0  0  0  0  0  0  0  0  0  0
    3.5932   -4.7878    1.5145 C   0  0  0  0  0  0  0  0  0  0  0  0
    4.1126   -3.9224    0.5213 C   0  0  0  0  0  0  0  0  0  0  0  0
    5.2481   -4.1071   -0.1468 N   0  0  0  0  0  0  0  0  0  0  0  0
    5.4545   -2.8963   -1.1827 S   0  0  0  0  0  0  0  0  0  0  0  0
    4.0996   -2.0903   -0.8705 N   0  0  0  0  0  0  0  0  0  0  0  0
    3.4208   -2.7318    0.0822 C   0  0  0  0  0  0  0  0  0  0  0  0
    4.2409   -5.9929    1.8434 C   0  0  0  0  0  0  0  0  0  0  0  0
    3.6151   -7.1115    2.3415 C   0  0  0  0  0  0  0  0  0  0  0  0
    2.2031   -7.4260    2.1128 C   0  0  0  0  0  0  0  0  0  0  0  0
    1.3612   -6.7593    1.5398 O   0  0  0  0  0  0  0  0  0  0  0  0
    2.0375   -8.8345    2.5503 C   0  0  0  0  0  0  0  0  0  0  0  0
    0.9123   -9.6333    2.4682 C   0  0  0  0  0  0  0  0  0  0  0  0
   -0.5930   -9.0041    1.9610 Cl  0  0  0  0  0  0  0  0  0  0  0  0
    1.0261  -10.9867    2.8118 C   0  0  0  0  0  0  0  0  0  0  0  0
   -0.3515  -12.0012    2.7641 Cl  0  0  0  0  0  0  0  0  0  0  0  0
    2.2691  -11.5153    3.1514 C   0  0  0  0  0  0  0  0  0  0  0  0
    2.4063  -13.1898    3.4748 Cl  0  0  0  0  0  0  0  0  0  0  0  0
    3.4143  -10.7034    3.2171 C   0  0  0  0  0  0  0  0  0  0  0  0
    4.9322  -11.4606    3.4717 Cl  0  0  0  0  0  0  0  0  0  0  0  0
    3.2809   -9.3420    2.9807 C   0  0  0  0  0  0  0  0  0  0  0  0
    4.2371   -8.2360    3.0000 C   0  0  0  0  0  0  0  0  0  0  0  0
    5.4035   -8.1387    3.7149 C   0  0  0  0  0  0  0  0  0  0  0  0
    5.8998   -9.0506    4.6689 C   0  0  0  0  0  0  0  0  0  0  0  0
    6.3493   -9.6705    5.5243 N   0  0  0  0  0  0  0  0  0  0  0  0
    6.1998   -6.9703    3.7179 C   0  0  0  0  0  0  0  0  0  0  0  0
    6.8957   -6.0598    3.7820 N   0  0  0  0  0  0  0  0  0  0  0  0
   -3.8090    7.4478   -2.5011 H   0  0  0  0  0  0  0  0  0  0  0  0
   -2.2852    6.0489   -3.7905 H   0  0  0  0  0  0  0  0  0  0  0  0
    1.7908    3.7520   -2.8716 H   0  0  0  0  0  0  0  0  0  0  0  0
    0.8768    5.2357   -2.4905 H   0  0  0  0  0  0  0  0  0  0  0  0
    2.3248    4.6754   -5.1317 H   0  0  0  0  0  0  0  0  0  0  0  0
    1.4307    6.1485   -4.7466 H   0  0  0  0  0  0  0  0  0  0  0  0
    2.9125    5.7583   -3.8644 H   0  0  0  0  0  0  0  0  0  0  0  0
    0.1699    4.4678    0.3762 H   0  0  0  0  0  0  0  0  0  0  0  0
   -0.2285    6.8607    0.7913 H   0  0  0  0  0  0  0  0  0  0  0  0
   -2.2780    7.9277    4.6485 H   0  0  0  0  0  0  0  0  0  0  0  0
   -2.9317    9.4967    4.1209 H   0  0  0  0  0  0  0  0  0  0  0  0
   -3.9147    8.0323    3.9246 H   0  0  0  0  0  0  0  0  0  0  0  0
   -3.3675    5.8602    3.5132 H   0  0  0  0  0  0  0  0  0  0  0  0
   -3.0313    3.4986    3.0443 H   0  0  0  0  0  0  0  0  0  0  0  0
   -2.8620    0.3495    0.9747 H   0  0  0  0  0  0  0  0  0  0  0  0
   -3.2545   -1.4616    2.5666 H   0  0  0  0  0  0  0  0  0  0  0  0
   -2.8208   -4.1049    5.0384 H   0  0  0  0  0  0  0  0  0  0  0  0
   -2.2837   -3.4090    3.4918 H   0  0  0  0  0  0  0  0  0  0  0  0
   -3.9246   -3.0534    4.1292 H   0  0  0  0  0  0  0  0  0  0  0  0
   -0.9065    0.6042    5.4855 H   0  0  0  0  0  0  0  0  0  0  0  0
   -0.5214    2.4353    3.8745 H   0  0  0  0  0  0  0  0  0  0  0  0
    3.2740    0.7954   -2.1520 H   0  0  0  0  0  0  0  0  0  0  0  0
    3.7589    2.3371   -4.0295 H   0  0  0  0  0  0  0  0  0  0  0  0
    1.9590    1.1426   -8.4882 H   0  0  0  0  0  0  0  0  0  0  0  0
    1.7879    2.8996   -8.6759 H   0  0  0  0  0  0  0  0  0  0  0  0
    0.7353    2.0413   -7.5272 H   0  0  0  0  0  0  0  0  0  0  0  0
    1.4113   -0.1203   -6.6266 H   0  0  0  0  0  0  0  0  0  0  0  0
    0.9459   -1.6423   -4.7729 H   0  0  0  0  0  0  0  0  0  0  0  0
    3.4532   -2.7118   -3.7001 H   0  0  0  0  0  0  0  0  0  0  0  0
    3.6901   -5.1663   -3.6993 H   0  0  0  0  0  0  0  0  0  0  0  0
    1.1824   -8.9884   -1.3665 H   0  0  0  0  0  0  0  0  0  0  0  0
    0.9962   -7.5102   -0.3927 H   0  0  0  0  0  0  0  0  0  0  0  0
    0.0664   -7.7171   -1.9141 H   0  0  0  0  0  0  0  0  0  0  0  0
    0.3432   -5.4805   -1.0515 H   0  0  0  0  0  0  0  0  0  0  0  0
    0.0876   -3.0688   -1.0880 H   0  0  0  0  0  0  0  0  0  0  0  0
    5.2991   -6.0312    1.6178 H   0  0  0  0  0  0  0  0  0  0  0  0
  1  2  2  0  0  0  0
  2  3  1  0  0  0  0
  3  4  2  0  0  0  0
  3  5  1  0  0  0  0
  5  6  2  0  0  0  0
  6  7  1  0  0  0  0
  6  8  1  0  0  0  0
  8  9  1  0  0  0  0
  8 10  2  0  0  0  0
 10 11  1  0  0  0  0
 10 12  1  0  0  0  0
 12 13  1  0  0  0  0
 12 14  2  0  0  0  0
 14 15  1  0  0  0  0
 15 16  2  0  0  0  0
 16 17  1  0  0  0  0
 17 18  3  0  0  0  0
 16 19  1  0  0  0  0
 19 20  3  0  0  0  0
  1 21  1  0  0  0  0
 21 22  2  0  0  0  0
 22 23  1  0  0  0  0
 23 24  1  0  0  0  0
 24 25  1  0  0  0  0
 25 26  1  0  0  0  0
 23 27  2  0  0  0  0
 27 28  1  0  0  0  0
 27 29  1  0  0  0  0
 29 30  2  0  0  0  0
 30 31  1  0  0  0  0
 31 32  1  0  0  0  0
 32 33  2  0  0  0  0
 33 34  1  0  0  0  0
 34 35  2  0  0  0  0
 35 36  1  0  0  0  0
 36 37  1  0  0  0  0
 35 38  1  0  0  0  0
 38 39  2  0  0  0  0
 31 40  1  0  0  0  0
 40 41  2  0  0  0  0
 41 42  1  0  0  0  0
 42 43  2  0  0  0  0
 43 44  1  0  0  0  0
 44 45  1  0  0  0  0
 43 46  1  0  0  0  0
 46 47  2  0  0  0  0
 30 48  1  0  0  0  0
 48 49  1  0  0  0  0
 49 50  1  0  0  0  0
 50 51  2  0  0  0  0
 51 52  1  0  0  0  0
 52 53  1  0  0  0  0
 53 54  2  0  0  0  0
 54 55  1  0  0  0  0
 55 56  2  0  0  0  0
 56 57  1  0  0  0  0
 57 58  1  0  0  0  0
 56 59  1  0  0  0  0
 59 60  2  0  0  0  0
 52 61  1  0  0  0  0
 61 62  2  0  0  0  0
 62 63  1  0  0  0  0
 63 64  2  0  0  0  0
 64 65  1  0  0  0  0
 65 66  1  0  0  0  0
 64 67  1  0  0  0  0
 67 68  2  0  0  0  0
 51 69  1  0  0  0  0
 69 70  1  0  0  0  0
 50 71  1  0  0  0  0
 71 72  2  0  0  0  0
 72 73  1  0  0  0  0
 73 74  1  0  0  0  0
 74 75  2  0  0  0  0
 75 76  2  0  0  0  0
 73 77  2  0  0  0  0
 77 78  1  0  0  0  0
 78 79  2  0  0  0  0
 79 80  1  0  0  0  0
 80 81  1  0  0  0  0
 81 82  2  0  0  0  0
 77 83  1  0  0  0  0
 83 84  2  0  0  0  0
 84 85  1  0  0  0  0
 85 86  2  0  0  0  0
 85 87  1  0  0  0  0
 87 88  2  0  0  0  0
 88 89  1  0  0  0  0
 88 90  1  0  0  0  0
 90 91  1  0  0  0  0
 90 92  2  0  0  0  0
 92 93  1  0  0  0  0
 92 94  1  0  0  0  0
 94 95  1  0  0  0  0
 94 96  2  0  0  0  0
 96 97  1  0  0  0  0
 97 98  2  0  0  0  0
 98 99  1  0  0  0  0
 99100  3  0  0  0  0
 98101  1  0  0  0  0
101102  3  0  0  0  0
 15  2  1  0  0  0  0
 28 21  1  0  0  0  0
 70 29  1  0  0  0  0
 82 71  1  0  0  0  0
 97 84  1  0  0  0  0
 14  5  1  0  0  0  0
 39 32  1  0  0  0  0
 47 40  1  0  0  0  0
 69 48  2  0  0  0  0
 76 72  1  0  0  0  0
 82 78  1  0  0  0  0
 96 87  1  0  0  0  0
 60 53  1  0  0  0  0
 68 61  1  0  0  0  0
  1103  1  0  0  0  0
 22104  1  0  0  0  0
 25105  1  0  0  0  0
 25106  1  0  0  0  0
 26107  1  0  0  0  0
 26108  1  0  0  0  0
 26109  1  0  0  0  0
 33110  1  0  0  0  0
 34111  1  0  0  0  0
 37112  1  0  0  0  0
 37113  1  0  0  0  0
 37114  1  0  0  0  0
 38115  1  0  0  0  0
 39116  1  0  0  0  0
 41117  1  0  0  0  0
 42118  1  0  0  0  0
 45119  1  0  0  0  0
 45120  1  0  0  0  0
 45121  1  0  0  0  0
 46122  1  0  0  0  0
 47123  1  0  0  0  0
 54124  1  0  0  0  0
 55125  1  0  0  0  0
 58126  1  0  0  0  0
 58127  1  0  0  0  0
 58128  1  0  0  0  0
 59129  1  0  0  0  0
 60130  1  0  0  0  0
 62131  1  0  0  0  0
 63132  1  0  0  0  0
 66133  1  0  0  0  0
 66134  1  0  0  0  0
 66135  1  0  0  0  0
 67136  1  0  0  0  0
 68137  1  0  0  0  0
 83138  1  0  0  0  0
M  END
