138

C         -3.92250        6.74040       -1.68920
C         -4.67590        7.14070       -0.60940
C         -5.01840        6.30330        0.53320
O         -4.79210        5.11540        0.68060
C         -5.70580        7.18950        1.49800
C         -6.15760        6.89890        2.77230
Cl        -6.15400        5.29930        3.37710
C         -6.61550        7.95710        3.57090
Cl        -7.20580        7.64490        5.14810
C         -6.53390        9.26770        3.10350
Cl        -6.98050       10.55360        4.14030
C         -6.07630        9.55490        1.80590
Cl        -5.83540       11.19640        1.37610
C         -5.74190        8.49650        0.97090
C         -5.28670        8.44060       -0.41840
C         -5.55980        9.36360       -1.39510
C         -6.47970       10.42850       -1.28180
N         -7.28390       11.24610       -1.32610
C         -5.09230        9.29270       -2.72530
N         -4.73740        9.32860       -3.81710
C         -3.17700        5.57260       -1.86390
C         -2.31990        5.37800       -2.95080
C         -1.49110        4.28400       -2.82320
S         -0.29550        3.85890       -4.05860
C          1.21800        4.57990       -3.29020
C          2.02100        5.33850       -4.32580
C         -1.66850        3.59370       -1.61310
S         -2.98800        4.27260       -0.71100
C         -0.90590        2.50420       -1.14320
C         -0.79710        1.97210        0.15260
N         -1.32820        2.46110        1.32760
C         -1.43770        3.81250        1.64300
C         -0.62120        4.77530        1.04380
C         -0.83550        6.11520        1.28160
C         -1.84650        6.52440        2.14660
S         -2.15990        8.25940        2.27150
C         -2.90500        8.43060        3.91900
C         -2.59950        5.56860        2.81640
C         -2.40240        4.22950        2.56120
C         -1.63980        1.49150        2.30770
C         -2.42900        0.39910        1.96310
C         -2.64380       -0.62510        2.86370
C         -2.06710       -0.56790        4.12570
S         -2.20010       -1.85160        5.32350
C         -2.88510       -3.24380        4.38060
C         -1.33050        0.55760        4.49450
C         -1.11750        1.57910        3.59690
C          0.00240        0.80280        0.14830
S          0.45410       -0.34340        1.37100
C          1.42960       -1.22130        0.20810
C          1.30360       -0.71070       -1.09400
N          1.72020       -1.32330       -2.24800
C          2.05190       -0.50200       -3.33690
C          2.86100        0.61660       -3.13330
C          3.13040        1.47220       -4.17620
C          2.58870        1.23500       -5.43910
S          2.95460        2.41730       -6.69110
C          1.72280        2.07140       -7.97730
C          1.81870        0.09790       -5.65300
C          1.55580       -0.76630       -4.60930
C          1.78810       -2.71450       -2.34900
C          2.77390       -3.32460       -3.12680
C          2.90990       -4.69450       -3.12210
C          2.06290       -5.49230       -2.35080
S          2.38050       -7.21920       -2.34610
C          1.00180       -7.91830       -1.40020
C          1.03240       -4.89230       -1.63360
C          0.89410       -3.52160       -1.64540
C          0.52180        0.46600       -1.08990
S          0.05530        1.59250       -2.31440
C          2.20570       -2.30840        0.66750
C          1.80970       -3.05460        1.80110
C          2.45640       -4.28530        2.19310
N          1.88640       -4.80950        3.27500
S          0.65780       -3.88550        3.73160
N          0.77790       -2.75750        2.59050
C          3.59320       -4.78780        1.51450
C          4.11260       -3.92240        0.52130
N          5.24810       -4.10710       -0.14680
S          5.45450       -2.89630       -1.18270
N          4.09960       -2.09030       -0.87050
C          3.42080       -2.73180        0.08220
C          4.24090       -5.99290        1.84340
C          3.61510       -7.11150        2.34150
C          2.20310       -7.42600        2.11280
O          1.36120       -6.75930        1.53980
C          2.03750       -8.83450        2.55030
C          0.91230       -9.63330        2.46820
Cl        -0.59300       -9.00410        1.96100
C          1.02610      -10.98670        2.81180
Cl        -0.35150      -12.00120        2.76410
C          2.26910      -11.51530        3.15140
Cl         2.40630      -13.18980        3.47480
C          3.41430      -10.70340        3.21710
Cl         4.93220      -11.46060        3.47170
C          3.28090       -9.34200        2.98070
C          4.23710       -8.23600        3.00000
C          5.40350       -8.13870        3.71490
C          5.89980       -9.05060        4.66890
N          6.34930       -9.67050        5.52430
C          6.19980       -6.97030        3.71790
N          6.89570       -6.05980        3.78200
H         -3.80900        7.44780       -2.50110
H         -2.28520        6.04890       -3.79050
H          1.79080        3.75200       -2.87160
H          0.87680        5.23570       -2.49050
H          2.32480        4.67540       -5.13170
H          1.43070        6.14850       -4.74660
H          2.91250        5.75830       -3.86440
H          0.16990        4.46780        0.37620
H         -0.22850        6.86070        0.79130
H         -2.27800        7.92770        4.64850
H         -2.93170        9.49670        4.12090
H         -3.91470        8.03230        3.92460
H         -3.36750        5.86020        3.51320
H         -3.03130        3.49860        3.04430
H         -2.86200        0.34950        0.97470
H         -3.25450       -1.46160        2.56660
H         -2.82080       -4.10490        5.03840
H         -2.28370       -3.40900        3.49180
H         -3.92460       -3.05340        4.12920
H         -0.90650        0.60420        5.48550
H         -0.52140        2.43530        3.87450
H          3.27400        0.79540       -2.15200
H          3.75890        2.33710       -4.02950
H          1.95900        1.14260       -8.48820
H          1.78790        2.89960       -8.67590
H          0.73530        2.04130       -7.52720
H          1.41130       -0.12030       -6.62660
H          0.94590       -1.64230       -4.77290
H          3.45320       -2.71180       -3.70010
H          3.69010       -5.16630       -3.69930
H          1.18240       -8.98840       -1.36650
H          0.99620       -7.51020       -0.39270
H          0.06640       -7.71710       -1.91410
H          0.34320       -5.48050       -1.05150
H          0.08760       -3.06880       -1.08800
H          5.29910       -6.03120        1.61780
