199

C         10.00800        1.53370       -0.81150
C         11.11600        1.33460       -0.03110
C         11.14420        0.75510        1.31800
O         10.20650        0.50530        2.04480
C         12.57520        0.51660        1.62090
C         13.12790       -0.12780        2.71310
Cl        12.16740       -0.63080        4.03010
C         14.50850       -0.37260        2.70780
Cl        15.24400       -1.13790        4.04810
C         15.27330       -0.03520        1.59250
Cl        16.93540       -0.43820        1.56610
C         14.70400        0.61410        0.48470
Cl        15.67020        0.83130       -0.91570
C         13.35870        0.95690        0.53500
C         12.48330        1.64940       -0.40830
C         12.86340        2.58930       -1.33070
C         11.98220        3.24910       -2.21570
N         11.34420        3.82180       -2.97970
C         14.14380        3.17640       -1.42830
N         15.11020        3.78870       -1.51870
C          8.65240        1.25800       -0.56090
C          7.67280        1.48580       -1.51450
C          6.38200        1.12820       -1.11030
C          5.17450        1.23480       -1.84730
C          5.11320        1.71340       -3.20870
C          4.11160        2.43950       -3.79230
C          4.28560        2.66750       -5.17540
C          3.25710        3.39760       -5.98220
C          2.00000        2.54350       -6.15520
C          5.43900        2.11110       -5.65340
C          5.97710        2.09050       -7.04380
C          5.40410        0.91980       -7.84630
S          6.31940        1.30250       -4.39760
C          4.02620        0.82190       -1.18740
C          4.01850        0.26950        0.12090
C          5.21710        0.17750        0.86020
C          5.27320       -0.33120        2.21350
C          6.09450        0.08350        3.22390
C          5.93850       -0.62910        4.43440
C          6.73080       -0.27880        5.65620
C          6.02040        0.79380        6.48310
C          4.99270       -1.60990        4.34490
S          4.28370       -1.65720        2.76160
C          4.50200       -2.56100        5.38290
C          3.08620       -2.20750        5.84360
C          6.37220        0.62920        0.22200
S          7.96810        0.61210        0.91520
C          2.71480       -0.08920        0.53030
C          1.74450        0.19540       -0.38720
S          2.41790        0.86810       -1.85800
C          0.32940        0.08340       -0.27790
C         -0.49800        0.15830        0.83880
N         -0.11980        0.36700        2.15220
C         -0.89440       -0.23880        3.15910
C         -1.24410        0.46950        4.30390
C         -2.02290       -0.11550        5.28310
C         -2.47240       -1.42010        5.12640
S         -3.48620       -2.26780        6.29570
C         -3.82430       -1.02240        7.57240
C         -2.11410       -2.13640        3.98600
C         -1.32990       -1.55660        3.01530
C          0.98710        1.14420        2.50380
C          1.75000        0.80770        3.62480
C          2.91260        1.48780        3.90640
C          3.34480        2.51780        3.07590
S          4.89420        3.27620        3.45470
C          5.45220        3.86620        1.82990
C          2.55370        2.90740        2.00470
C          1.38510        2.22780        1.72400
C         -1.85950        0.01530        0.45760
S         -3.36120        0.00440        1.31990
C         -4.23030       -0.22660       -0.16870
C         -3.41130       -0.28700       -1.27280
N         -3.88620       -0.48860       -2.56800
C         -4.83030       -1.51640       -2.74410
C         -4.55870       -2.78190       -2.23350
C         -5.50050       -3.78970       -2.30310
C         -6.73530       -3.54380       -2.88850
S         -8.03510       -4.73620       -2.96510
C         -7.17910       -6.31370       -2.67940
C         -7.00020       -2.28690       -3.42980
C         -6.05600       -1.28580       -3.36790
C         -3.39280        0.26700       -3.62550
C         -3.45430       -0.21260       -4.93270
C         -2.94840        0.52980       -5.98140
C         -2.35200        1.76000       -5.74240
S         -1.67020        2.78380       -7.01290
C         -1.39040        1.62110       -8.37960
C         -2.30020        2.25120       -4.44130
C         -2.82000        1.52150       -3.39640
C         -2.05430       -0.14240       -0.90370
S         -0.57200       -0.10280       -1.77850
C         -5.68830       -0.36220       -0.22380
C         -6.43550        0.72630       -0.71000
S         -5.49020        2.16860       -1.11820
C         -6.05850        2.60390       -2.81400
C         -5.61630        4.01540       -3.14010
C         -7.82760        0.63700       -0.81480
S         -8.92410        1.95250       -1.28080
C         -8.43180        3.34950       -0.19940
C         -8.87530        3.13630        1.23180
C         -8.43620       -0.60190       -0.59210
C         -7.68790       -1.69160       -0.15430
C         -6.31090       -1.57330        0.09080
C         -5.52930       -2.72560        0.59170
O         -4.33230       -2.69240        0.80930
C         -6.31690       -3.94670        0.80840
C         -7.71320       -4.05090        0.52970
C         -8.46580       -2.91750        0.02360
O         -9.65820       -2.93790       -0.25520
C         -8.20560       -5.29930        0.79430
S         -6.99380       -6.35300        1.38720
C         -5.80430       -5.12200        1.27900
C         -9.87520       -0.77790       -0.81860
C        -10.80070       -0.35040        0.07610
C        -10.43100        0.01100        1.45550
O         -9.31250        0.09990        1.91360
C        -11.71560        0.18120        2.17090
C        -11.92300        0.45260        3.51190
Cl       -10.62060        0.81290        4.55430
C        -13.23530        0.42030        4.00190
Cl       -13.54360        0.78100        5.64430
C        -14.28420        0.05160        3.16030
Cl       -15.86330       -0.08010        3.80340
C        -14.06820       -0.22610        1.80060
Cl       -15.37910       -0.83200        0.87750
C        -12.78310       -0.09020        1.28730
C        -12.24320       -0.25610       -0.06000
C        -12.89740       -0.11580       -1.25220
C        -14.21970        0.33970       -1.44650
N        -15.23690        0.79370       -1.72210
C        -12.25440       -0.25300       -2.50460
N        -11.80060       -0.35250       -3.55380
H         10.18000        1.92810       -1.80600
H          7.90760        1.90780       -2.47500
H          3.28270        2.84740       -3.24270
H          2.99060        4.32210       -5.46410
H          3.65870        3.66090       -6.96120
H          2.23250        1.62890       -6.69670
H          1.58860        2.26720       -5.18700
H          1.24200        3.09330       -6.70750
H          7.06460        2.00120       -7.00640
H          5.73170        3.03000       -7.54460
H          5.64820       -0.02350       -7.36260
H          4.32230        1.00130       -7.91760
H          5.81980        0.91320       -8.85080
H          6.77570        0.90920        3.13600
H          6.89440       -1.16630        6.27050
H          7.70480        0.09780        5.33960
H          5.84300        1.68070        5.87820
H          5.06400        0.42350        6.84740
H          6.62810        1.07480        7.33990
H          4.49770       -3.57550        4.97520
H          5.17950       -2.54140        6.23800
H          3.05830       -1.19880        6.25060
H          2.75490       -2.90100        6.61270
H          2.39390       -2.26310        5.00600
H          2.49880       -0.55450        1.47100
H         -0.90720        1.48860        4.42330
H         -2.27970        0.46280        6.15570
H         -2.89980       -0.72370        8.05770
H         -4.47490       -1.51090        8.29120
H         -4.33480       -0.17100        7.13190
H         -2.46040       -3.15150        3.87170
H         -1.05550       -2.11960        2.13620
H          1.44320       -0.01690        4.25010
H          3.51810        1.20610        4.75290
H          4.95030        4.79310        1.56770
H          5.26700        3.09510        1.08780
H          6.51910        4.04280        1.92510
H          2.84300        3.73490        1.37620
H          0.77950        2.53490        0.88450
H         -3.60500       -2.96970       -1.76370
H         -5.25880       -4.75940       -1.89810
H         -7.90860       -7.08560       -2.90320
H         -6.86450       -6.39810       -1.64300
H         -6.33340       -6.39580       -3.35500
H         -7.95730       -2.10560       -3.89430
H         -6.27040       -0.31780       -3.79530
H         -3.89850       -1.17750       -5.12720
H         -3.01920        0.13180       -6.98100
H         -2.33370        1.34270       -8.84060
H         -0.77550        2.15210       -9.09950
H         -0.86030        0.74970       -8.00730
H         -1.84920        3.21490       -4.26130
H         -2.79200        1.92420       -2.39560
H         -7.14100        2.50490       -2.85670
H         -5.58830        1.88750       -3.48650
H         -6.06920        4.73090       -2.45780
H         -4.53460        4.10180       -3.07050
H         -5.91760        4.26220       -4.15540
H         -7.35380        3.48020       -0.26710
H         -8.93220        4.20650       -0.65010
H         -8.56250        3.98450        1.83740
H         -8.43270        2.23240        1.64540
H         -9.95870        3.04700        1.29110
H         -9.21410       -5.63860        0.66280
H         -4.78970       -5.31630        1.56580
H        -10.16110       -1.12250       -1.80320
