
  xtb     02042212203D
 energy: -270.009832183509 gnorm: 0.000573331497 xtb: 6.4.1 (unknown)
140151  0     0  0            999 V2000
    1.2378    3.9271    5.8039 C   0  0  0  0  0  0  0  0  0  0  0  0
    1.6074    3.6381    7.0905 C   0  0  0  0  0  0  0  0  0  0  0  0
    2.6434    2.6988    7.5477 C   0  0  0  0  0  0  0  0  0  0  0  0
    3.3503    1.9625    6.8861 O   0  0  0  0  0  0  0  0  0  0  0  0
    2.6941    2.8452    9.0226 C   0  0  0  0  0  0  0  0  0  0  0  0
    3.5719    2.2670    9.9211 C   0  0  0  0  0  0  0  0  0  0  0  0
    4.6973    1.0773    9.4344 Cl  0  0  0  0  0  0  0  0  0  0  0  0
    3.5310    2.6871   11.2570 C   0  0  0  0  0  0  0  0  0  0  0  0
    4.5779    1.9764   12.4094 Cl  0  0  0  0  0  0  0  0  0  0  0  0
    2.6717    3.7156   11.6398 C   0  0  0  0  0  0  0  0  0  0  0  0
    2.7149    4.2879   13.2515 Cl  0  0  0  0  0  0  0  0  0  0  0  0
    1.7813    4.2982   10.7238 C   0  0  0  0  0  0  0  0  0  0  0  0
    0.8837    5.6737   11.2182 Cl  0  0  0  0  0  0  0  0  0  0  0  0
    1.7445    3.8025    9.4276 C   0  0  0  0  0  0  0  0  0  0  0  0
    0.9135    4.1271    8.2716 C   0  0  0  0  0  0  0  0  0  0  0  0
   -0.3858    4.5560    8.3259 C   0  0  0  0  0  0  0  0  0  0  0  0
   -1.1597    4.6533    9.5038 C   0  0  0  0  0  0  0  0  0  0  0  0
   -1.8953    4.6693   10.3843 N   0  0  0  0  0  0  0  0  0  0  0  0
   -1.2209    4.7818    7.2097 C   0  0  0  0  0  0  0  0  0  0  0  0
   -1.9743    4.9870    6.3673 N   0  0  0  0  0  0  0  0  0  0  0  0
    1.7279    3.4185    4.5876 C   0  0  0  0  0  0  0  0  0  0  0  0
    2.8925    2.7720    4.2181 C   0  0  0  0  0  0  0  0  0  0  0  0
    2.8394    2.2089    2.9429 C   0  0  0  0  0  0  0  0  0  0  0  0
    4.0914    1.2591    2.1697 S   0  0  0  0  0  0  0  0  0  0  0  0
    5.2581    0.8849    3.5273 C   0  0  0  0  0  0  0  0  0  0  0  0
    4.6875   -0.0779    4.5487 C   0  0  0  0  0  0  0  0  0  0  0  0
    1.6042    2.3970    2.3180 C   0  0  0  0  0  0  0  0  0  0  0  0
    0.6035    3.4655    3.2444 S   0  0  0  0  0  0  0  0  0  0  0  0
    1.0863    1.7513    1.1637 C   0  0  0  0  0  0  0  0  0  0  0  0
   -0.2031    1.2423    1.0081 C   0  0  0  0  0  0  0  0  0  0  0  0
   -1.1619    1.1405    1.9975 N   0  0  0  0  0  0  0  0  0  0  0  0
   -2.5165    1.2289    1.6295 C   0  0  0  0  0  0  0  0  0  0  0  0
   -2.9320    2.1713    0.6947 C   0  0  0  0  0  0  0  0  0  0  0  0
   -4.2569    2.2456    0.3103 C   0  0  0  0  0  0  0  0  0  0  0  0
   -5.1898    1.3795    0.8644 C   0  0  0  0  0  0  0  0  0  0  0  0
   -6.9030    1.3703    0.4557 S   0  0  0  0  0  0  0  0  0  0  0  0
   -7.0528    2.6263   -0.8462 C   0  0  0  0  0  0  0  0  0  0  0  0
   -4.7774    0.4452    1.8154 C   0  0  0  0  0  0  0  0  0  0  0  0
   -3.4573    0.3670    2.1928 C   0  0  0  0  0  0  0  0  0  0  0  0
   -0.8275    0.9423    3.3412 C   0  0  0  0  0  0  0  0  0  0  0  0
   -1.5776    1.5574    4.3485 C   0  0  0  0  0  0  0  0  0  0  0  0
   -1.1948    1.4513    5.6660 C   0  0  0  0  0  0  0  0  0  0  0  0
   -0.0546    0.7301    6.0163 C   0  0  0  0  0  0  0  0  0  0  0  0
    0.3934    0.7386    7.7248 S   0  0  0  0  0  0  0  0  0  0  0  0
    1.7152   -0.4949    7.8426 C   0  0  0  0  0  0  0  0  0  0  0  0
    0.6648    0.0722    5.0262 C   0  0  0  0  0  0  0  0  0  0  0  0
    0.2773    0.1725    3.7054 C   0  0  0  0  0  0  0  0  0  0  0  0
   -0.3842    0.7411   -0.3055 C   0  0  0  0  0  0  0  0  0  0  0  0
   -1.7097   -0.0022   -1.1353 S   0  0  0  0  0  0  0  0  0  0  0  0
   -0.7356   -0.1448   -2.5819 C   0  0  0  0  0  0  0  0  0  0  0  0
    0.5722    0.2759   -2.3983 C   0  0  0  0  0  0  0  0  0  0  0  0
    1.5794    0.0966   -3.3335 N   0  0  0  0  0  0  0  0  0  0  0  0
    2.6034    1.0455   -3.4351 C   0  0  0  0  0  0  0  0  0  0  0  0
    3.9147    0.6526   -3.7063 C   0  0  0  0  0  0  0  0  0  0  0  0
    4.9167    1.5917   -3.7838 C   0  0  0  0  0  0  0  0  0  0  0  0
    4.6402    2.9438   -3.5837 C   0  0  0  0  0  0  0  0  0  0  0  0
    6.0095    4.0498   -3.7003 S   0  0  0  0  0  0  0  0  0  0  0  0
    5.3271    5.6451   -3.1667 C   0  0  0  0  0  0  0  0  0  0  0  0
    3.3363    3.3400   -3.3220 C   0  0  0  0  0  0  0  0  0  0  0  0
    2.3282    2.3979   -3.2537 C   0  0  0  0  0  0  0  0  0  0  0  0
    1.6025   -1.0753   -4.1047 C   0  0  0  0  0  0  0  0  0  0  0  0
    1.9671   -1.0390   -5.4485 C   0  0  0  0  0  0  0  0  0  0  0  0
    1.9019   -2.1782   -6.2281 C   0  0  0  0  0  0  0  0  0  0  0  0
    1.4645   -3.3757   -5.6778 C   0  0  0  0  0  0  0  0  0  0  0  0
    1.1943   -4.8594   -6.6095 S   0  0  0  0  0  0  0  0  0  0  0  0
    2.1504   -4.5953   -8.1335 C   0  0  0  0  0  0  0  0  0  0  0  0
    1.1603   -3.4331   -4.3212 C   0  0  0  0  0  0  0  0  0  0  0  0
    1.2337   -2.2990   -3.5435 C   0  0  0  0  0  0  0  0  0  0  0  0
    0.7502    0.8131   -1.0999 C   0  0  0  0  0  0  0  0  0  0  0  0
    2.0901    1.5093   -0.2598 S   0  0  0  0  0  0  0  0  0  0  0  0
   -1.2495   -0.6619   -3.8179 C   0  0  0  0  0  0  0  0  0  0  0  0
   -1.0953   -0.0486   -5.0408 C   0  0  0  0  0  0  0  0  0  0  0  0
   -1.4962   -0.8498   -6.1081 C   0  0  0  0  0  0  0  0  0  0  0  0
   -1.4255   -0.1975   -7.7353 S   0  0  0  0  0  0  0  0  0  0  0  0
   -0.6093   -1.4927   -8.7609 C   0  0  0  0  0  0  0  0  0  0  0  0
    0.5056   -0.8495   -9.5638 C   0  0  0  0  0  0  0  0  0  0  0  0
   -1.9301   -2.1240   -5.7122 C   0  0  0  0  0  0  0  0  0  0  0  0
   -1.8833   -2.2640   -3.9683 S   0  0  0  0  0  0  0  0  0  0  0  0
   -2.2763   -3.1427   -6.6096 C   0  0  0  0  0  0  0  0  0  0  0  0
   -2.3026   -4.4997   -6.4178 C   0  0  0  0  0  0  0  0  0  0  0  0
   -2.0242   -5.1885   -5.1570 C   0  0  0  0  0  0  0  0  0  0  0  0
   -2.0304   -4.7164   -4.0381 O   0  0  0  0  0  0  0  0  0  0  0  0
   -1.7255   -6.5890   -5.5254 C   0  0  0  0  0  0  0  0  0  0  0  0
   -1.2193   -7.5983   -4.7280 C   0  0  0  0  0  0  0  0  0  0  0  0
   -1.0039   -7.3820   -3.0504 Cl  0  0  0  0  0  0  0  0  0  0  0  0
   -0.8608   -8.8082   -5.3390 C   0  0  0  0  0  0  0  0  0  0  0  0
   -0.2586  -10.0969   -4.3916 Cl  0  0  0  0  0  0  0  0  0  0  0  0
   -0.9493   -8.9428   -6.7230 C   0  0  0  0  0  0  0  0  0  0  0  0
   -0.4104  -10.3906   -7.4575 Cl  0  0  0  0  0  0  0  0  0  0  0  0
   -1.4505   -7.9068   -7.5280 C   0  0  0  0  0  0  0  0  0  0  0  0
   -1.3465   -8.0828   -9.2301 Cl  0  0  0  0  0  0  0  0  0  0  0  0
   -1.9088   -6.7485   -6.9141 C   0  0  0  0  0  0  0  0  0  0  0  0
   -2.4498   -5.5038   -7.4546 C   0  0  0  0  0  0  0  0  0  0  0  0
   -3.0941   -5.3379   -8.6535 C   0  0  0  0  0  0  0  0  0  0  0  0
   -3.5928   -6.3756   -9.4706 C   0  0  0  0  0  0  0  0  0  0  0  0
   -4.1335   -7.1358  -10.1390 N   0  0  0  0  0  0  0  0  0  0  0  0
   -3.4708   -4.0871   -9.1864 C   0  0  0  0  0  0  0  0  0  0  0  0
   -3.7434   -3.1042   -9.7151 N   0  0  0  0  0  0  0  0  0  0  0  0
    0.3860    4.5840    5.6825 H   0  0  0  0  0  0  0  0  0  0  0  0
    3.7322    2.6978    4.8802 H   0  0  0  0  0  0  0  0  0  0  0  0
    5.5734    1.8246    3.9777 H   0  0  0  0  0  0  0  0  0  0  0  0
    6.1070    0.4437    3.0038 H   0  0  0  0  0  0  0  0  0  0  0  0
    3.8815    0.3875    5.1092 H   0  0  0  0  0  0  0  0  0  0  0  0
    4.3119   -0.9730    4.0573 H   0  0  0  0  0  0  0  0  0  0  0  0
    5.4677   -0.3657    5.2505 H   0  0  0  0  0  0  0  0  0  0  0  0
   -2.2123    2.8569    0.2720 H   0  0  0  0  0  0  0  0  0  0  0  0
   -4.5461    2.9881   -0.4153 H   0  0  0  0  0  0  0  0  0  0  0  0
   -6.4232    2.3610   -1.6904 H   0  0  0  0  0  0  0  0  0  0  0  0
   -8.0962    2.6113   -1.1457 H   0  0  0  0  0  0  0  0  0  0  0  0
   -6.7983    3.6056   -0.4515 H   0  0  0  0  0  0  0  0  0  0  0  0
   -5.5083   -0.2227    2.2440 H   0  0  0  0  0  0  0  0  0  0  0  0
   -3.1419   -0.3649    2.9209 H   0  0  0  0  0  0  0  0  0  0  0  0
   -2.4418    2.1478    4.0877 H   0  0  0  0  0  0  0  0  0  0  0  0
   -1.7662    1.9465    6.4354 H   0  0  0  0  0  0  0  0  0  0  0  0
    2.6086   -0.1202    7.3477 H   0  0  0  0  0  0  0  0  0  0  0  0
    1.9065   -0.6174    8.9043 H   0  0  0  0  0  0  0  0  0  0  0  0
    1.3803   -1.4344    7.4146 H   0  0  0  0  0  0  0  0  0  0  0  0
    1.5344   -0.5156    5.2705 H   0  0  0  0  0  0  0  0  0  0  0  0
    0.8470   -0.3407    2.9448 H   0  0  0  0  0  0  0  0  0  0  0  0
    4.1411   -0.3941   -3.8430 H   0  0  0  0  0  0  0  0  0  0  0  0
    5.9324    1.2896   -3.9878 H   0  0  0  0  0  0  0  0  0  0  0  0
    4.5951    6.0002   -3.8863 H   0  0  0  0  0  0  0  0  0  0  0  0
    6.1706    6.3276   -3.1354 H   0  0  0  0  0  0  0  0  0  0  0  0
    4.8941    5.5455   -2.1758 H   0  0  0  0  0  0  0  0  0  0  0  0
    3.0865    4.3782   -3.1768 H   0  0  0  0  0  0  0  0  0  0  0  0
    1.3138    2.7164   -3.0640 H   0  0  0  0  0  0  0  0  0  0  0  0
    2.2829   -0.1055   -5.8900 H   0  0  0  0  0  0  0  0  0  0  0  0
    2.1812   -2.1164   -7.2678 H   0  0  0  0  0  0  0  0  0  0  0  0
    1.6621   -3.8615   -8.7684 H   0  0  0  0  0  0  0  0  0  0  0  0
    3.1605   -4.2887   -7.8803 H   0  0  0  0  0  0  0  0  0  0  0  0
    2.1685   -5.5578   -8.6351 H   0  0  0  0  0  0  0  0  0  0  0  0
    0.8472   -4.3694   -3.8868 H   0  0  0  0  0  0  0  0  0  0  0  0
    0.9883   -2.3551   -2.4940 H   0  0  0  0  0  0  0  0  0  0  0  0
   -0.7038    0.9445   -5.1685 H   0  0  0  0  0  0  0  0  0  0  0  0
   -0.2308   -2.2482   -8.0752 H   0  0  0  0  0  0  0  0  0  0  0  0
   -1.3628   -1.9217   -9.4222 H   0  0  0  0  0  0  0  0  0  0  0  0
    0.1050   -0.0704  -10.2074 H   0  0  0  0  0  0  0  0  0  0  0  0
    1.2458   -0.4023   -8.9039 H   0  0  0  0  0  0  0  0  0  0  0  0
    0.9917   -1.5956  -10.1903 H   0  0  0  0  0  0  0  0  0  0  0  0
   -2.4366   -2.7961   -7.6212 H   0  0  0  0  0  0  0  0  0  0  0  0
  1  2  2  0  0  0  0
  2  3  1  0  0  0  0
  3  4  2  0  0  0  0
  3  5  1  0  0  0  0
  5  6  2  0  0  0  0
  6  7  1  0  0  0  0
  6  8  1  0  0  0  0
  8  9  1  0  0  0  0
  8 10  2  0  0  0  0
 10 11  1  0  0  0  0
 10 12  1  0  0  0  0
 12 13  1  0  0  0  0
 12 14  2  0  0  0  0
 14 15  1  0  0  0  0
 15 16  2  0  0  0  0
 16 17  1  0  0  0  0
 17 18  3  0  0  0  0
 16 19  1  0  0  0  0
 19 20  3  0  0  0  0
  1 21  1  0  0  0  0
 21 22  2  0  0  0  0
 22 23  1  0  0  0  0
 23 24  1  0  0  0  0
 24 25  1  0  0  0  0
 25 26  1  0  0  0  0
 23 27  2  0  0  0  0
 27 28  1  0  0  0  0
 27 29  1  0  0  0  0
 29 30  2  0  0  0  0
 30 31  1  0  0  0  0
 31 32  1  0  0  0  0
 32 33  2  0  0  0  0
 33 34  1  0  0  0  0
 34 35  2  0  0  0  0
 35 36  1  0  0  0  0
 36 37  1  0  0  0  0
 35 38  1  0  0  0  0
 38 39  2  0  0  0  0
 31 40  1  0  0  0  0
 40 41  2  0  0  0  0
 41 42  1  0  0  0  0
 42 43  2  0  0  0  0
 43 44  1  0  0  0  0
 44 45  1  0  0  0  0
 43 46  1  0  0  0  0
 46 47  2  0  0  0  0
 30 48  1  0  0  0  0
 48 49  1  0  0  0  0
 49 50  1  0  0  0  0
 50 51  2  0  0  0  0
 51 52  1  0  0  0  0
 52 53  1  0  0  0  0
 53 54  2  0  0  0  0
 54 55  1  0  0  0  0
 55 56  2  0  0  0  0
 56 57  1  0  0  0  0
 57 58  1  0  0  0  0
 56 59  1  0  0  0  0
 59 60  2  0  0  0  0
 52 61  1  0  0  0  0
 61 62  2  0  0  0  0
 62 63  1  0  0  0  0
 63 64  2  0  0  0  0
 64 65  1  0  0  0  0
 65 66  1  0  0  0  0
 64 67  1  0  0  0  0
 67 68  2  0  0  0  0
 51 69  1  0  0  0  0
 69 70  1  0  0  0  0
 50 71  1  0  0  0  0
 71 72  2  0  0  0  0
 72 73  1  0  0  0  0
 73 74  1  0  0  0  0
 74 75  1  0  0  0  0
 75 76  1  0  0  0  0
 73 77  2  0  0  0  0
 77 78  1  0  0  0  0
 77 79  1  0  0  0  0
 79 80  2  0  0  0  0
 80 81  1  0  0  0  0
 81 82  2  0  0  0  0
 81 83  1  0  0  0  0
 83 84  2  0  0  0  0
 84 85  1  0  0  0  0
 84 86  1  0  0  0  0
 86 87  1  0  0  0  0
 86 88  2  0  0  0  0
 88 89  1  0  0  0  0
 88 90  1  0  0  0  0
 90 91  1  0  0  0  0
 90 92  2  0  0  0  0
 92 93  1  0  0  0  0
 93 94  2  0  0  0  0
 94 95  1  0  0  0  0
 95 96  3  0  0  0  0
 94 97  1  0  0  0  0
 97 98  3  0  0  0  0
 15  2  1  0  0  0  0
 28 21  1  0  0  0  0
 70 29  1  0  0  0  0
 78 71  1  0  0  0  0
 93 80  1  0  0  0  0
 14  5  1  0  0  0  0
 39 32  1  0  0  0  0
 47 40  1  0  0  0  0
 69 48  2  0  0  0  0
 92 83  1  0  0  0  0
 60 53  1  0  0  0  0
 68 61  1  0  0  0  0
  1 99  1  0  0  0  0
 22100  1  0  0  0  0
 25101  1  0  0  0  0
 25102  1  0  0  0  0
 26103  1  0  0  0  0
 26104  1  0  0  0  0
 26105  1  0  0  0  0
 33106  1  0  0  0  0
 34107  1  0  0  0  0
 37108  1  0  0  0  0
 37109  1  0  0  0  0
 37110  1  0  0  0  0
 38111  1  0  0  0  0
 39112  1  0  0  0  0
 41113  1  0  0  0  0
 42114  1  0  0  0  0
 45115  1  0  0  0  0
 45116  1  0  0  0  0
 45117  1  0  0  0  0
 46118  1  0  0  0  0
 47119  1  0  0  0  0
 54120  1  0  0  0  0
 55121  1  0  0  0  0
 58122  1  0  0  0  0
 58123  1  0  0  0  0
 58124  1  0  0  0  0
 59125  1  0  0  0  0
 60126  1  0  0  0  0
 62127  1  0  0  0  0
 63128  1  0  0  0  0
 66129  1  0  0  0  0
 66130  1  0  0  0  0
 66131  1  0  0  0  0
 67132  1  0  0  0  0
 68133  1  0  0  0  0
 72134  1  0  0  0  0
 75135  1  0  0  0  0
 75136  1  0  0  0  0
 76137  1  0  0  0  0
 76138  1  0  0  0  0
 76139  1  0  0  0  0
 79140  1  0  0  0  0
M  END
