
  xtb     02042206163D
 energy: -280.511614198451 gnorm: 0.000926759092 xtb: 6.4.1 (unknown)
151167  0     0  0            999 V2000
    0.7418   -0.3924    8.7553 C   0  0  0  0  0  0  0  0  0  0  0  0
    2.0560   -0.5654    9.0857 C   0  0  0  0  0  0  0  0  0  0  0  0
    2.6846    0.2291   10.1611 C   0  0  0  0  0  0  0  0  0  0  0  0
    2.1252    0.9263   10.9748 O   0  0  0  0  0  0  0  0  0  0  0  0
    4.1458    0.0604    9.9522 C   0  0  0  0  0  0  0  0  0  0  0  0
    5.1935    0.7049   10.5860 C   0  0  0  0  0  0  0  0  0  0  0  0
    4.9237    1.7596   11.9001 Cl  0  0  0  0  0  0  0  0  0  0  0  0
    6.4960    0.4759   10.1167 C   0  0  0  0  0  0  0  0  0  0  0  0
    7.8223    1.2324   10.8864 Cl  0  0  0  0  0  0  0  0  0  0  0  0
    6.7093   -0.3358    9.0038 C   0  0  0  0  0  0  0  0  0  0  0  0
    8.2960   -0.5283    8.3965 Cl  0  0  0  0  0  0  0  0  0  0  0  0
    5.6433   -0.9893    8.3638 C   0  0  0  0  0  0  0  0  0  0  0  0
    5.9466   -1.8509    6.9109 Cl  0  0  0  0  0  0  0  0  0  0  0  0
    4.3657   -0.8308    8.8801 C   0  0  0  0  0  0  0  0  0  0  0  0
    3.0778   -1.4018    8.4926 C   0  0  0  0  0  0  0  0  0  0  0  0
    2.8408   -2.6580    7.9976 C   0  0  0  0  0  0  0  0  0  0  0  0
    3.7927   -3.6419    7.6655 C   0  0  0  0  0  0  0  0  0  0  0  0
    4.4634   -4.5413    7.4220 N   0  0  0  0  0  0  0  0  0  0  0  0
    1.5367   -3.1995    7.9283 C   0  0  0  0  0  0  0  0  0  0  0  0
    0.5015   -3.6945    7.8941 N   0  0  0  0  0  0  0  0  0  0  0  0
    0.1212   -0.7046    7.5294 C   0  0  0  0  0  0  0  0  0  0  0  0
   -1.2374   -0.7791    7.2814 C   0  0  0  0  0  0  0  0  0  0  0  0
   -1.5507   -1.0494    5.9500 C   0  0  0  0  0  0  0  0  0  0  0  0
   -3.1476   -1.3835    5.3049 S   0  0  0  0  0  0  0  0  0  0  0  0
   -3.9887   -2.1051    6.7598 C   0  0  0  0  0  0  0  0  0  0  0  0
   -3.3439   -3.3991    7.2153 C   0  0  0  0  0  0  0  0  0  0  0  0
   -0.4264   -1.1070    5.1313 C   0  0  0  0  0  0  0  0  0  0  0  0
    1.0297   -0.9295    6.0530 S   0  0  0  0  0  0  0  0  0  0  0  0
   -0.3789   -1.1980    3.7169 C   0  0  0  0  0  0  0  0  0  0  0  0
   -1.1594   -0.4948    2.8022 C   0  0  0  0  0  0  0  0  0  0  0  0
   -2.0564    0.5042    3.1066 N   0  0  0  0  0  0  0  0  0  0  0  0
   -3.0998    0.7272    2.1913 C   0  0  0  0  0  0  0  0  0  0  0  0
   -3.3619    2.0017    1.7012 C   0  0  0  0  0  0  0  0  0  0  0  0
   -4.2858    2.1815    0.6904 C   0  0  0  0  0  0  0  0  0  0  0  0
   -4.9581    1.0882    0.1592 C   0  0  0  0  0  0  0  0  0  0  0  0
   -6.0828    1.2011   -1.1964 S   0  0  0  0  0  0  0  0  0  0  0  0
   -5.6013    2.7578   -2.0001 C   0  0  0  0  0  0  0  0  0  0  0  0
   -4.7569   -0.1766    0.7058 C   0  0  0  0  0  0  0  0  0  0  0  0
   -3.8363   -0.3567    1.7129 C   0  0  0  0  0  0  0  0  0  0  0  0
   -1.8563    1.3526    4.2035 C   0  0  0  0  0  0  0  0  0  0  0  0
   -0.5720    1.7189    4.5977 C   0  0  0  0  0  0  0  0  0  0  0  0
   -0.3652    2.4191    5.7697 C   0  0  0  0  0  0  0  0  0  0  0  0
   -1.4467    2.7762    6.5637 C   0  0  0  0  0  0  0  0  0  0  0  0
   -1.2928    3.5534    8.1403 S   0  0  0  0  0  0  0  0  0  0  0  0
    0.4741    3.4040    8.5258 C   0  0  0  0  0  0  0  0  0  0  0  0
   -2.7394    2.5048    6.1168 C   0  0  0  0  0  0  0  0  0  0  0  0
   -2.9448    1.8046    4.9493 C   0  0  0  0  0  0  0  0  0  0  0  0
   -0.8123   -0.8505    1.4775 C   0  0  0  0  0  0  0  0  0  0  0  0
   -1.4274   -0.4010   -0.0713 S   0  0  0  0  0  0  0  0  0  0  0  0
   -0.2008   -1.3809   -0.8694 C   0  0  0  0  0  0  0  0  0  0  0  0
    0.5681   -2.1211    0.0496 C   0  0  0  0  0  0  0  0  0  0  0  0
    1.4677   -3.1308   -0.1943 N   0  0  0  0  0  0  0  0  0  0  0  0
    1.4123   -3.9778   -1.2933 C   0  0  0  0  0  0  0  0  0  0  0  0
    0.2122   -4.2210   -1.9658 C   0  0  0  0  0  0  0  0  0  0  0  0
    0.1969   -4.9310   -3.1464 C   0  0  0  0  0  0  0  0  0  0  0  0
    1.3798   -5.4483   -3.6680 C   0  0  0  0  0  0  0  0  0  0  0  0
    1.4835   -6.2517   -5.2260 S   0  0  0  0  0  0  0  0  0  0  0  0
    0.0103   -5.6512   -6.0966 C   0  0  0  0  0  0  0  0  0  0  0  0
    2.5562   -5.3277   -2.9248 C   0  0  0  0  0  0  0  0  0  0  0  0
    2.5742   -4.6083   -1.7542 C   0  0  0  0  0  0  0  0  0  0  0  0
    2.5022   -3.2921    0.7547 C   0  0  0  0  0  0  0  0  0  0  0  0
    3.2862   -2.1950    1.1112 C   0  0  0  0  0  0  0  0  0  0  0  0
    4.2601   -2.3277    2.0736 C   0  0  0  0  0  0  0  0  0  0  0  0
    4.4713   -3.5561    2.7019 C   0  0  0  0  0  0  0  0  0  0  0  0
    5.7195   -3.5912    3.9391 S   0  0  0  0  0  0  0  0  0  0  0  0
    5.6822   -5.2873    4.5755 C   0  0  0  0  0  0  0  0  0  0  0  0
    3.7072   -4.6559    2.3280 C   0  0  0  0  0  0  0  0  0  0  0  0
    2.7314   -4.5230    1.3597 C   0  0  0  0  0  0  0  0  0  0  0  0
    0.2262   -1.7599    1.3780 C   0  0  0  0  0  0  0  0  0  0  0  0
    0.8270   -2.2136    2.9405 S   0  0  0  0  0  0  0  0  0  0  0  0
   -0.1578   -1.2769   -2.2816 C   0  0  0  0  0  0  0  0  0  0  0  0
   -1.2877   -0.7840   -2.9825 C   0  0  0  0  0  0  0  0  0  0  0  0
   -1.3854   -0.7461   -4.4224 C   0  0  0  0  0  0  0  0  0  0  0  0
   -2.6005   -0.3687   -4.8195 N   0  0  0  0  0  0  0  0  0  0  0  0
   -3.4968   -0.0218   -3.5391 S   0  0  0  0  0  4  0  0  0  0  0  0
   -2.4167   -0.3787   -2.4011 N   0  0  0  0  0  0  0  0  0  0  0  0
   -0.3156   -1.1415   -5.2542 C   0  0  0  0  0  0  0  0  0  0  0  0
    0.8331   -1.5831   -4.5602 C   0  0  0  0  0  0  0  0  0  0  0  0
    1.9807   -1.9329   -5.1410 N   0  0  0  0  0  0  0  0  0  0  0  0
    3.0763   -2.2351   -4.0054 S   0  0  0  0  0  0  0  0  0  0  0  0
    2.1598   -1.9513   -2.7158 N   0  0  0  0  0  0  0  0  0  0  0  0
    0.9316   -1.6136   -3.1157 C   0  0  0  0  0  0  0  0  0  0  0  0
   -0.3539   -1.1457   -6.6686 C   0  0  0  0  0  0  0  0  0  0  0  0
   -1.0468   -0.2676   -7.4561 C   0  0  0  0  0  0  0  0  0  0  0  0
   -1.4593    1.0952   -7.0477 C   0  0  0  0  0  0  0  0  0  0  0  0
   -1.3628    1.6154   -5.9553 O   0  0  0  0  0  0  0  0  0  0  0  0
   -1.8772    1.7700   -8.2952 C   0  0  0  0  0  0  0  0  0  0  0  0
   -2.3089    3.0871   -8.4259 C   0  0  0  0  0  0  0  0  0  0  0  0
   -2.5916    3.4597   -9.7183 C   0  0  0  0  0  0  0  0  0  0  0  0
   -2.4522    2.5877  -10.8058 C   0  0  0  0  0  0  0  0  0  0  0  0
   -2.0269    1.2853  -10.6920 C   0  0  0  0  0  0  0  0  0  0  0  0
   -1.7337    0.8881   -9.3849 C   0  0  0  0  0  0  0  0  0  0  0  0
   -1.2596   -0.3958   -8.8781 C   0  0  0  0  0  0  0  0  0  0  0  0
   -1.1417   -1.5590   -9.5985 C   0  0  0  0  0  0  0  0  0  0  0  0
   -0.8361   -2.8111   -9.0296 C   0  0  0  0  0  0  0  0  0  0  0  0
   -0.6330   -3.8711   -8.6343 N   0  0  0  0  0  0  0  0  0  0  0  0
   -1.3652   -1.6670  -10.9851 C   0  0  0  0  0  0  0  0  0  0  0  0
   -1.5256   -1.8222  -12.1119 N   0  0  0  0  0  0  0  0  0  0  0  0
   -2.8853    3.6335  -11.8027 C   0  0  0  0  0  0  0  0  0  0  0  0
   -1.7866    4.3177  -12.6533 C   0  0  0  0  0  0  0  0  0  0  0  0
   -0.5146    4.2504  -11.8452 C   0  0  0  0  0  0  0  0  0  0  0  0
   -0.6453    5.0753  -10.8149 C   0  0  0  0  0  0  0  0  0  0  0  0
   -2.0082    5.7158  -10.9081 C   0  0  0  0  0  0  0  0  0  0  0  0
   -2.1680    5.7907  -12.4350 C   0  0  0  0  0  0  0  0  0  0  0  0
   -3.0406    4.6054  -10.5908 C   0  0  0  0  0  0  0  0  0  0  0  0
    0.1300    0.1295    9.4840 H   0  0  0  0  0  0  0  0  0  0  0  0
   -1.9617   -0.6630    8.0666 H   0  0  0  0  0  0  0  0  0  0  0  0
   -5.0057   -2.2754    6.4063 H   0  0  0  0  0  0  0  0  0  0  0  0
   -4.0148   -1.3519    7.5461 H   0  0  0  0  0  0  0  0  0  0  0  0
   -3.3540   -4.1291    6.4093 H   0  0  0  0  0  0  0  0  0  0  0  0
   -3.8977   -3.8051    8.0592 H   0  0  0  0  0  0  0  0  0  0  0  0
   -2.3118   -3.2433    7.5227 H   0  0  0  0  0  0  0  0  0  0  0  0
   -2.8180    2.8477    2.0948 H   0  0  0  0  0  0  0  0  0  0  0  0
   -4.4590    3.1758    0.3115 H   0  0  0  0  0  0  0  0  0  0  0  0
   -5.9489    3.6082   -1.4206 H   0  0  0  0  0  0  0  0  0  0  0  0
   -4.5229    2.7784   -2.1249 H   0  0  0  0  0  0  0  0  0  0  0  0
   -6.0889    2.7537   -2.9698 H   0  0  0  0  0  0  0  0  0  0  0  0
   -5.3145   -1.0134    0.3156 H   0  0  0  0  0  0  0  0  0  0  0  0
   -3.6611   -1.3369    2.1295 H   0  0  0  0  0  0  0  0  0  0  0  0
    0.2762    1.4390    3.9904 H   0  0  0  0  0  0  0  0  0  0  0  0
    0.6433    2.6729    6.0538 H   0  0  0  0  0  0  0  0  0  0  0  0
    1.0537    4.0829    7.9067 H   0  0  0  0  0  0  0  0  0  0  0  0
    0.5733    3.6828    9.5704 H   0  0  0  0  0  0  0  0  0  0  0  0
    0.7952    2.3749    8.3909 H   0  0  0  0  0  0  0  0  0  0  0  0
   -3.5780    2.8252    6.7156 H   0  0  0  0  0  0  0  0  0  0  0  0
   -3.9450    1.5625    4.6248 H   0  0  0  0  0  0  0  0  0  0  0  0
   -0.7140   -3.8325   -1.5704 H   0  0  0  0  0  0  0  0  0  0  0  0
   -0.7410   -5.0770   -3.6582 H   0  0  0  0  0  0  0  0  0  0  0  0
    0.1704   -5.8613   -7.1491 H   0  0  0  0  0  0  0  0  0  0  0  0
   -0.8766   -6.1723   -5.7479 H   0  0  0  0  0  0  0  0  0  0  0  0
   -0.0803   -4.5786   -5.9563 H   0  0  0  0  0  0  0  0  0  0  0  0
    3.4610   -5.7771   -3.3034 H   0  0  0  0  0  0  0  0  0  0  0  0
    3.5030   -4.4685   -1.2241 H   0  0  0  0  0  0  0  0  0  0  0  0
    3.1195   -1.2466    0.6231 H   0  0  0  0  0  0  0  0  0  0  0  0
    4.8701   -1.4840    2.3568 H   0  0  0  0  0  0  0  0  0  0  0  0
    6.4291   -5.3172    5.3625 H   0  0  0  0  0  0  0  0  0  0  0  0
    4.7066   -5.4996    5.0017 H   0  0  0  0  0  0  0  0  0  0  0  0
    5.9438   -5.9867    3.7867 H   0  0  0  0  0  0  0  0  0  0  0  0
    3.8537   -5.6172    2.7926 H   0  0  0  0  0  0  0  0  0  0  0  0
    2.1303   -5.3751    1.0788 H   0  0  0  0  0  0  0  0  0  0  0  0
    0.2825   -1.8844   -7.1420 H   0  0  0  0  0  0  0  0  0  0  0  0
   -2.3998    3.7283   -7.5629 H   0  0  0  0  0  0  0  0  0  0  0  0
   -1.9155    0.6261  -11.5371 H   0  0  0  0  0  0  0  0  0  0  0  0
   -3.7742    3.3988  -12.3850 H   0  0  0  0  0  0  0  0  0  0  0  0
   -1.7232    3.9631  -13.6785 H   0  0  0  0  0  0  0  0  0  0  0  0
    0.3010    3.5870  -12.0663 H   0  0  0  0  0  0  0  0  0  0  0  0
    0.0391    5.2382  -10.0029 H   0  0  0  0  0  0  0  0  0  0  0  0
   -2.1459    6.6353  -10.3448 H   0  0  0  0  0  0  0  0  0  0  0  0
   -3.1819    6.0283  -12.7541 H   0  0  0  0  0  0  0  0  0  0  0  0
   -1.4650    6.4812  -12.8988 H   0  0  0  0  0  0  0  0  0  0  0  0
   -4.0308    5.0070  -10.3834 H   0  0  0  0  0  0  0  0  0  0  0  0
  1  2  2  0  0  0  0
  2  3  1  0  0  0  0
  3  4  2  0  0  0  0
  3  5  1  0  0  0  0
  5  6  2  0  0  0  0
  6  7  1  0  0  0  0
  6  8  1  0  0  0  0
  8  9  1  0  0  0  0
  8 10  2  0  0  0  0
 10 11  1  0  0  0  0
 10 12  1  0  0  0  0
 12 13  1  0  0  0  0
 12 14  2  0  0  0  0
 14 15  1  0  0  0  0
 15 16  2  0  0  0  0
 16 17  1  0  0  0  0
 17 18  3  0  0  0  0
 16 19  1  0  0  0  0
 19 20  3  0  0  0  0
  1 21  1  0  0  0  0
 21 22  2  0  0  0  0
 22 23  1  0  0  0  0
 23 24  1  0  0  0  0
 24 25  1  0  0  0  0
 25 26  1  0  0  0  0
 23 27  2  0  0  0  0
 27 28  1  0  0  0  0
 27 29  1  0  0  0  0
 29 30  2  0  0  0  0
 30 31  1  0  0  0  0
 31 32  1  0  0  0  0
 32 33  2  0  0  0  0
 33 34  1  0  0  0  0
 34 35  2  0  0  0  0
 35 36  1  0  0  0  0
 36 37  1  0  0  0  0
 35 38  1  0  0  0  0
 38 39  2  0  0  0  0
 31 40  1  0  0  0  0
 40 41  2  0  0  0  0
 41 42  1  0  0  0  0
 42 43  2  0  0  0  0
 43 44  1  0  0  0  0
 44 45  1  0  0  0  0
 43 46  1  0  0  0  0
 46 47  2  0  0  0  0
 30 48  1  0  0  0  0
 48 49  1  0  0  0  0
 49 50  1  0  0  0  0
 50 51  2  0  0  0  0
 51 52  1  0  0  0  0
 52 53  1  0  0  0  0
 53 54  2  0  0  0  0
 54 55  1  0  0  0  0
 55 56  2  0  0  0  0
 56 57  1  0  0  0  0
 57 58  1  0  0  0  0
 56 59  1  0  0  0  0
 59 60  2  0  0  0  0
 52 61  1  0  0  0  0
 61 62  2  0  0  0  0
 62 63  1  0  0  0  0
 63 64  2  0  0  0  0
 64 65  1  0  0  0  0
 65 66  1  0  0  0  0
 64 67  1  0  0  0  0
 67 68  2  0  0  0  0
 51 69  1  0  0  0  0
 69 70  1  0  0  0  0
 50 71  1  0  0  0  0
 71 72  2  0  0  0  0
 72 73  1  0  0  0  0
 73 74  1  0  0  0  0
 74 75  2  0  0  0  0
 75 76  2  0  0  0  0
 73 77  2  0  0  0  0
 77 78  1  0  0  0  0
 78 79  2  0  0  0  0
 79 80  1  0  0  0  0
 80 81  1  0  0  0  0
 81 82  2  0  0  0  0
 77 83  1  0  0  0  0
 83 84  2  0  0  0  0
 84 85  1  0  0  0  0
 85 86  2  0  0  0  0
 85 87  1  0  0  0  0
 87 88  2  0  0  0  0
 88 89  1  0  0  0  0
 89 90  2  0  0  0  0
 90 91  1  0  0  0  0
 91 92  2  0  0  0  0
 92 93  1  0  0  0  0
 93 94  2  0  0  0  0
 94 95  1  0  0  0  0
 95 96  3  0  0  0  0
 94 97  1  0  0  0  0
 97 98  3  0  0  0  0
 90 99  1  0  0  0  0
 99100  1  0  0  0  0
100101  1  0  0  0  0
101102  2  0  0  0  0
102103  1  0  0  0  0
103104  1  0  0  0  0
103105  1  0  0  0  0
 15  2  1  0  0  0  0
 28 21  1  0  0  0  0
 70 29  1  0  0  0  0
 82 71  1  0  0  0  0
 93 84  1  0  0  0  0
105 99  1  0  0  0  0
 14  5  1  0  0  0  0
 39 32  1  0  0  0  0
 47 40  1  0  0  0  0
 69 48  2  0  0  0  0
 76 72  1  0  0  0  0
 82 78  1  0  0  0  0
 92 87  1  0  0  0  0
104100  1  0  0  0  0
 60 53  1  0  0  0  0
 68 61  1  0  0  0  0
105 89  1  0  0  0  0
  1106  1  0  0  0  0
 22107  1  0  0  0  0
 25108  1  0  0  0  0
 25109  1  0  0  0  0
 26110  1  0  0  0  0
 26111  1  0  0  0  0
 26112  1  0  0  0  0
 33113  1  0  0  0  0
 34114  1  0  0  0  0
 37115  1  0  0  0  0
 37116  1  0  0  0  0
 37117  1  0  0  0  0
 38118  1  0  0  0  0
 39119  1  0  0  0  0
 41120  1  0  0  0  0
 42121  1  0  0  0  0
 45122  1  0  0  0  0
 45123  1  0  0  0  0
 45124  1  0  0  0  0
 46125  1  0  0  0  0
 47126  1  0  0  0  0
 54127  1  0  0  0  0
 55128  1  0  0  0  0
 58129  1  0  0  0  0
 58130  1  0  0  0  0
 58131  1  0  0  0  0
 59132  1  0  0  0  0
 60133  1  0  0  0  0
 62134  1  0  0  0  0
 63135  1  0  0  0  0
 66136  1  0  0  0  0
 66137  1  0  0  0  0
 66138  1  0  0  0  0
 67139  1  0  0  0  0
 68140  1  0  0  0  0
 83141  1  0  0  0  0
 88142  1  0  0  0  0
 91143  1  0  0  0  0
 99144  1  0  0  0  0
100145  1  0  0  0  0
101146  1  0  0  0  0
102147  1  0  0  0  0
103148  1  0  0  0  0
104149  1  0  0  0  0
104150  1  0  0  0  0
105151  1  0  0  0  0
M  END
