
  xtb     02042201593D
 energy: -324.922120093590 gnorm: 0.000957242963 xtb: 6.4.1 (unknown)
164179  0     0  0            999 V2000
   -5.8332    8.4712   -1.2685 C   0  0  0  0  0  0  0  0  0  0  0  0
   -7.0053    8.7999   -0.6479 C   0  0  0  0  0  0  0  0  0  0  0  0
   -7.5969    8.2529    0.5928 C   0  0  0  0  0  0  0  0  0  0  0  0
   -7.0614    7.6589    1.5002 O   0  0  0  0  0  0  0  0  0  0  0  0
   -9.0369    8.5993    0.5206 C   0  0  0  0  0  0  0  0  0  0  0  0
  -10.0632    8.1633    1.3400 C   0  0  0  0  0  0  0  0  0  0  0  0
   -9.7596    7.1898    2.7053 Cl  0  0  0  0  0  0  0  0  0  0  0  0
  -11.3756    8.5280    1.0088 C   0  0  0  0  0  0  0  0  0  0  0  0
  -12.6753    8.0360    2.0050 Cl  0  0  0  0  0  0  0  0  0  0  0  0
  -11.6266    9.2560   -0.1539 C   0  0  0  0  0  0  0  0  0  0  0  0
  -13.2429    9.6105   -0.5852 Cl  0  0  0  0  0  0  0  0  0  0  0  0
  -10.5807    9.6884   -0.9858 C   0  0  0  0  0  0  0  0  0  0  0  0
  -10.9781   10.4264   -2.4817 Cl  0  0  0  0  0  0  0  0  0  0  0  0
   -9.2736    9.4102   -0.6065 C   0  0  0  0  0  0  0  0  0  0  0  0
   -7.9833    9.7249   -1.2122 C   0  0  0  0  0  0  0  0  0  0  0  0
   -7.6813   10.8115   -1.9851 C   0  0  0  0  0  0  0  0  0  0  0  0
   -6.3904   11.0935   -2.4907 C   0  0  0  0  0  0  0  0  0  0  0  0
   -5.3793   11.3938   -2.9425 N   0  0  0  0  0  0  0  0  0  0  0  0
   -8.5377   11.9029   -2.2531 C   0  0  0  0  0  0  0  0  0  0  0  0
   -9.1152   12.8753   -2.4443 N   0  0  0  0  0  0  0  0  0  0  0  0
   -4.8237    7.5577   -0.8962 C   0  0  0  0  0  0  0  0  0  0  0  0
   -4.6116    6.8550    0.2643 C   0  0  0  0  0  0  0  0  0  0  0  0
   -3.5256    5.9649    0.1998 C   0  0  0  0  0  0  0  0  0  0  0  0
   -3.1250    5.0327    1.1810 C   0  0  0  0  0  0  0  0  0  0  0  0
   -3.8739    4.8812    2.4132 C   0  0  0  0  0  0  0  0  0  0  0  0
   -5.6067    4.7363    2.3829 S   0  0  0  0  0  0  0  0  0  0  0  0
   -5.7045    4.5762    4.0998 C   0  0  0  0  0  0  0  0  0  0  0  0
   -7.0207    4.4320    4.7811 C   0  0  0  0  0  0  0  0  0  0  0  0
   -7.8881    3.3599    4.1258 C   0  0  0  0  0  0  0  0  0  0  0  0
   -4.4584    4.6309    4.6528 C   0  0  0  0  0  0  0  0  0  0  0  0
   -4.1476    4.5175    6.3373 Cl  0  0  0  0  0  0  0  0  0  0  0  0
   -3.4177    4.7982    3.7016 C   0  0  0  0  0  0  0  0  0  0  0  0
   -1.7776    4.9774    4.1624 Cl  0  0  0  0  0  0  0  0  0  0  0  0
   -2.0549    4.2146    0.8569 C   0  0  0  0  0  0  0  0  0  0  0  0
   -1.3725    4.2760   -0.3876 C   0  0  0  0  0  0  0  0  0  0  0  0
   -1.7684    5.2086   -1.3651 C   0  0  0  0  0  0  0  0  0  0  0  0
   -1.1724    5.2801   -2.6858 C   0  0  0  0  0  0  0  0  0  0  0  0
   -0.8872    6.4022   -3.4106 C   0  0  0  0  0  0  0  0  0  0  0  0
   -0.3918    6.1248   -4.7004 C   0  0  0  0  0  0  0  0  0  0  0  0
   -0.3096    4.7961   -4.9780 C   0  0  0  0  0  0  0  0  0  0  0  0
    0.1139    4.1326   -6.2421 C   0  0  0  0  0  0  0  0  0  0  0  0
   -1.0879    3.5565   -6.9944 C   0  0  0  0  0  0  0  0  0  0  0  0
   -0.8386    3.8489   -3.6255 S   0  0  0  0  0  0  0  0  0  0  0  0
   -2.8402    6.0347   -1.0403 C   0  0  0  0  0  0  0  0  0  0  0  0
   -3.5935    7.1848   -2.1031 S   0  0  0  0  0  0  0  0  0  0  0  0
   -0.4195    3.2363   -0.5109 C   0  0  0  0  0  0  0  0  0  0  0  0
   -0.4339    2.3617    0.5338 C   0  0  0  0  0  0  0  0  0  0  0  0
   -1.4939    2.8848    1.8238 S   0  0  0  0  0  0  0  0  0  0  0  0
    0.1920    1.0750    0.6053 C   0  0  0  0  0  0  0  0  0  0  0  0
   -0.4473   -0.1173    0.9090 C   0  0  0  0  0  0  0  0  0  0  0  0
   -1.8045   -0.2710    1.1330 N   0  0  0  0  0  0  0  0  0  0  0  0
   -2.7362    0.5158    0.4418 C   0  0  0  0  0  0  0  0  0  0  0  0
   -3.8873    0.9825    1.0810 C   0  0  0  0  0  0  0  0  0  0  0  0
   -4.7269    1.8649    0.4403 C   0  0  0  0  0  0  0  0  0  0  0  0
   -4.4378    2.3114   -0.8486 C   0  0  0  0  0  0  0  0  0  0  0  0
   -5.5056    3.5497   -1.5141 S   0  0  0  0  0  0  0  0  0  0  0  0
   -4.8513    3.8384   -3.1831 C   0  0  0  0  0  0  0  0  0  0  0  0
   -3.3386    1.7916   -1.5161 C   0  0  0  0  0  0  0  0  0  0  0  0
   -2.5027    0.8964   -0.8772 C   0  0  0  0  0  0  0  0  0  0  0  0
   -2.2274   -1.2429    2.0510 C   0  0  0  0  0  0  0  0  0  0  0  0
   -1.5061   -1.4618    3.2254 C   0  0  0  0  0  0  0  0  0  0  0  0
   -1.9031   -2.4371    4.1111 C   0  0  0  0  0  0  0  0  0  0  0  0
   -3.0342   -3.2099    3.8527 C   0  0  0  0  0  0  0  0  0  0  0  0
   -3.4402   -4.4277    5.0620 S   0  0  0  0  0  0  0  0  0  0  0  0
   -4.9048   -5.2557    4.3808 C   0  0  0  0  0  0  0  0  0  0  0  0
   -3.7640   -2.9830    2.6930 C   0  0  0  0  0  0  0  0  0  0  0  0
   -3.3601   -2.0106    1.7994 C   0  0  0  0  0  0  0  0  0  0  0  0
    0.4671   -1.1995    0.8609 C   0  0  0  0  0  0  0  0  0  0  0  0
    0.3038   -2.9055    1.0716 S   0  0  0  0  0  0  0  0  0  0  0  0
    2.0051   -3.1256    0.7015 C   0  0  0  0  0  0  0  0  0  0  0  0
    2.6428   -1.9382    0.3588 C   0  0  0  0  0  0  0  0  0  0  0  0
    3.9186   -1.8283   -0.1528 N   0  0  0  0  0  0  0  0  0  0  0  0
    4.4778   -2.8685   -0.9143 C   0  0  0  0  0  0  0  0  0  0  0  0
    5.8058   -3.2445   -0.7297 C   0  0  0  0  0  0  0  0  0  0  0  0
    6.3278   -4.3405   -1.3897 C   0  0  0  0  0  0  0  0  0  0  0  0
    5.5287   -5.0746   -2.2560 C   0  0  0  0  0  0  0  0  0  0  0  0
    6.0605   -6.5490   -3.0710 S   0  0  0  0  0  0  0  0  0  0  0  0
    7.8705   -6.4721   -2.9468 C   0  0  0  0  0  0  0  0  0  0  0  0
    4.2172   -4.6652   -2.4903 C   0  0  0  0  0  0  0  0  0  0  0  0
    3.6989   -3.5714   -1.8349 C   0  0  0  0  0  0  0  0  0  0  0  0
    4.6723   -0.6783    0.1212 C   0  0  0  0  0  0  0  0  0  0  0  0
    4.6021   -0.0659    1.3729 C   0  0  0  0  0  0  0  0  0  0  0  0
    5.3360    1.0695    1.6292 C   0  0  0  0  0  0  0  0  0  0  0  0
    6.1635    1.6149    0.6486 C   0  0  0  0  0  0  0  0  0  0  0  0
    7.0509    3.0711    1.0966 S   0  0  0  0  0  0  0  0  0  0  0  0
    8.0874    3.4206   -0.3524 C   0  0  0  0  0  0  0  0  0  0  0  0
    6.2451    0.9999   -0.5942 C   0  0  0  0  0  0  0  0  0  0  0  0
    5.5029   -0.1351   -0.8542 C   0  0  0  0  0  0  0  0  0  0  0  0
    1.7511   -0.8413    0.4854 C   0  0  0  0  0  0  0  0  0  0  0  0
    1.8780    0.8567    0.1741 S   0  0  0  0  0  0  0  0  0  0  0  0
    2.5684   -4.4495    0.6836 C   0  0  0  0  0  0  0  0  0  0  0  0
    1.8787   -5.5404    0.1410 C   0  0  0  0  0  0  0  0  0  0  0  0
    2.4958   -6.7473   -0.0740 C   0  0  0  0  0  0  0  0  0  0  0  0
    3.8473   -6.9445    0.2494 C   0  0  0  0  0  0  0  0  0  0  0  0
    4.5021   -5.8833    0.9048 C   0  0  0  0  0  0  0  0  0  0  0  0
    5.7714   -6.0407    1.3112 F   0  0  0  0  0  0  0  0  0  0  0  0
    3.8730   -4.6821    1.1422 C   0  0  0  0  0  0  0  0  0  0  0  0
    4.5184   -3.7178    1.8244 F   0  0  0  0  0  0  0  0  0  0  0  0
    4.6439   -8.0746   -0.1262 C   0  0  0  0  0  0  0  0  0  0  0  0
    4.3025   -9.3341   -0.5105 C   0  0  0  0  0  0  0  0  0  0  0  0
    2.9837  -10.0036   -0.3969 C   0  0  0  0  0  0  0  0  0  0  0  0
    1.9722   -9.5855    0.1160 O   0  0  0  0  0  0  0  0  0  0  0  0
    3.1608  -11.3382   -1.0148 C   0  0  0  0  0  0  0  0  0  0  0  0
    2.2002  -12.3068   -1.2510 C   0  0  0  0  0  0  0  0  0  0  0  0
    0.6046  -12.1416   -0.6712 Cl  0  0  0  0  0  0  0  0  0  0  0  0
    2.5678  -13.4349   -1.9980 C   0  0  0  0  0  0  0  0  0  0  0  0
    1.4287  -14.6758   -2.2859 Cl  0  0  0  0  0  0  0  0  0  0  0  0
    3.8463  -13.5215   -2.5485 C   0  0  0  0  0  0  0  0  0  0  0  0
    4.2356  -14.8526   -3.5492 Cl  0  0  0  0  0  0  0  0  0  0  0  0
    4.8136  -12.5320   -2.3101 C   0  0  0  0  0  0  0  0  0  0  0  0
    6.2900  -12.6174   -3.1766 Cl  0  0  0  0  0  0  0  0  0  0  0  0
    4.4885  -11.4745   -1.4666 C   0  0  0  0  0  0  0  0  0  0  0  0
    5.2571  -10.3300   -0.9902 C   0  0  0  0  0  0  0  0  0  0  0  0
    6.6198  -10.2820   -0.8636 C   0  0  0  0  0  0  0  0  0  0  0  0
    7.4781  -11.4036   -0.9310 C   0  0  0  0  0  0  0  0  0  0  0  0
    8.2378  -12.2586   -0.8409 N   0  0  0  0  0  0  0  0  0  0  0  0
    7.3895   -9.1527   -0.5106 C   0  0  0  0  0  0  0  0  0  0  0  0
    8.1277   -8.2994   -0.2937 N   0  0  0  0  0  0  0  0  0  0  0  0
   -5.6703    8.9154   -2.2440 H   0  0  0  0  0  0  0  0  0  0  0  0
   -5.2289    6.9839    1.1318 H   0  0  0  0  0  0  0  0  0  0  0  0
   -7.5464    5.3905    4.7395 H   0  0  0  0  0  0  0  0  0  0  0  0
   -6.8431    4.1884    5.8301 H   0  0  0  0  0  0  0  0  0  0  0  0
   -8.8384    3.2779    4.6465 H   0  0  0  0  0  0  0  0  0  0  0  0
   -7.3889    2.3943    4.1585 H   0  0  0  0  0  0  0  0  0  0  0  0
   -8.0817    3.6169    3.0867 H   0  0  0  0  0  0  0  0  0  0  0  0
   -0.9966    7.3980   -3.0208 H   0  0  0  0  0  0  0  0  0  0  0  0
   -0.1052    6.8902   -5.3992 H   0  0  0  0  0  0  0  0  0  0  0  0
    0.8175    3.3264   -6.0197 H   0  0  0  0  0  0  0  0  0  0  0  0
    0.6219    4.8678   -6.8693 H   0  0  0  0  0  0  0  0  0  0  0  0
   -1.7982    4.3450   -7.2325 H   0  0  0  0  0  0  0  0  0  0  0  0
   -0.7637    3.0886   -7.9203 H   0  0  0  0  0  0  0  0  0  0  0  0
   -1.5916    2.8094   -6.3847 H   0  0  0  0  0  0  0  0  0  0  0  0
    0.2030    3.0861   -1.3735 H   0  0  0  0  0  0  0  0  0  0  0  0
   -4.0942    0.6772    2.0953 H   0  0  0  0  0  0  0  0  0  0  0  0
   -5.6019    2.2472    0.9422 H   0  0  0  0  0  0  0  0  0  0  0  0
   -3.8266    4.1929   -3.1281 H   0  0  0  0  0  0  0  0  0  0  0  0
   -4.9230    2.9290   -3.7719 H   0  0  0  0  0  0  0  0  0  0  0  0
   -5.4830    4.6083   -3.6147 H   0  0  0  0  0  0  0  0  0  0  0  0
   -3.1053    2.0831   -2.5269 H   0  0  0  0  0  0  0  0  0  0  0  0
   -1.6443    0.5068   -1.4038 H   0  0  0  0  0  0  0  0  0  0  0  0
   -0.6387   -0.8558    3.4408 H   0  0  0  0  0  0  0  0  0  0  0  0
   -1.3463   -2.6095    5.0191 H   0  0  0  0  0  0  0  0  0  0  0  0
   -4.6627   -5.7108    3.4250 H   0  0  0  0  0  0  0  0  0  0  0  0
   -5.7244   -4.5491    4.2885 H   0  0  0  0  0  0  0  0  0  0  0  0
   -5.1636   -6.0263    5.1003 H   0  0  0  0  0  0  0  0  0  0  0  0
   -4.6446   -3.5618    2.4661 H   0  0  0  0  0  0  0  0  0  0  0  0
   -3.9247   -1.8462    0.8935 H   0  0  0  0  0  0  0  0  0  0  0  0
    6.4196   -2.7002   -0.0282 H   0  0  0  0  0  0  0  0  0  0  0  0
    7.3460   -4.6320   -1.1911 H   0  0  0  0  0  0  0  0  0  0  0  0
    8.1893   -6.6934   -1.9314 H   0  0  0  0  0  0  0  0  0  0  0  0
    8.2427   -7.2388   -3.6195 H   0  0  0  0  0  0  0  0  0  0  0  0
    8.2122   -5.4947   -3.2731 H   0  0  0  0  0  0  0  0  0  0  0  0
    3.6108   -5.2197   -3.1896 H   0  0  0  0  0  0  0  0  0  0  0  0
    2.6811   -3.2636   -2.0220 H   0  0  0  0  0  0  0  0  0  0  0  0
    3.9856   -0.4986    2.1459 H   0  0  0  0  0  0  0  0  0  0  0  0
    5.2869    1.5439    2.5970 H   0  0  0  0  0  0  0  0  0  0  0  0
    8.6795    4.2897   -0.0834 H   0  0  0  0  0  0  0  0  0  0  0  0
    8.7414    2.5770   -0.5524 H   0  0  0  0  0  0  0  0  0  0  0  0
    7.4640    3.6522   -1.2111 H   0  0  0  0  0  0  0  0  0  0  0  0
    6.8756    1.3972   -1.3730 H   0  0  0  0  0  0  0  0  0  0  0  0
    5.5635   -0.6053   -1.8248 H   0  0  0  0  0  0  0  0  0  0  0  0
    0.8534   -5.3969   -0.1636 H   0  0  0  0  0  0  0  0  0  0  0  0
    1.9453   -7.5448   -0.5399 H   0  0  0  0  0  0  0  0  0  0  0  0
    5.7040   -7.8522   -0.1307 H   0  0  0  0  0  0  0  0  0  0  0  0
  1  2  2  0  0  0  0
  2  3  1  0  0  0  0
  3  4  2  0  0  0  0
  3  5  1  0  0  0  0
  5  6  2  0  0  0  0
  6  7  1  0  0  0  0
  6  8  1  0  0  0  0
  8  9  1  0  0  0  0
  8 10  2  0  0  0  0
 10 11  1  0  0  0  0
 10 12  1  0  0  0  0
 12 13  1  0  0  0  0
 12 14  2  0  0  0  0
 14 15  1  0  0  0  0
 15 16  2  0  0  0  0
 16 17  1  0  0  0  0
 17 18  3  0  0  0  0
 16 19  1  0  0  0  0
 19 20  3  0  0  0  0
  1 21  1  0  0  0  0
 21 22  2  0  0  0  0
 22 23  1  0  0  0  0
 23 24  2  0  0  0  0
 24 25  1  0  0  0  0
 25 26  1  0  0  0  0
 26 27  1  0  0  0  0
 27 28  1  0  0  0  0
 28 29  1  0  0  0  0
 27 30  2  0  0  0  0
 30 31  1  0  0  0  0
 30 32  1  0  0  0  0
 32 33  1  0  0  0  0
 24 34  1  0  0  0  0
 34 35  2  0  0  0  0
 35 36  1  0  0  0  0
 36 37  1  0  0  0  0
 37 38  2  0  0  0  0
 38 39  1  0  0  0  0
 39 40  2  0  0  0  0
 40 41  1  0  0  0  0
 41 42  1  0  0  0  0
 40 43  1  0  0  0  0
 36 44  2  0  0  0  0
 44 45  1  0  0  0  0
 35 46  1  0  0  0  0
 46 47  2  0  0  0  0
 47 48  1  0  0  0  0
 47 49  1  0  0  0  0
 49 50  2  0  0  0  0
 50 51  1  0  0  0  0
 51 52  1  0  0  0  0
 52 53  2  0  0  0  0
 53 54  1  0  0  0  0
 54 55  2  0  0  0  0
 55 56  1  0  0  0  0
 56 57  1  0  0  0  0
 55 58  1  0  0  0  0
 58 59  2  0  0  0  0
 51 60  1  0  0  0  0
 60 61  2  0  0  0  0
 61 62  1  0  0  0  0
 62 63  2  0  0  0  0
 63 64  1  0  0  0  0
 64 65  1  0  0  0  0
 63 66  1  0  0  0  0
 66 67  2  0  0  0  0
 50 68  1  0  0  0  0
 68 69  1  0  0  0  0
 69 70  1  0  0  0  0
 70 71  2  0  0  0  0
 71 72  1  0  0  0  0
 72 73  1  0  0  0  0
 73 74  2  0  0  0  0
 74 75  1  0  0  0  0
 75 76  2  0  0  0  0
 76 77  1  0  0  0  0
 77 78  1  0  0  0  0
 76 79  1  0  0  0  0
 79 80  2  0  0  0  0
 72 81  1  0  0  0  0
 81 82  2  0  0  0  0
 82 83  1  0  0  0  0
 83 84  2  0  0  0  0
 84 85  1  0  0  0  0
 85 86  1  0  0  0  0
 84 87  1  0  0  0  0
 87 88  2  0  0  0  0
 71 89  1  0  0  0  0
 89 90  1  0  0  0  0
 70 91  1  0  0  0  0
 91 92  2  0  0  0  0
 92 93  1  0  0  0  0
 93 94  2  0  0  0  0
 94 95  1  0  0  0  0
 95 96  1  0  0  0  0
 95 97  2  0  0  0  0
 97 98  1  0  0  0  0
 94 99  1  0  0  0  0
 99100  2  0  0  0  0
100101  1  0  0  0  0
101102  2  0  0  0  0
101103  1  0  0  0  0
103104  2  0  0  0  0
104105  1  0  0  0  0
104106  1  0  0  0  0
106107  1  0  0  0  0
106108  2  0  0  0  0
108109  1  0  0  0  0
108110  1  0  0  0  0
110111  1  0  0  0  0
110112  2  0  0  0  0
112113  1  0  0  0  0
113114  2  0  0  0  0
114115  1  0  0  0  0
115116  3  0  0  0  0
114117  1  0  0  0  0
117118  3  0  0  0  0
 15  2  1  0  0  0  0
 45 21  1  0  0  0  0
 90 49  1  0  0  0  0
 97 91  1  0  0  0  0
113100  1  0  0  0  0
 14  5  1  0  0  0  0
 44 23  1  0  0  0  0
 59 52  1  0  0  0  0
 67 60  1  0  0  0  0
 89 68  2  0  0  0  0
112103  1  0  0  0  0
 32 25  2  0  0  0  0
 48 34  1  0  0  0  0
 80 73  1  0  0  0  0
 88 81  1  0  0  0  0
 43 37  1  0  0  0  0
  1119  1  0  0  0  0
 22120  1  0  0  0  0
 28121  1  0  0  0  0
 28122  1  0  0  0  0
 29123  1  0  0  0  0
 29124  1  0  0  0  0
 29125  1  0  0  0  0
 38126  1  0  0  0  0
 39127  1  0  0  0  0
 41128  1  0  0  0  0
 41129  1  0  0  0  0
 42130  1  0  0  0  0
 42131  1  0  0  0  0
 42132  1  0  0  0  0
 46133  1  0  0  0  0
 53134  1  0  0  0  0
 54135  1  0  0  0  0
 57136  1  0  0  0  0
 57137  1  0  0  0  0
 57138  1  0  0  0  0
 58139  1  0  0  0  0
 59140  1  0  0  0  0
 61141  1  0  0  0  0
 62142  1  0  0  0  0
 65143  1  0  0  0  0
 65144  1  0  0  0  0
 65145  1  0  0  0  0
 66146  1  0  0  0  0
 67147  1  0  0  0  0
 74148  1  0  0  0  0
 75149  1  0  0  0  0
 78150  1  0  0  0  0
 78151  1  0  0  0  0
 78152  1  0  0  0  0
 79153  1  0  0  0  0
 80154  1  0  0  0  0
 82155  1  0  0  0  0
 83156  1  0  0  0  0
 86157  1  0  0  0  0
 86158  1  0  0  0  0
 86159  1  0  0  0  0
 87160  1  0  0  0  0
 88161  1  0  0  0  0
 92162  1  0  0  0  0
 93163  1  0  0  0  0
 99164  1  0  0  0  0
M  END
