
  xtb     02042202043D
 energy: -334.054147014780 gnorm: 0.000762442267 xtb: 6.4.1 (unknown)
159172  0     0  0            999 V2000
   -5.0054   -3.0827    3.6922 C   0  0  0  0  0  0  0  0  0  0  0  0
   -4.2567   -4.1954    3.4475 C   0  0  0  0  0  0  0  0  0  0  0  0
   -3.0699   -4.1600    2.5717 C   0  0  0  0  0  0  0  0  0  0  0  0
   -2.6384   -3.2243    1.9368 O   0  0  0  0  0  0  0  0  0  0  0  0
   -2.4698   -5.5104    2.6725 C   0  0  0  0  0  0  0  0  0  0  0  0
   -1.3197   -5.9768    2.0629 C   0  0  0  0  0  0  0  0  0  0  0  0
   -0.4901   -5.0371    0.8967 Cl  0  0  0  0  0  0  0  0  0  0  0  0
   -0.8491   -7.2486    2.4157 C   0  0  0  0  0  0  0  0  0  0  0  0
    0.5632   -7.8686    1.6815 Cl  0  0  0  0  0  0  0  0  0  0  0  0
   -1.5064   -7.9778    3.4071 C   0  0  0  0  0  0  0  0  0  0  0  0
   -0.8637   -9.4869    3.8921 Cl  0  0  0  0  0  0  0  0  0  0  0  0
   -2.6690   -7.4940    4.0291 C   0  0  0  0  0  0  0  0  0  0  0  0
   -3.2902   -8.3679    5.3658 Cl  0  0  0  0  0  0  0  0  0  0  0  0
   -3.1996   -6.2808    3.6011 C   0  0  0  0  0  0  0  0  0  0  0  0
   -4.3999   -5.5378    3.9827 C   0  0  0  0  0  0  0  0  0  0  0  0
   -5.5385   -6.0410    4.5535 C   0  0  0  0  0  0  0  0  0  0  0  0
   -6.6574   -5.2517    4.9017 C   0  0  0  0  0  0  0  0  0  0  0  0
   -7.6045   -4.6799    5.2097 N   0  0  0  0  0  0  0  0  0  0  0  0
   -5.8688   -7.4030    4.7284 C   0  0  0  0  0  0  0  0  0  0  0  0
   -6.2967   -8.4646    4.8099 N   0  0  0  0  0  0  0  0  0  0  0  0
   -4.7492   -1.8642    2.9110 C   0  0  0  0  0  0  0  0  0  0  0  0
   -5.1359   -1.7049    1.5775 C   0  0  0  0  0  0  0  0  0  0  0  0
   -6.1050   -2.8797    0.6905 S   0  0  0  0  0  0  0  0  0  0  0  0
   -7.3966   -3.4334    1.8592 C   0  0  0  0  0  0  0  0  0  0  0  0
   -8.1672   -2.2864    2.4787 C   0  0  0  0  0  0  0  0  0  0  0  0
   -4.6009   -0.6403    0.8377 C   0  0  0  0  0  0  0  0  0  0  0  0
   -4.9298   -0.5067   -0.8983 S   0  0  0  0  0  0  0  0  0  0  0  0
   -6.7585   -0.2546   -0.9076 C   0  0  0  0  0  0  0  0  0  0  0  0
   -7.1055    0.9457   -1.7648 C   0  0  0  0  0  0  0  0  0  0  0  0
   -3.7050    0.2598    1.4194 C   0  0  0  0  0  0  0  0  0  0  0  0
   -3.4345    0.1913    2.7870 C   0  0  0  0  0  0  0  0  0  0  0  0
   -3.9597   -0.8800    3.5174 C   0  0  0  0  0  0  0  0  0  0  0  0
   -3.6183   -1.1577    4.9121 C   0  0  0  0  0  0  0  0  0  0  0  0
   -4.0305   -2.1804    5.4495 O   0  0  0  0  0  0  0  0  0  0  0  0
   -2.7760   -0.1678    5.5540 C   0  0  0  0  0  0  0  0  0  0  0  0
   -2.2753    0.9613    4.8367 C   0  0  0  0  0  0  0  0  0  0  0  0
   -2.5700    1.2123    3.4205 C   0  0  0  0  0  0  0  0  0  0  0  0
   -2.1474    2.1845    2.8264 O   0  0  0  0  0  0  0  0  0  0  0  0
   -1.4787    1.7466    5.6184 C   0  0  0  0  0  0  0  0  0  0  0  0
   -1.3292    1.1351    7.2130 S   0  0  0  0  0  0  0  0  0  0  0  0
   -2.3389   -0.1955    6.8506 C   0  0  0  0  0  0  0  0  0  0  0  0
   -2.8964    1.1249    0.5475 C   0  0  0  0  0  0  0  0  0  0  0  0
   -1.5305    0.7593    0.4244 C   0  0  0  0  0  0  0  0  0  0  0  0
   -1.0345   -0.2427    1.1495 N   0  0  0  0  0  0  0  0  0  0  0  0
    0.2510   -0.4808    1.1536 C   0  0  0  0  0  0  0  0  0  0  0  0
    0.6936   -1.6909    1.8528 C   0  0  0  0  0  0  0  0  0  0  0  0
    0.0716   -2.1065    3.0271 C   0  0  0  0  0  0  0  0  0  0  0  0
    0.4907   -3.2256    3.7353 C   0  0  0  0  0  0  0  0  0  0  0  0
    1.5728   -4.0026    3.3112 C   0  0  0  0  0  0  0  0  0  0  0  0
    2.1193   -5.0694    3.9016 O   0  0  0  0  0  0  0  0  0  0  0  0
    1.8720   -5.3869    5.2699 C   0  0  0  0  0  0  0  0  0  0  0  0
    0.7261   -6.3730    5.4441 C   0  0  0  0  0  0  0  0  0  0  0  0
    2.1715   -3.6000    2.1017 C   0  0  0  0  0  0  0  0  0  0  0  0
    1.7459   -2.4898    1.3975 C   0  0  0  0  0  0  0  0  0  0  0  0
    2.3720   -2.1810    0.2531 F   0  0  0  0  0  0  0  0  0  0  0  0
    3.1996   -4.3209    1.6383 F   0  0  0  0  0  0  0  0  0  0  0  0
   -0.1945   -3.5297    4.8597 F   0  0  0  0  0  0  0  0  0  0  0  0
   -0.9176   -1.3877    3.5606 F   0  0  0  0  0  0  0  0  0  0  0  0
    1.1331    0.4368    0.4911 C   0  0  0  0  0  0  0  0  0  0  0  0
    2.5682    0.5422    0.7682 C   0  0  0  0  0  0  0  0  0  0  0  0
    3.4617    0.9661   -0.2144 C   0  0  0  0  0  0  0  0  0  0  0  0
    3.0207    1.2998   -1.4285 F   0  0  0  0  0  0  0  0  0  0  0  0
    4.8295    1.0693    0.0020 C   0  0  0  0  0  0  0  0  0  0  0  0
    5.5731    1.5497   -1.0165 F   0  0  0  0  0  0  0  0  0  0  0  0
    5.4084    0.7320    1.2300 C   0  0  0  0  0  0  0  0  0  0  0  0
    6.6932    0.7190    1.5807 O   0  0  0  0  0  0  0  0  0  0  0  0
    7.7390    0.9757    0.6460 C   0  0  0  0  0  0  0  0  0  0  0  0
    8.0313    2.4640    0.5090 C   0  0  0  0  0  0  0  0  0  0  0  0
    4.4967    0.3597    2.2364 C   0  0  0  0  0  0  0  0  0  0  0  0
    4.9800    0.0820    3.4556 F   0  0  0  0  0  0  0  0  0  0  0  0
    3.1351    0.2832    2.0201 C   0  0  0  0  0  0  0  0  0  0  0  0
    2.3546   -0.0107    3.0746 F   0  0  0  0  0  0  0  0  0  0  0  0
    0.6354    1.2858   -0.3758 N   0  0  0  0  0  0  0  0  0  0  0  0
   -0.6837    1.4270   -0.4972 C   0  0  0  0  0  0  0  0  0  0  0  0
   -1.2365    2.3421   -1.4366 C   0  0  0  0  0  0  0  0  0  0  0  0
   -2.5228    2.7572   -1.2126 C   0  0  0  0  0  0  0  0  0  0  0  0
   -3.3416    2.1648   -0.2244 C   0  0  0  0  0  0  0  0  0  0  0  0
   -4.5985    2.6160   -0.0985 F   0  0  0  0  0  0  0  0  0  0  0  0
   -3.0509    3.7470   -1.9505 F   0  0  0  0  0  0  0  0  0  0  0  0
   -0.3785    2.7232   -2.5728 C   0  0  0  0  0  0  0  0  0  0  0  0
   -0.6117    2.1775   -3.8391 C   0  0  0  0  0  0  0  0  0  0  0  0
   -1.8268    0.9200   -4.1587 S   0  0  0  0  0  0  0  0  0  0  0  0
   -3.5004    1.6628   -3.9181 C   0  0  0  0  0  0  0  0  0  0  0  0
   -4.4592    1.0183   -4.9014 C   0  0  0  0  0  0  0  0  0  0  0  0
    0.3271    2.4067   -4.8499 C   0  0  0  0  0  0  0  0  0  0  0  0
    0.1714    1.7724   -6.4970 S   0  0  0  0  0  0  0  0  0  0  0  0
   -1.3823    2.5829   -7.0334 C   0  0  0  0  0  0  0  0  0  0  0  0
   -1.2685    4.0939   -7.0109 C   0  0  0  0  0  0  0  0  0  0  0  0
    1.5449    3.0324   -4.5760 C   0  0  0  0  0  0  0  0  0  0  0  0
    1.8030    3.5319   -3.2947 C   0  0  0  0  0  0  0  0  0  0  0  0
    0.8126    3.4088   -2.3077 C   0  0  0  0  0  0  0  0  0  0  0  0
    1.0055    3.9320   -0.9321 C   0  0  0  0  0  0  0  0  0  0  0  0
    0.0879    4.1818   -0.1782 O   0  0  0  0  0  0  0  0  0  0  0  0
    2.4134    4.1389   -0.5782 C   0  0  0  0  0  0  0  0  0  0  0  0
    3.4208    4.2604   -1.5789 C   0  0  0  0  0  0  0  0  0  0  0  0
    3.1092    4.1723   -3.0093 C   0  0  0  0  0  0  0  0  0  0  0  0
    3.8666    4.5752   -3.8705 O   0  0  0  0  0  0  0  0  0  0  0  0
    4.6564    4.4808   -1.0445 C   0  0  0  0  0  0  0  0  0  0  0  0
    4.6160    4.5109    0.6719 S   0  0  0  0  0  0  0  0  0  0  0  0
    2.9169    4.2667    0.6822 C   0  0  0  0  0  0  0  0  0  0  0  0
    2.4887    3.1306   -5.6879 C   0  0  0  0  0  0  0  0  0  0  0  0
    3.6944    2.5539   -5.8119 C   0  0  0  0  0  0  0  0  0  0  0  0
    4.6258    3.0177   -6.8877 C   0  0  0  0  0  0  0  0  0  0  0  0
    4.3211    3.5906   -7.9054 O   0  0  0  0  0  0  0  0  0  0  0  0
    5.9683    2.6724   -6.3914 C   0  0  0  0  0  0  0  0  0  0  0  0
    7.2072    3.0086   -6.9062 C   0  0  0  0  0  0  0  0  0  0  0  0
    8.3379    2.6135   -6.2120 C   0  0  0  0  0  0  0  0  0  0  0  0
    8.2456    1.9076   -5.0118 C   0  0  0  0  0  0  0  0  0  0  0  0
    9.4930    1.5295   -4.2763 C   0  0  0  0  0  0  0  0  0  0  0  0
    6.9966    1.5645   -4.5027 C   0  0  0  0  0  0  0  0  0  0  0  0
    5.8581    1.9339   -5.1990 C   0  0  0  0  0  0  0  0  0  0  0  0
    4.4477    1.6869   -4.9184 C   0  0  0  0  0  0  0  0  0  0  0  0
    3.9595    0.7027   -4.1105 C   0  0  0  0  0  0  0  0  0  0  0  0
    4.7743   -0.1450   -3.3292 C   0  0  0  0  0  0  0  0  0  0  0  0
    5.3861   -0.8480   -2.6588 N   0  0  0  0  0  0  0  0  0  0  0  0
    2.5992    0.3445   -3.9968 C   0  0  0  0  0  0  0  0  0  0  0  0
    1.5235   -0.0345   -3.8752 N   0  0  0  0  0  0  0  0  0  0  0  0
   -5.8620   -3.1052    4.3517 H   0  0  0  0  0  0  0  0  0  0  0  0
   -6.9448   -4.0745    2.6122 H   0  0  0  0  0  0  0  0  0  0  0  0
   -8.0457   -4.0417    1.2289 H   0  0  0  0  0  0  0  0  0  0  0  0
   -8.6894   -1.7170    1.7130 H   0  0  0  0  0  0  0  0  0  0  0  0
   -7.5056   -1.6138    3.0215 H   0  0  0  0  0  0  0  0  0  0  0  0
   -8.8969   -2.6857    3.1794 H   0  0  0  0  0  0  0  0  0  0  0  0
   -7.0592   -0.1003    0.1260 H   0  0  0  0  0  0  0  0  0  0  0  0
   -7.2135   -1.1647   -1.2955 H   0  0  0  0  0  0  0  0  0  0  0  0
   -6.7738    0.7879   -2.7875 H   0  0  0  0  0  0  0  0  0  0  0  0
   -8.1838    1.0915   -1.7668 H   0  0  0  0  0  0  0  0  0  0  0  0
   -6.6331    1.8441   -1.3776 H   0  0  0  0  0  0  0  0  0  0  0  0
   -0.9751    2.6477    5.3288 H   0  0  0  0  0  0  0  0  0  0  0  0
   -2.5662   -0.9330    7.5951 H   0  0  0  0  0  0  0  0  0  0  0  0
    2.8068   -5.8480    5.6013 H   0  0  0  0  0  0  0  0  0  0  0  0
    1.7042   -4.4782    5.8534 H   0  0  0  0  0  0  0  0  0  0  0  0
   -0.2192   -5.9394    5.1290 H   0  0  0  0  0  0  0  0  0  0  0  0
    0.9193   -7.2668    4.8582 H   0  0  0  0  0  0  0  0  0  0  0  0
    0.6493   -6.6485    6.4916 H   0  0  0  0  0  0  0  0  0  0  0  0
    7.5145    0.5182   -0.3207 H   0  0  0  0  0  0  0  0  0  0  0  0
    8.6021    0.4668    1.0829 H   0  0  0  0  0  0  0  0  0  0  0  0
    8.9032    2.6016   -0.1235 H   0  0  0  0  0  0  0  0  0  0  0  0
    8.2324    2.8926    1.4875 H   0  0  0  0  0  0  0  0  0  0  0  0
    7.1920    2.9910    0.0645 H   0  0  0  0  0  0  0  0  0  0  0  0
   -3.8229    1.4556   -2.8995 H   0  0  0  0  0  0  0  0  0  0  0  0
   -3.4179    2.7338   -4.0865 H   0  0  0  0  0  0  0  0  0  0  0  0
   -4.5383   -0.0477   -4.7031 H   0  0  0  0  0  0  0  0  0  0  0  0
   -4.1244    1.1524   -5.9274 H   0  0  0  0  0  0  0  0  0  0  0  0
   -5.4434    1.4708   -4.7975 H   0  0  0  0  0  0  0  0  0  0  0  0
   -2.1858    2.2266   -6.3943 H   0  0  0  0  0  0  0  0  0  0  0  0
   -1.5344    2.2119   -8.0458 H   0  0  0  0  0  0  0  0  0  0  0  0
   -1.0909    4.4541   -5.9989 H   0  0  0  0  0  0  0  0  0  0  0  0
   -2.1924    4.5373   -7.3773 H   0  0  0  0  0  0  0  0  0  0  0  0
   -0.4505    4.4252   -7.6462 H   0  0  0  0  0  0  0  0  0  0  0  0
    5.5799    4.6076   -1.5743 H   0  0  0  0  0  0  0  0  0  0  0  0
    2.3785    4.2180    1.6078 H   0  0  0  0  0  0  0  0  0  0  0  0
    2.1818    3.7706   -6.5093 H   0  0  0  0  0  0  0  0  0  0  0  0
    7.2775    3.5674   -7.8266 H   0  0  0  0  0  0  0  0  0  0  0  0
    9.3163    2.8617   -6.5972 H   0  0  0  0  0  0  0  0  0  0  0  0
   10.1677    0.9807   -4.9314 H   0  0  0  0  0  0  0  0  0  0  0  0
    9.2640    0.9116   -3.4123 H   0  0  0  0  0  0  0  0  0  0  0  0
   10.0156    2.4240   -3.9385 H   0  0  0  0  0  0  0  0  0  0  0  0
    6.9250    1.0320   -3.5677 H   0  0  0  0  0  0  0  0  0  0  0  0
  1  2  2  0  0  0  0
  2  3  1  0  0  0  0
  3  4  2  0  0  0  0
  3  5  1  0  0  0  0
  5  6  2  0  0  0  0
  6  7  1  0  0  0  0
  6  8  1  0  0  0  0
  8  9  1  0  0  0  0
  8 10  2  0  0  0  0
 10 11  1  0  0  0  0
 10 12  1  0  0  0  0
 12 13  1  0  0  0  0
 12 14  2  0  0  0  0
 14 15  1  0  0  0  0
 15 16  2  0  0  0  0
 16 17  1  0  0  0  0
 17 18  3  0  0  0  0
 16 19  1  0  0  0  0
 19 20  3  0  0  0  0
  1 21  1  0  0  0  0
 21 22  2  0  0  0  0
 22 23  1  0  0  0  0
 23 24  1  0  0  0  0
 24 25  1  0  0  0  0
 22 26  1  0  0  0  0
 26 27  1  0  0  0  0
 27 28  1  0  0  0  0
 28 29  1  0  0  0  0
 26 30  2  0  0  0  0
 30 31  1  0  0  0  0
 31 32  2  0  0  0  0
 32 33  1  0  0  0  0
 33 34  2  0  0  0  0
 33 35  1  0  0  0  0
 35 36  1  0  0  0  0
 36 37  1  0  0  0  0
 37 38  2  0  0  0  0
 36 39  2  0  0  0  0
 39 40  1  0  0  0  0
 40 41  1  0  0  0  0
 30 42  1  0  0  0  0
 42 43  1  0  0  0  0
 43 44  2  0  0  0  0
 44 45  1  0  0  0  0
 45 46  1  0  0  0  0
 46 47  2  0  0  0  0
 47 48  1  0  0  0  0
 48 49  2  0  0  0  0
 49 50  1  0  0  0  0
 50 51  1  0  0  0  0
 51 52  1  0  0  0  0
 49 53  1  0  0  0  0
 53 54  2  0  0  0  0
 54 55  1  0  0  0  0
 53 56  1  0  0  0  0
 48 57  1  0  0  0  0
 47 58  1  0  0  0  0
 45 59  2  0  0  0  0
 59 60  1  0  0  0  0
 60 61  2  0  0  0  0
 61 62  1  0  0  0  0
 61 63  1  0  0  0  0
 63 64  1  0  0  0  0
 63 65  2  0  0  0  0
 65 66  1  0  0  0  0
 66 67  1  0  0  0  0
 67 68  1  0  0  0  0
 65 69  1  0  0  0  0
 69 70  1  0  0  0  0
 69 71  2  0  0  0  0
 71 72  1  0  0  0  0
 59 73  1  0  0  0  0
 73 74  2  0  0  0  0
 74 75  1  0  0  0  0
 75 76  2  0  0  0  0
 76 77  1  0  0  0  0
 77 78  1  0  0  0  0
 76 79  1  0  0  0  0
 75 80  1  0  0  0  0
 80 81  2  0  0  0  0
 81 82  1  0  0  0  0
 82 83  1  0  0  0  0
 83 84  1  0  0  0  0
 81 85  1  0  0  0  0
 85 86  1  0  0  0  0
 86 87  1  0  0  0  0
 87 88  1  0  0  0  0
 85 89  2  0  0  0  0
 89 90  1  0  0  0  0
 90 91  2  0  0  0  0
 91 92  1  0  0  0  0
 92 93  2  0  0  0  0
 92 94  1  0  0  0  0
 94 95  1  0  0  0  0
 95 96  1  0  0  0  0
 96 97  2  0  0  0  0
 95 98  2  0  0  0  0
 98 99  1  0  0  0  0
 99100  1  0  0  0  0
 89101  1  0  0  0  0
101102  2  0  0  0  0
102103  1  0  0  0  0
103104  2  0  0  0  0
103105  1  0  0  0  0
105106  2  0  0  0  0
106107  1  0  0  0  0
107108  2  0  0  0  0
108109  1  0  0  0  0
108110  1  0  0  0  0
110111  2  0  0  0  0
111112  1  0  0  0  0
112113  2  0  0  0  0
113114  1  0  0  0  0
114115  3  0  0  0  0
113116  1  0  0  0  0
116117  3  0  0  0  0
 15  2  1  0  0  0  0
 32 21  1  0  0  0  0
 41 35  2  0  0  0  0
 77 42  2  0  0  0  0
 91 80  1  0  0  0  0
100 94  2  0  0  0  0
112102  1  0  0  0  0
 14  5  1  0  0  0  0
 37 31  1  0  0  0  0
 74 43  1  0  0  0  0
 96 90  1  0  0  0  0
111105  1  0  0  0  0
 54 46  1  0  0  0  0
 71 60  1  0  0  0  0
  1118  1  0  0  0  0
 24119  1  0  0  0  0
 24120  1  0  0  0  0
 25121  1  0  0  0  0
 25122  1  0  0  0  0
 25123  1  0  0  0  0
 28124  1  0  0  0  0
 28125  1  0  0  0  0
 29126  1  0  0  0  0
 29127  1  0  0  0  0
 29128  1  0  0  0  0
 39129  1  0  0  0  0
 41130  1  0  0  0  0
 51131  1  0  0  0  0
 51132  1  0  0  0  0
 52133  1  0  0  0  0
 52134  1  0  0  0  0
 52135  1  0  0  0  0
 67136  1  0  0  0  0
 67137  1  0  0  0  0
 68138  1  0  0  0  0
 68139  1  0  0  0  0
 68140  1  0  0  0  0
 83141  1  0  0  0  0
 83142  1  0  0  0  0
 84143  1  0  0  0  0
 84144  1  0  0  0  0
 84145  1  0  0  0  0
 87146  1  0  0  0  0
 87147  1  0  0  0  0
 88148  1  0  0  0  0
 88149  1  0  0  0  0
 88150  1  0  0  0  0
 98151  1  0  0  0  0
100152  1  0  0  0  0
101153  1  0  0  0  0
106154  1  0  0  0  0
107155  1  0  0  0  0
109156  1  0  0  0  0
109157  1  0  0  0  0
109158  1  0  0  0  0
110159  1  0  0  0  0
M  END
