
  xtb     02042206323D
 energy: -316.374523411403 gnorm: 0.000824354096 xtb: 6.4.1 (unknown)
170188  0     0  0            999 V2000
    7.7619    2.6713    2.1147 C   0  0  0  0  0  0  0  0  0  0  0  0
    8.5020    3.5607    1.4119 C   0  0  0  0  0  0  0  0  0  0  0  0
    9.6289    4.2781    2.0567 C   0  0  0  0  0  0  0  0  0  0  0  0
   10.1174    4.0437    3.1336 O   0  0  0  0  0  0  0  0  0  0  0  0
    9.9308    5.4094    1.1453 C   0  0  0  0  0  0  0  0  0  0  0  0
   10.7872    6.4785    1.3459 C   0  0  0  0  0  0  0  0  0  0  0  0
   11.8353    6.5359    2.6905 Cl  0  0  0  0  0  0  0  0  0  0  0  0
   10.7681    7.5285    0.4165 C   0  0  0  0  0  0  0  0  0  0  0  0
   11.8350    8.8508    0.6023 Cl  0  0  0  0  0  0  0  0  0  0  0  0
    9.8471    7.5202   -0.6309 C   0  0  0  0  0  0  0  0  0  0  0  0
    9.7644    8.8641   -1.6851 Cl  0  0  0  0  0  0  0  0  0  0  0  0
    8.9765    6.4369   -0.8254 C   0  0  0  0  0  0  0  0  0  0  0  0
    7.7467    6.5747   -2.0093 Cl  0  0  0  0  0  0  0  0  0  0  0  0
    9.0766    5.3433    0.0249 C   0  0  0  0  0  0  0  0  0  0  0  0
    8.3584    4.0722    0.0591 C   0  0  0  0  0  0  0  0  0  0  0  0
    7.8661    3.3928   -1.0191 C   0  0  0  0  0  0  0  0  0  0  0  0
    8.0355    3.7581   -2.3743 C   0  0  0  0  0  0  0  0  0  0  0  0
    8.1857    3.9131   -3.5012 N   0  0  0  0  0  0  0  0  0  0  0  0
    7.2328    2.1330   -0.9637 C   0  0  0  0  0  0  0  0  0  0  0  0
    6.6920    1.1228   -1.0346 N   0  0  0  0  0  0  0  0  0  0  0  0
    6.4357    2.2055    1.7576 C   0  0  0  0  0  0  0  0  0  0  0  0
    5.4173    3.0886    1.3664 C   0  0  0  0  0  0  0  0  0  0  0  0
    5.7507    4.8317    1.3320 S   0  0  0  0  0  0  0  0  0  0  0  0
    4.4186    5.5499    2.3810 C   0  0  0  0  0  0  0  0  0  0  0  0
    3.7877    6.7455    1.6999 C   0  0  0  0  0  0  0  0  0  0  0  0
    4.1691    2.5866    1.0125 C   0  0  0  0  0  0  0  0  0  0  0  0
    2.9986    3.6920    0.2389 S   0  0  0  0  0  0  0  0  0  0  0  0
    3.4271    3.3290   -1.5063 C   0  0  0  0  0  0  0  0  0  0  0  0
    4.2919    4.4232   -2.0960 C   0  0  0  0  0  0  0  0  0  0  0  0
    3.8373    1.2370    1.2261 C   0  0  0  0  0  0  0  0  0  0  0  0
    4.8805    0.3346    1.5412 C   0  0  0  0  0  0  0  0  0  0  0  0
    6.1623    0.8316    1.7845 C   0  0  0  0  0  0  0  0  0  0  0  0
    7.3461   -0.0172    2.0193 C   0  0  0  0  0  0  0  0  0  0  0  0
    8.4663    0.4638    2.0350 O   0  0  0  0  0  0  0  0  0  0  0  0
    7.0545   -1.4257    2.2221 C   0  0  0  0  0  0  0  0  0  0  0  0
    5.7602   -1.9517    1.9440 C   0  0  0  0  0  0  0  0  0  0  0  0
    4.6510   -1.1290    1.4517 C   0  0  0  0  0  0  0  0  0  0  0  0
    3.6487   -1.6302    0.9807 O   0  0  0  0  0  0  0  0  0  0  0  0
    5.6968   -3.2977    2.1652 C   0  0  0  0  0  0  0  0  0  0  0  0
    7.1876   -3.9287    2.7298 S   0  0  0  0  0  0  0  0  0  0  0  0
    7.9282   -2.3892    2.6448 C   0  0  0  0  0  0  0  0  0  0  0  0
    2.4615    0.7891    1.1936 C   0  0  0  0  0  0  0  0  0  0  0  0
    1.8027    0.0223    2.1524 C   0  0  0  0  0  0  0  0  0  0  0  0
    2.3456   -0.4597    3.3279 N   0  0  0  0  0  0  0  0  0  0  0  0
    3.4129    0.1798    3.9578 C   0  0  0  0  0  0  0  0  0  0  0  0
    3.4701    1.5719    4.0306 C   0  0  0  0  0  0  0  0  0  0  0  0
    4.5733    2.2066    4.5603 C   0  0  0  0  0  0  0  0  0  0  0  0
    5.6475    1.4608    5.0333 C   0  0  0  0  0  0  0  0  0  0  0  0
    7.1468    2.1603    5.6419 S   0  0  0  0  0  0  0  0  0  0  0  0
    6.9676    3.9409    5.3359 C   0  0  0  0  0  0  0  0  0  0  0  0
    5.5601    0.0697    5.0366 C   0  0  0  0  0  0  0  0  0  0  0  0
    4.4560   -0.5648    4.5128 C   0  0  0  0  0  0  0  0  0  0  0  0
    1.8444   -1.6649    3.8541 C   0  0  0  0  0  0  0  0  0  0  0  0
    1.6103   -1.7889    5.2222 C   0  0  0  0  0  0  0  0  0  0  0  0
    1.0377   -2.9381    5.7205 C   0  0  0  0  0  0  0  0  0  0  0  0
    0.6856   -3.9792    4.8643 C   0  0  0  0  0  0  0  0  0  0  0  0
   -0.1092   -5.3824    5.5807 S   0  0  0  0  0  0  0  0  0  0  0  0
   -0.9476   -6.1319    4.1536 C   0  0  0  0  0  0  0  0  0  0  0  0
    0.9763   -3.8823    3.5102 C   0  0  0  0  0  0  0  0  0  0  0  0
    1.5537   -2.7327    3.0105 C   0  0  0  0  0  0  0  0  0  0  0  0
    0.4518   -0.1904    1.7884 C   0  0  0  0  0  0  0  0  0  0  0  0
   -0.8751   -1.0654    2.4822 S   0  0  0  0  0  0  0  0  0  0  0  0
   -1.9253   -0.5436    1.1782 C   0  0  0  0  0  0  0  0  0  0  0  0
   -1.2499    0.1946    0.2037 C   0  0  0  0  0  0  0  0  0  0  0  0
   -1.7408    0.5745   -1.0270 N   0  0  0  0  0  0  0  0  0  0  0  0
   -1.2322    1.7522   -1.5951 C   0  0  0  0  0  0  0  0  0  0  0  0
   -0.8682    1.7996   -2.9369 C   0  0  0  0  0  0  0  0  0  0  0  0
   -0.2836    2.9350   -3.4646 C   0  0  0  0  0  0  0  0  0  0  0  0
   -0.0509    4.0392   -2.6541 C   0  0  0  0  0  0  0  0  0  0  0  0
    0.7508    5.5160   -3.1936 S   0  0  0  0  0  0  0  0  0  0  0  0
    1.3156    5.1227   -4.8732 C   0  0  0  0  0  0  0  0  0  0  0  0
   -0.4587    4.0111   -1.3205 C   0  0  0  0  0  0  0  0  0  0  0  0
   -1.0466    2.8830   -0.7973 C   0  0  0  0  0  0  0  0  0  0  0  0
   -2.6892   -0.1963   -1.7039 C   0  0  0  0  0  0  0  0  0  0  0  0
   -3.6816    0.4171   -2.4661 C   0  0  0  0  0  0  0  0  0  0  0  0
   -4.7029   -0.3280   -3.0208 C   0  0  0  0  0  0  0  0  0  0  0  0
   -4.7427   -1.7038   -2.8324 C   0  0  0  0  0  0  0  0  0  0  0  0
   -6.0602   -2.7156   -3.4333 S   0  0  0  0  0  0  0  0  0  0  0  0
   -7.4651   -1.5601   -3.4243 C   0  0  0  0  0  0  0  0  0  0  0  0
   -3.6992   -2.3340   -2.1582 C   0  0  0  0  0  0  0  0  0  0  0  0
   -2.6851   -1.5892   -1.6007 C   0  0  0  0  0  0  0  0  0  0  0  0
    0.0949    0.4010    0.5862 C   0  0  0  0  0  0  0  0  0  0  0  0
    1.4065    1.2595   -0.1168 S   0  0  0  0  0  0  0  0  0  0  0  0
   -3.2923   -0.9324    1.1741 C   0  0  0  0  0  0  0  0  0  0  0  0
   -4.3213   -0.1224    0.6475 C   0  0  0  0  0  0  0  0  0  0  0  0
   -5.6446   -0.6382    0.3750 C   0  0  0  0  0  0  0  0  0  0  0  0
   -6.4395    0.2969   -0.1477 N   0  0  0  0  0  0  0  0  0  0  0  0
   -5.6370    1.6885   -0.2162 S   0  0  0  0  0  4  0  0  0  0  0  0
   -4.2265    1.1755    0.3511 N   0  0  0  0  0  0  0  0  0  0  0  0
   -5.9804   -1.9930    0.5848 C   0  0  0  0  0  0  0  0  0  0  0  0
   -5.0373   -2.7158    1.3414 C   0  0  0  0  0  0  0  0  0  0  0  0
   -5.2159   -3.9224    1.8759 N   0  0  0  0  0  0  0  0  0  0  0  0
   -3.8736   -4.3706    2.6205 S   0  0  0  0  0  0  0  0  0  0  0  0
   -2.9866   -3.0589    2.3413 N   0  0  0  0  0  0  0  0  0  0  0  0
   -3.7218   -2.1881    1.6477 C   0  0  0  0  0  0  0  0  0  0  0  0
   -7.1774   -2.5211    0.0327 C   0  0  0  0  0  0  0  0  0  0  0  0
   -7.3280   -3.7593   -0.5171 C   0  0  0  0  0  0  0  0  0  0  0  0
   -6.2255   -4.6709   -0.9076 C   0  0  0  0  0  0  0  0  0  0  0  0
   -5.0437   -4.5920   -0.6385 O   0  0  0  0  0  0  0  0  0  0  0  0
   -6.8355   -5.6640   -1.8120 C   0  0  0  0  0  0  0  0  0  0  0  0
   -6.1700   -6.6688   -2.5085 C   0  0  0  0  0  0  0  0  0  0  0  0
   -6.9783   -7.4006   -3.3438 C   0  0  0  0  0  0  0  0  0  0  0  0
   -8.3504   -7.1516   -3.4808 C   0  0  0  0  0  0  0  0  0  0  0  0
   -9.0215   -6.1688   -2.7935 C   0  0  0  0  0  0  0  0  0  0  0  0
   -8.2155   -5.4120   -1.9382 C   0  0  0  0  0  0  0  0  0  0  0  0
   -8.5561   -4.2763   -1.0896 C   0  0  0  0  0  0  0  0  0  0  0  0
   -9.8190   -3.8111   -0.8313 C   0  0  0  0  0  0  0  0  0  0  0  0
  -10.1242   -2.7653    0.0659 C   0  0  0  0  0  0  0  0  0  0  0  0
  -10.4641   -1.9380    0.7863 N   0  0  0  0  0  0  0  0  0  0  0  0
  -10.9952   -4.3389   -1.4019 C   0  0  0  0  0  0  0  0  0  0  0  0
  -11.9888   -4.7083   -1.8439 N   0  0  0  0  0  0  0  0  0  0  0  0
   -8.5223   -8.2270   -4.5243 C   0  0  0  0  0  0  0  0  0  0  0  0
   -8.6376   -7.7768   -6.0024 C   0  0  0  0  0  0  0  0  0  0  0  0
   -7.9135   -6.4574   -6.1064 C   0  0  0  0  0  0  0  0  0  0  0  0
   -6.6157   -6.6952   -5.9721 C   0  0  0  0  0  0  0  0  0  0  0  0
   -6.4390   -8.1810   -5.7762 C   0  0  0  0  0  0  0  0  0  0  0  0
   -7.5950   -8.7083   -6.6407 C   0  0  0  0  0  0  0  0  0  0  0  0
   -6.9945   -8.5076   -4.3676 C   0  0  0  0  0  0  0  0  0  0  0  0
    8.1285    2.4309    3.1082 H   0  0  0  0  0  0  0  0  0  0  0  0
    3.6905    4.7651    2.5704 H   0  0  0  0  0  0  0  0  0  0  0  0
    4.9068    5.8420    3.3122 H   0  0  0  0  0  0  0  0  0  0  0  0
    3.0502    7.1947    2.3612 H   0  0  0  0  0  0  0  0  0  0  0  0
    4.5435    7.4901    1.4612 H   0  0  0  0  0  0  0  0  0  0  0  0
    3.2936    6.4376    0.7825 H   0  0  0  0  0  0  0  0  0  0  0  0
    3.9307    2.3630   -1.5142 H   0  0  0  0  0  0  0  0  0  0  0  0
    2.4735    3.2445   -2.0266 H   0  0  0  0  0  0  0  0  0  0  0  0
    3.7427    5.3613   -2.1334 H   0  0  0  0  0  0  0  0  0  0  0  0
    4.5948    4.1512   -3.1055 H   0  0  0  0  0  0  0  0  0  0  0  0
    5.1882    4.5716   -1.4979 H   0  0  0  0  0  0  0  0  0  0  0  0
    4.8463   -3.9375    2.0354 H   0  0  0  0  0  0  0  0  0  0  0  0
    8.9573   -2.2581    2.9154 H   0  0  0  0  0  0  0  0  0  0  0  0
    2.6403    2.1571    3.6618 H   0  0  0  0  0  0  0  0  0  0  0  0
    4.5841    3.2836    4.6075 H   0  0  0  0  0  0  0  0  0  0  0  0
    6.2158    4.3609    5.9982 H   0  0  0  0  0  0  0  0  0  0  0  0
    7.9405    4.3684    5.5590 H   0  0  0  0  0  0  0  0  0  0  0  0
    6.7252    4.1187    4.2920 H   0  0  0  0  0  0  0  0  0  0  0  0
    6.3782   -0.5052    5.4427 H   0  0  0  0  0  0  0  0  0  0  0  0
    4.3972   -1.6429    4.5126 H   0  0  0  0  0  0  0  0  0  0  0  0
    1.8581   -0.9716    5.8831 H   0  0  0  0  0  0  0  0  0  0  0  0
    0.8334   -3.0331    6.7757 H   0  0  0  0  0  0  0  0  0  0  0  0
   -1.6895   -6.8089    4.5650 H   0  0  0  0  0  0  0  0  0  0  0  0
   -1.4324   -5.3498    3.5765 H   0  0  0  0  0  0  0  0  0  0  0  0
   -0.2394   -6.6905    3.5482 H   0  0  0  0  0  0  0  0  0  0  0  0
    0.7581   -4.6937    2.8355 H   0  0  0  0  0  0  0  0  0  0  0  0
    1.7938   -2.6550    1.9608 H   0  0  0  0  0  0  0  0  0  0  0  0
   -1.0256    0.9348   -3.5642 H   0  0  0  0  0  0  0  0  0  0  0  0
    0.0004    2.9375   -4.5046 H   0  0  0  0  0  0  0  0  0  0  0  0
    0.4640    4.9794   -5.5319 H   0  0  0  0  0  0  0  0  0  0  0  0
    1.9537    4.2441   -4.8524 H   0  0  0  0  0  0  0  0  0  0  0  0
    1.8883    5.9859   -5.1975 H   0  0  0  0  0  0  0  0  0  0  0  0
   -0.2960    4.8808   -0.7033 H   0  0  0  0  0  0  0  0  0  0  0  0
   -1.3661    2.8606    0.2332 H   0  0  0  0  0  0  0  0  0  0  0  0
   -3.6696    1.4904   -2.5884 H   0  0  0  0  0  0  0  0  0  0  0  0
   -5.4743    0.1745   -3.5824 H   0  0  0  0  0  0  0  0  0  0  0  0
   -7.4228   -0.9040   -4.2888 H   0  0  0  0  0  0  0  0  0  0  0  0
   -7.4549   -0.9925   -2.4980 H   0  0  0  0  0  0  0  0  0  0  0  0
   -8.3585   -2.1747   -3.4795 H   0  0  0  0  0  0  0  0  0  0  0  0
   -3.7105   -3.4061   -2.0459 H   0  0  0  0  0  0  0  0  0  0  0  0
   -1.8907   -2.0844   -1.0633 H   0  0  0  0  0  0  0  0  0  0  0  0
   -7.9880   -1.8063   -0.0516 H   0  0  0  0  0  0  0  0  0  0  0  0
   -5.1094   -6.8213   -2.3833 H   0  0  0  0  0  0  0  0  0  0  0  0
  -10.0756   -5.9812   -2.9151 H   0  0  0  0  0  0  0  0  0  0  0  0
   -9.2170   -9.0278   -4.2790 H   0  0  0  0  0  0  0  0  0  0  0  0
   -9.6467   -7.8042   -6.4047 H   0  0  0  0  0  0  0  0  0  0  0  0
   -8.4071   -5.5083   -6.2033 H   0  0  0  0  0  0  0  0  0  0  0  0
   -5.8123   -5.9833   -5.9302 H   0  0  0  0  0  0  0  0  0  0  0  0
   -5.4459   -8.5768   -5.9730 H   0  0  0  0  0  0  0  0  0  0  0  0
   -7.4500   -8.5138   -7.7024 H   0  0  0  0  0  0  0  0  0  0  0  0
   -7.8053   -9.7657   -6.4858 H   0  0  0  0  0  0  0  0  0  0  0  0
   -6.6904   -9.4922   -4.0177 H   0  0  0  0  0  0  0  0  0  0  0  0
  1  2  2  0  0  0  0
  2  3  1  0  0  0  0
  3  4  2  0  0  0  0
  3  5  1  0  0  0  0
  5  6  2  0  0  0  0
  6  7  1  0  0  0  0
  6  8  1  0  0  0  0
  8  9  1  0  0  0  0
  8 10  2  0  0  0  0
 10 11  1  0  0  0  0
 10 12  1  0  0  0  0
 12 13  1  0  0  0  0
 12 14  2  0  0  0  0
 14 15  1  0  0  0  0
 15 16  2  0  0  0  0
 16 17  1  0  0  0  0
 17 18  3  0  0  0  0
 16 19  1  0  0  0  0
 19 20  3  0  0  0  0
  1 21  1  0  0  0  0
 21 22  2  0  0  0  0
 22 23  1  0  0  0  0
 23 24  1  0  0  0  0
 24 25  1  0  0  0  0
 22 26  1  0  0  0  0
 26 27  1  0  0  0  0
 27 28  1  0  0  0  0
 28 29  1  0  0  0  0
 26 30  2  0  0  0  0
 30 31  1  0  0  0  0
 31 32  2  0  0  0  0
 32 33  1  0  0  0  0
 33 34  2  0  0  0  0
 33 35  1  0  0  0  0
 35 36  1  0  0  0  0
 36 37  1  0  0  0  0
 37 38  2  0  0  0  0
 36 39  2  0  0  0  0
 39 40  1  0  0  0  0
 40 41  1  0  0  0  0
 30 42  1  0  0  0  0
 42 43  2  0  0  0  0
 43 44  1  0  0  0  0
 44 45  1  0  0  0  0
 45 46  2  0  0  0  0
 46 47  1  0  0  0  0
 47 48  2  0  0  0  0
 48 49  1  0  0  0  0
 49 50  1  0  0  0  0
 48 51  1  0  0  0  0
 51 52  2  0  0  0  0
 44 53  1  0  0  0  0
 53 54  2  0  0  0  0
 54 55  1  0  0  0  0
 55 56  2  0  0  0  0
 56 57  1  0  0  0  0
 57 58  1  0  0  0  0
 56 59  1  0  0  0  0
 59 60  2  0  0  0  0
 43 61  1  0  0  0  0
 61 62  1  0  0  0  0
 62 63  1  0  0  0  0
 63 64  2  0  0  0  0
 64 65  1  0  0  0  0
 65 66  1  0  0  0  0
 66 67  2  0  0  0  0
 67 68  1  0  0  0  0
 68 69  2  0  0  0  0
 69 70  1  0  0  0  0
 70 71  1  0  0  0  0
 69 72  1  0  0  0  0
 72 73  2  0  0  0  0
 65 74  1  0  0  0  0
 74 75  2  0  0  0  0
 75 76  1  0  0  0  0
 76 77  2  0  0  0  0
 77 78  1  0  0  0  0
 78 79  1  0  0  0  0
 77 80  1  0  0  0  0
 80 81  2  0  0  0  0
 64 82  1  0  0  0  0
 82 83  1  0  0  0  0
 63 84  1  0  0  0  0
 84 85  2  0  0  0  0
 85 86  1  0  0  0  0
 86 87  1  0  0  0  0
 87 88  2  0  0  0  0
 88 89  2  0  0  0  0
 86 90  2  0  0  0  0
 90 91  1  0  0  0  0
 91 92  2  0  0  0  0
 92 93  1  0  0  0  0
 93 94  1  0  0  0  0
 94 95  2  0  0  0  0
 90 96  1  0  0  0  0
 96 97  2  0  0  0  0
 97 98  1  0  0  0  0
 98 99  2  0  0  0  0
 98100  1  0  0  0  0
100101  2  0  0  0  0
101102  1  0  0  0  0
102103  2  0  0  0  0
103104  1  0  0  0  0
104105  2  0  0  0  0
105106  1  0  0  0  0
106107  2  0  0  0  0
107108  1  0  0  0  0
108109  3  0  0  0  0
107110  1  0  0  0  0
110111  3  0  0  0  0
103112  1  0  0  0  0
112113  1  0  0  0  0
113114  1  0  0  0  0
114115  2  0  0  0  0
115116  1  0  0  0  0
116117  1  0  0  0  0
116118  1  0  0  0  0
 15  2  1  0  0  0  0
 32 21  1  0  0  0  0
 41 35  2  0  0  0  0
 83 42  1  0  0  0  0
 95 84  1  0  0  0  0
106 97  1  0  0  0  0
118112  1  0  0  0  0
 14  5  1  0  0  0  0
 37 31  1  0  0  0  0
 52 45  1  0  0  0  0
 60 53  1  0  0  0  0
 82 61  2  0  0  0  0
 89 85  1  0  0  0  0
 95 91  1  0  0  0  0
105100  1  0  0  0  0
117113  1  0  0  0  0
 73 66  1  0  0  0  0
 81 74  1  0  0  0  0
118102  1  0  0  0  0
  1119  1  0  0  0  0
 24120  1  0  0  0  0
 24121  1  0  0  0  0
 25122  1  0  0  0  0
 25123  1  0  0  0  0
 25124  1  0  0  0  0
 28125  1  0  0  0  0
 28126  1  0  0  0  0
 29127  1  0  0  0  0
 29128  1  0  0  0  0
 29129  1  0  0  0  0
 39130  1  0  0  0  0
 41131  1  0  0  0  0
 46132  1  0  0  0  0
 47133  1  0  0  0  0
 50134  1  0  0  0  0
 50135  1  0  0  0  0
 50136  1  0  0  0  0
 51137  1  0  0  0  0
 52138  1  0  0  0  0
 54139  1  0  0  0  0
 55140  1  0  0  0  0
 58141  1  0  0  0  0
 58142  1  0  0  0  0
 58143  1  0  0  0  0
 59144  1  0  0  0  0
 60145  1  0  0  0  0
 67146  1  0  0  0  0
 68147  1  0  0  0  0
 71148  1  0  0  0  0
 71149  1  0  0  0  0
 71150  1  0  0  0  0
 72151  1  0  0  0  0
 73152  1  0  0  0  0
 75153  1  0  0  0  0
 76154  1  0  0  0  0
 79155  1  0  0  0  0
 79156  1  0  0  0  0
 79157  1  0  0  0  0
 80158  1  0  0  0  0
 81159  1  0  0  0  0
 96160  1  0  0  0  0
101161  1  0  0  0  0
104162  1  0  0  0  0
112163  1  0  0  0  0
113164  1  0  0  0  0
114165  1  0  0  0  0
115166  1  0  0  0  0
116167  1  0  0  0  0
117168  1  0  0  0  0
117169  1  0  0  0  0
118170  1  0  0  0  0
M  END
