
  xtb     02042200113D
 energy: -383.004221951115 gnorm: 0.000833701834 xtb: 6.4.1 (unknown)
212231  0     0  0            999 V2000
   10.4798   -6.5530   -0.1329 C   0  0  0  0  0  0  0  0  0  0  0  0
   11.6813   -6.3686   -0.7584 C   0  0  0  0  0  0  0  0  0  0  0  0
   12.0896   -5.1987   -1.5500 C   0  0  0  0  0  0  0  0  0  0  0  0
   11.3919   -4.2947   -1.9567 O   0  0  0  0  0  0  0  0  0  0  0  0
   13.5512   -5.3392   -1.7430 C   0  0  0  0  0  0  0  0  0  0  0  0
   14.4364   -4.4349   -2.3031 C   0  0  0  0  0  0  0  0  0  0  0  0
   13.8926   -2.9927   -3.0340 Cl  0  0  0  0  0  0  0  0  0  0  0  0
   15.8067   -4.7277   -2.2434 C   0  0  0  0  0  0  0  0  0  0  0  0
   16.9378   -3.6568   -2.9467 Cl  0  0  0  0  0  0  0  0  0  0  0  0
   16.2503   -5.8669   -1.5729 C   0  0  0  0  0  0  0  0  0  0  0  0
   17.9303   -6.1500   -1.4270 Cl  0  0  0  0  0  0  0  0  0  0  0  0
   15.3461   -6.7777   -1.0017 C   0  0  0  0  0  0  0  0  0  0  0  0
   15.9712   -8.0558   -0.0448 Cl  0  0  0  0  0  0  0  0  0  0  0  0
   13.9849   -6.5439   -1.1522 C   0  0  0  0  0  0  0  0  0  0  0  0
   12.8061   -7.2910   -0.7213 C   0  0  0  0  0  0  0  0  0  0  0  0
   12.7166   -8.6451   -0.5406 C   0  0  0  0  0  0  0  0  0  0  0  0
   11.5346   -9.3218   -0.1630 C   0  0  0  0  0  0  0  0  0  0  0  0
   10.6210   -9.9444    0.1462 N   0  0  0  0  0  0  0  0  0  0  0  0
   13.7136   -9.5901   -0.8696 C   0  0  0  0  0  0  0  0  0  0  0  0
   14.4110  -10.4394   -1.1991 N   0  0  0  0  0  0  0  0  0  0  0  0
    9.3307   -5.7393   -0.0968 C   0  0  0  0  0  0  0  0  0  0  0  0
    8.2146   -6.0864    0.6440 C   0  0  0  0  0  0  0  0  0  0  0  0
    7.1606   -5.1657    0.5598 C   0  0  0  0  0  0  0  0  0  0  0  0
    5.9095   -5.2212    1.2112 C   0  0  0  0  0  0  0  0  0  0  0  0
    5.4994   -6.3664    2.0286 C   0  0  0  0  0  0  0  0  0  0  0  0
    5.6134   -7.6663    1.5443 C   0  0  0  0  0  0  0  0  0  0  0  0
    5.1808   -8.7274    2.3219 C   0  0  0  0  0  0  0  0  0  0  0  0
    4.6179   -8.5058    3.5631 C   0  0  0  0  0  0  0  0  0  0  0  0
    4.4834   -7.2049    4.0448 C   0  0  0  0  0  0  0  0  0  0  0  0
    3.7348   -7.0034    5.6292 S   0  0  0  0  0  0  0  0  0  0  0  0
    3.2724   -5.2294    5.6554 C   0  0  0  0  0  0  0  0  0  0  0  0
    2.3157   -4.9796    6.8048 C   0  0  0  0  0  0  0  0  0  0  0  0
    4.9402   -6.1414    3.2835 C   0  0  0  0  0  0  0  0  0  0  0  0
    5.0618   -4.1526    0.9963 C   0  0  0  0  0  0  0  0  0  0  0  0
    5.3837   -3.0634    0.1462 C   0  0  0  0  0  0  0  0  0  0  0  0
    6.6391   -2.9907   -0.4791 C   0  0  0  0  0  0  0  0  0  0  0  0
    7.0088   -1.8293   -1.3000 C   0  0  0  0  0  0  0  0  0  0  0  0
    7.6137   -1.9765   -2.5442 C   0  0  0  0  0  0  0  0  0  0  0  0
    7.9600   -0.8616   -3.2868 C   0  0  0  0  0  0  0  0  0  0  0  0
    7.7023    0.4072   -2.8075 C   0  0  0  0  0  0  0  0  0  0  0  0
    7.1030    0.5667   -1.5611 C   0  0  0  0  0  0  0  0  0  0  0  0
    6.8680    2.2322   -1.0029 S   0  0  0  0  0  0  0  0  0  0  0  0
    5.4684    2.1223    0.1668 C   0  0  0  0  0  0  0  0  0  0  0  0
    4.1705    1.7731   -0.5352 C   0  0  0  0  0  0  0  0  0  0  0  0
    6.7689   -0.5472   -0.8093 C   0  0  0  0  0  0  0  0  0  0  0  0
    7.4990   -4.0597   -0.2684 C   0  0  0  0  0  0  0  0  0  0  0  0
    9.1003   -4.2172   -0.9376 S   0  0  0  0  0  0  0  0  0  0  0  0
    4.2729   -2.2069   -0.0420 C   0  0  0  0  0  0  0  0  0  0  0  0
    3.1539   -2.5968    0.6293 C   0  0  0  0  0  0  0  0  0  0  0  0
    3.4320   -4.0186    1.6129 S   0  0  0  0  0  0  0  0  0  0  0  0
    1.8408   -2.0530    0.4529 C   0  0  0  0  0  0  0  0  0  0  0  0
    1.2559   -1.7698   -0.7711 C   0  0  0  0  0  0  0  0  0  0  0  0
    1.8216   -2.0024   -2.0140 N   0  0  0  0  0  0  0  0  0  0  0  0
    2.6575   -3.1100   -2.2140 C   0  0  0  0  0  0  0  0  0  0  0  0
    2.3801   -4.3237   -1.5811 C   0  0  0  0  0  0  0  0  0  0  0  0
    3.2784   -5.3632   -1.6448 C   0  0  0  0  0  0  0  0  0  0  0  0
    4.4658   -5.2285   -2.3630 C   0  0  0  0  0  0  0  0  0  0  0  0
    5.5862   -6.5885   -2.2730 S   0  0  0  0  0  0  0  0  0  0  0  0
    6.9277   -6.1443   -3.4098 C   0  0  0  0  0  0  0  0  0  0  0  0
    4.7046   -4.0567   -3.0662 C   0  0  0  0  0  0  0  0  0  0  0  0
    3.8107   -3.0053   -2.9860 C   0  0  0  0  0  0  0  0  0  0  0  0
    1.5706   -1.0785   -3.0389 C   0  0  0  0  0  0  0  0  0  0  0  0
    1.3712   -1.5018   -4.3528 C   0  0  0  0  0  0  0  0  0  0  0  0
    1.0690   -0.5861   -5.3352 C   0  0  0  0  0  0  0  0  0  0  0  0
    0.9526    0.7707   -5.0330 C   0  0  0  0  0  0  0  0  0  0  0  0
    0.5051    1.8446   -6.3595 S   0  0  0  0  0  0  0  0  0  0  0  0
    0.7228    3.5098   -5.6678 C   0  0  0  0  0  0  0  0  0  0  0  0
    1.1714    1.1985   -3.7315 C   0  0  0  0  0  0  0  0  0  0  0  0
    1.4851    0.2808   -2.7483 C   0  0  0  0  0  0  0  0  0  0  0  0
   -0.0441   -1.2358   -0.5885 C   0  0  0  0  0  0  0  0  0  0  0  0
   -1.2482   -0.6312   -1.6679 S   0  0  0  0  0  0  0  0  0  0  0  0
   -2.2882   -0.2390   -0.3080 C   0  0  0  0  0  0  0  0  0  0  0  0
   -1.7071   -0.5254    0.9164 C   0  0  0  0  0  0  0  0  0  0  0  0
   -2.2122   -0.1687    2.1574 N   0  0  0  0  0  0  0  0  0  0  0  0
   -1.9886   -1.0345    3.2367 C   0  0  0  0  0  0  0  0  0  0  0  0
   -1.6997   -0.5397    4.5048 C   0  0  0  0  0  0  0  0  0  0  0  0
   -1.4611   -1.3998    5.5590 C   0  0  0  0  0  0  0  0  0  0  0  0
   -1.4954   -2.7735    5.3591 C   0  0  0  0  0  0  0  0  0  0  0  0
   -1.1963   -3.9717    6.6192 S   0  0  0  0  0  0  0  0  0  0  0  0
   -0.9340   -2.9838    8.1188 C   0  0  0  0  0  0  0  0  0  0  0  0
   -1.7837   -3.2728    4.0904 C   0  0  0  0  0  0  0  0  0  0  0  0
   -2.0345   -2.4161    3.0432 C   0  0  0  0  0  0  0  0  0  0  0  0
   -2.8738    1.0535    2.3290 C   0  0  0  0  0  0  0  0  0  0  0  0
   -2.5149    2.1696    1.5753 C   0  0  0  0  0  0  0  0  0  0  0  0
   -3.2611    3.3310    1.6235 C   0  0  0  0  0  0  0  0  0  0  0  0
   -4.3683    3.4128    2.4563 C   0  0  0  0  0  0  0  0  0  0  0  0
   -5.4735    4.7894    2.5206 S   0  0  0  0  0  0  0  0  0  0  0  0
   -4.7885    5.9565    1.3129 C   0  0  0  0  0  0  0  0  0  0  0  0
   -4.6651    2.3380    3.2935 C   0  0  0  0  0  0  0  0  0  0  0  0
   -3.9376    1.1703    3.2260 C   0  0  0  0  0  0  0  0  0  0  0  0
   -0.4368   -1.1327    0.7348 C   0  0  0  0  0  0  0  0  0  0  0  0
    0.7748   -1.7370    1.8106 S   0  0  0  0  0  0  0  0  0  0  0  0
   -3.4893    0.4951   -0.5704 C   0  0  0  0  0  0  0  0  0  0  0  0
   -3.5768    1.5651   -1.4093 C   0  0  0  0  0  0  0  0  0  0  0  0
   -4.7950    2.2707   -1.2942 C   0  0  0  0  0  0  0  0  0  0  0  0
   -5.1040    3.5023   -1.8911 C   0  0  0  0  0  0  0  0  0  0  0  0
   -4.2038    4.1129   -2.8809 C   0  0  0  0  0  0  0  0  0  0  0  0
   -3.7831    3.3900   -3.9930 C   0  0  0  0  0  0  0  0  0  0  0  0
   -2.9374    3.9790   -4.9181 C   0  0  0  0  0  0  0  0  0  0  0  0
   -2.5068    5.2795   -4.7442 C   0  0  0  0  0  0  0  0  0  0  0  0
   -2.9180    6.0087   -3.6295 C   0  0  0  0  0  0  0  0  0  0  0  0
   -2.2738    7.6465   -3.4789 S   0  0  0  0  0  0  0  0  0  0  0  0
   -3.2207    8.4202   -2.1201 C   0  0  0  0  0  0  0  0  0  0  0  0
   -4.6491    8.7454   -2.5100 C   0  0  0  0  0  0  0  0  0  0  0  0
   -3.7612    5.4199   -2.7011 C   0  0  0  0  0  0  0  0  0  0  0  0
   -6.2574    4.1224   -1.4455 C   0  0  0  0  0  0  0  0  0  0  0  0
   -7.1483    3.5327   -0.5048 C   0  0  0  0  0  0  0  0  0  0  0  0
   -6.8902    2.2381    0.0047 C   0  0  0  0  0  0  0  0  0  0  0  0
   -7.8745    1.5718    0.8617 C   0  0  0  0  0  0  0  0  0  0  0  0
   -7.4989    0.8689    2.0046 C   0  0  0  0  0  0  0  0  0  0  0  0
   -8.4551    0.2504    2.7881 C   0  0  0  0  0  0  0  0  0  0  0  0
   -9.7960    0.3276    2.4598 C   0  0  0  0  0  0  0  0  0  0  0  0
  -10.1810    1.0418    1.3327 C   0  0  0  0  0  0  0  0  0  0  0  0
  -11.8799    1.2271    0.8706 S   0  0  0  0  0  0  0  0  0  0  0  0
  -12.6617    1.5861    2.4869 C   0  0  0  0  0  0  0  0  0  0  0  0
  -11.9467    2.6923    3.2379 C   0  0  0  0  0  0  0  0  0  0  0  0
   -9.2250    1.6419    0.5286 C   0  0  0  0  0  0  0  0  0  0  0  0
   -5.6791    1.6714   -0.3583 C   0  0  0  0  0  0  0  0  0  0  0  0
   -4.9869    0.1995    0.2838 S   0  0  0  0  0  0  0  0  0  0  0  0
   -8.1691    4.4214   -0.1136 C   0  0  0  0  0  0  0  0  0  0  0  0
   -8.1043    5.6466   -0.7378 C   0  0  0  0  0  0  0  0  0  0  0  0
   -6.7786    5.7167   -1.8963 S   0  0  0  0  0  0  0  0  0  0  0  0
   -8.7710    6.8642   -0.5086 C   0  0  0  0  0  0  0  0  0  0  0  0
   -9.8677    7.1683    0.2483 C   0  0  0  0  0  0  0  0  0  0  0  0
  -10.9068    6.2669    0.7794 C   0  0  0  0  0  0  0  0  0  0  0  0
  -10.8633    5.0671    0.9269 O   0  0  0  0  0  0  0  0  0  0  0  0
  -12.0648    7.1543    1.0691 C   0  0  0  0  0  0  0  0  0  0  0  0
  -13.3599    6.8020    1.4070 C   0  0  0  0  0  0  0  0  0  0  0  0
  -13.8192    5.1772    1.6369 Cl  0  0  0  0  0  0  0  0  0  0  0  0
  -14.3163    7.8208    1.5346 C   0  0  0  0  0  0  0  0  0  0  0  0
  -15.9200    7.4313    1.9825 Cl  0  0  0  0  0  0  0  0  0  0  0  0
  -13.9743    9.1435    1.2604 C   0  0  0  0  0  0  0  0  0  0  0  0
  -15.1773   10.3560    1.3432 Cl  0  0  0  0  0  0  0  0  0  0  0  0
  -12.6638    9.4949    0.8977 C   0  0  0  0  0  0  0  0  0  0  0  0
  -12.3536   11.1093    0.4100 Cl  0  0  0  0  0  0  0  0  0  0  0  0
  -11.6963    8.5003    0.8590 C   0  0  0  0  0  0  0  0  0  0  0  0
  -10.2737    8.5324    0.5416 C   0  0  0  0  0  0  0  0  0  0  0  0
   -9.3837    9.5579    0.7225 C   0  0  0  0  0  0  0  0  0  0  0  0
   -7.9932    9.4136    0.5065 C   0  0  0  0  0  0  0  0  0  0  0  0
   -6.8528    9.3562    0.3823 N   0  0  0  0  0  0  0  0  0  0  0  0
   -9.6439   10.8123    1.3156 C   0  0  0  0  0  0  0  0  0  0  0  0
   -9.7178   11.8242    1.8513 N   0  0  0  0  0  0  0  0  0  0  0  0
   10.3784   -7.4475    0.4706 H   0  0  0  0  0  0  0  0  0  0  0  0
    8.1756   -6.9810    1.2399 H   0  0  0  0  0  0  0  0  0  0  0  0
    6.0024   -7.8364    0.5521 H   0  0  0  0  0  0  0  0  0  0  0  0
    5.2714   -9.7361    1.9484 H   0  0  0  0  0  0  0  0  0  0  0  0
    4.2684   -9.3283    4.1677 H   0  0  0  0  0  0  0  0  0  0  0  0
    2.8029   -4.9999    4.6986 H   0  0  0  0  0  0  0  0  0  0  0  0
    4.1839   -4.6426    5.7776 H   0  0  0  0  0  0  0  0  0  0  0  0
    1.4094   -5.5670    6.6819 H   0  0  0  0  0  0  0  0  0  0  0  0
    2.0454   -3.9262    6.8297 H   0  0  0  0  0  0  0  0  0  0  0  0
    2.7780   -5.2468    7.7523 H   0  0  0  0  0  0  0  0  0  0  0  0
    4.8928   -5.1314    3.6578 H   0  0  0  0  0  0  0  0  0  0  0  0
    7.8098   -2.9609   -2.9378 H   0  0  0  0  0  0  0  0  0  0  0  0
    8.4305   -0.9846   -4.2505 H   0  0  0  0  0  0  0  0  0  0  0  0
    7.9661    1.2821   -3.3813 H   0  0  0  0  0  0  0  0  0  0  0  0
    5.7179    1.4071    0.9493 H   0  0  0  0  0  0  0  0  0  0  0  0
    5.4186    3.1169    0.6093 H   0  0  0  0  0  0  0  0  0  0  0  0
    4.2683    0.8350   -1.0783 H   0  0  0  0  0  0  0  0  0  0  0  0
    3.9063    2.5505   -1.2484 H   0  0  0  0  0  0  0  0  0  0  0  0
    3.3679    1.6736    0.1941 H   0  0  0  0  0  0  0  0  0  0  0  0
    6.3503   -0.4425    0.1798 H   0  0  0  0  0  0  0  0  0  0  0  0
    4.2888   -1.3522   -0.6918 H   0  0  0  0  0  0  0  0  0  0  0  0
    1.4664   -4.4359   -1.0165 H   0  0  0  0  0  0  0  0  0  0  0  0
    3.0790   -6.2895   -1.1278 H   0  0  0  0  0  0  0  0  0  0  0  0
    7.4636   -5.2767   -3.0365 H   0  0  0  0  0  0  0  0  0  0  0  0
    6.5272   -5.9685   -4.4037 H   0  0  0  0  0  0  0  0  0  0  0  0
    7.5919   -7.0031   -3.4262 H   0  0  0  0  0  0  0  0  0  0  0  0
    5.5957   -3.9322   -3.6586 H   0  0  0  0  0  0  0  0  0  0  0  0
    4.0269   -2.0829   -3.5051 H   0  0  0  0  0  0  0  0  0  0  0  0
    1.4443   -2.5523   -4.5905 H   0  0  0  0  0  0  0  0  0  0  0  0
    0.9032   -0.9121   -6.3504 H   0  0  0  0  0  0  0  0  0  0  0  0
    1.7378    3.6241   -5.2997 H   0  0  0  0  0  0  0  0  0  0  0  0
   -0.0086    3.6945   -4.8860 H   0  0  0  0  0  0  0  0  0  0  0  0
    0.5535    4.1916   -6.4953 H   0  0  0  0  0  0  0  0  0  0  0  0
    1.0983    2.2408   -3.4664 H   0  0  0  0  0  0  0  0  0  0  0  0
    1.6594    0.6234   -1.7388 H   0  0  0  0  0  0  0  0  0  0  0  0
   -1.6559    0.5275    4.6646 H   0  0  0  0  0  0  0  0  0  0  0  0
   -1.2399   -0.9825    6.5280 H   0  0  0  0  0  0  0  0  0  0  0  0
   -0.7603   -3.7026    8.9133 H   0  0  0  0  0  0  0  0  0  0  0  0
   -1.8222   -2.3986    8.3378 H   0  0  0  0  0  0  0  0  0  0  0  0
   -0.0609   -2.3484    8.0016 H   0  0  0  0  0  0  0  0  0  0  0  0
   -1.8160   -4.3410    3.9415 H   0  0  0  0  0  0  0  0  0  0  0  0
   -2.2767   -2.8113    2.0679 H   0  0  0  0  0  0  0  0  0  0  0  0
   -1.6540    2.1220    0.9250 H   0  0  0  0  0  0  0  0  0  0  0  0
   -2.9670    4.1598    1.0000 H   0  0  0  0  0  0  0  0  0  0  0  0
   -4.7343    5.4758    0.3407 H   0  0  0  0  0  0  0  0  0  0  0  0
   -5.4807    6.7931    1.2763 H   0  0  0  0  0  0  0  0  0  0  0  0
   -3.8116    6.3004    1.6407 H   0  0  0  0  0  0  0  0  0  0  0  0
   -5.4980    2.4234    3.9748 H   0  0  0  0  0  0  0  0  0  0  0  0
   -4.2086    0.3271    3.8434 H   0  0  0  0  0  0  0  0  0  0  0  0
   -2.7544    1.8953   -2.0187 H   0  0  0  0  0  0  0  0  0  0  0  0
   -4.1349    2.3801   -4.1405 H   0  0  0  0  0  0  0  0  0  0  0  0
   -2.6177    3.4187   -5.7843 H   0  0  0  0  0  0  0  0  0  0  0  0
   -1.8530    5.7483   -5.4637 H   0  0  0  0  0  0  0  0  0  0  0  0
   -2.6596    9.3296   -1.9054 H   0  0  0  0  0  0  0  0  0  0  0  0
   -3.1662    7.7690   -1.2483 H   0  0  0  0  0  0  0  0  0  0  0  0
   -5.1751    7.8543   -2.8461 H   0  0  0  0  0  0  0  0  0  0  0  0
   -4.6614    9.4747   -3.3164 H   0  0  0  0  0  0  0  0  0  0  0  0
   -5.1781    9.1577   -1.6527 H   0  0  0  0  0  0  0  0  0  0  0  0
   -4.0679    5.9587   -1.8195 H   0  0  0  0  0  0  0  0  0  0  0  0
   -6.4625    0.8313    2.2961 H   0  0  0  0  0  0  0  0  0  0  0  0
   -8.1521   -0.2970    3.6685 H   0  0  0  0  0  0  0  0  0  0  0  0
  -10.5334   -0.1670    3.0731 H   0  0  0  0  0  0  0  0  0  0  0  0
  -12.7172    0.6640    3.0661 H   0  0  0  0  0  0  0  0  0  0  0  0
  -13.6728    1.8875    2.2133 H   0  0  0  0  0  0  0  0  0  0  0  0
  -10.9948    2.3442    3.6340 H   0  0  0  0  0  0  0  0  0  0  0  0
  -12.5636    3.0323    4.0677 H   0  0  0  0  0  0  0  0  0  0  0  0
  -11.7505    3.5314    2.5750 H   0  0  0  0  0  0  0  0  0  0  0  0
   -9.5452    2.1533   -0.3659 H   0  0  0  0  0  0  0  0  0  0  0  0
   -8.8978    4.2010    0.6442 H   0  0  0  0  0  0  0  0  0  0  0  0
   -8.3159    7.7000   -1.0298 H   0  0  0  0  0  0  0  0  0  0  0  0
  1  2  2  0  0  0  0
  2  3  1  0  0  0  0
  3  4  2  0  0  0  0
  3  5  1  0  0  0  0
  5  6  2  0  0  0  0
  6  7  1  0  0  0  0
  6  8  1  0  0  0  0
  8  9  1  0  0  0  0
  8 10  2  0  0  0  0
 10 11  1  0  0  0  0
 10 12  1  0  0  0  0
 12 13  1  0  0  0  0
 12 14  2  0  0  0  0
 14 15  1  0  0  0  0
 15 16  2  0  0  0  0
 16 17  1  0  0  0  0
 17 18  3  0  0  0  0
 16 19  1  0  0  0  0
 19 20  3  0  0  0  0
  1 21  1  0  0  0  0
 21 22  2  0  0  0  0
 22 23  1  0  0  0  0
 23 24  2  0  0  0  0
 24 25  1  0  0  0  0
 25 26  2  0  0  0  0
 26 27  1  0  0  0  0
 27 28  2  0  0  0  0
 28 29  1  0  0  0  0
 29 30  1  0  0  0  0
 30 31  1  0  0  0  0
 31 32  1  0  0  0  0
 29 33  2  0  0  0  0
 24 34  1  0  0  0  0
 34 35  2  0  0  0  0
 35 36  1  0  0  0  0
 36 37  1  0  0  0  0
 37 38  2  0  0  0  0
 38 39  1  0  0  0  0
 39 40  2  0  0  0  0
 40 41  1  0  0  0  0
 41 42  1  0  0  0  0
 42 43  1  0  0  0  0
 43 44  1  0  0  0  0
 41 45  2  0  0  0  0
 36 46  2  0  0  0  0
 46 47  1  0  0  0  0
 35 48  1  0  0  0  0
 48 49  2  0  0  0  0
 49 50  1  0  0  0  0
 49 51  1  0  0  0  0
 51 52  2  0  0  0  0
 52 53  1  0  0  0  0
 53 54  1  0  0  0  0
 54 55  2  0  0  0  0
 55 56  1  0  0  0  0
 56 57  2  0  0  0  0
 57 58  1  0  0  0  0
 58 59  1  0  0  0  0
 57 60  1  0  0  0  0
 60 61  2  0  0  0  0
 53 62  1  0  0  0  0
 62 63  2  0  0  0  0
 63 64  1  0  0  0  0
 64 65  2  0  0  0  0
 65 66  1  0  0  0  0
 66 67  1  0  0  0  0
 65 68  1  0  0  0  0
 68 69  2  0  0  0  0
 52 70  1  0  0  0  0
 70 71  1  0  0  0  0
 71 72  1  0  0  0  0
 72 73  2  0  0  0  0
 73 74  1  0  0  0  0
 74 75  1  0  0  0  0
 75 76  2  0  0  0  0
 76 77  1  0  0  0  0
 77 78  2  0  0  0  0
 78 79  1  0  0  0  0
 79 80  1  0  0  0  0
 78 81  1  0  0  0  0
 81 82  2  0  0  0  0
 74 83  1  0  0  0  0
 83 84  2  0  0  0  0
 84 85  1  0  0  0  0
 85 86  2  0  0  0  0
 86 87  1  0  0  0  0
 87 88  1  0  0  0  0
 86 89  1  0  0  0  0
 89 90  2  0  0  0  0
 73 91  1  0  0  0  0
 91 92  1  0  0  0  0
 72 93  1  0  0  0  0
 93 94  2  0  0  0  0
 94 95  1  0  0  0  0
 95 96  2  0  0  0  0
 96 97  1  0  0  0  0
 97 98  2  0  0  0  0
 98 99  1  0  0  0  0
 99100  2  0  0  0  0
100101  1  0  0  0  0
101102  1  0  0  0  0
102103  1  0  0  0  0
103104  1  0  0  0  0
101105  2  0  0  0  0
 96106  1  0  0  0  0
106107  2  0  0  0  0
107108  1  0  0  0  0
108109  1  0  0  0  0
109110  2  0  0  0  0
110111  1  0  0  0  0
111112  2  0  0  0  0
112113  1  0  0  0  0
113114  1  0  0  0  0
114115  1  0  0  0  0
115116  1  0  0  0  0
113117  2  0  0  0  0
108118  2  0  0  0  0
118119  1  0  0  0  0
107120  1  0  0  0  0
120121  2  0  0  0  0
121122  1  0  0  0  0
121123  1  0  0  0  0
123124  2  0  0  0  0
124125  1  0  0  0  0
125126  2  0  0  0  0
125127  1  0  0  0  0
127128  2  0  0  0  0
128129  1  0  0  0  0
128130  1  0  0  0  0
130131  1  0  0  0  0
130132  2  0  0  0  0
132133  1  0  0  0  0
132134  1  0  0  0  0
134135  1  0  0  0  0
134136  2  0  0  0  0
136137  1  0  0  0  0
137138  2  0  0  0  0
138139  1  0  0  0  0
139140  3  0  0  0  0
138141  1  0  0  0  0
141142  3  0  0  0  0
 15  2  1  0  0  0  0
 47 21  1  0  0  0  0
 92 51  1  0  0  0  0
119 93  1  0  0  0  0
137124  1  0  0  0  0
 14  5  1  0  0  0  0
 46 23  1  0  0  0  0
 61 54  1  0  0  0  0
 69 62  1  0  0  0  0
 91 70  2  0  0  0  0
118 95  1  0  0  0  0
136127  1  0  0  0  0
 33 25  1  0  0  0  0
 50 34  1  0  0  0  0
 82 75  1  0  0  0  0
 90 83  1  0  0  0  0
105 97  1  0  0  0  0
122106  1  0  0  0  0
 45 37  1  0  0  0  0
117109  1  0  0  0  0
  1143  1  0  0  0  0
 22144  1  0  0  0  0
 26145  1  0  0  0  0
 27146  1  0  0  0  0
 28147  1  0  0  0  0
 31148  1  0  0  0  0
 31149  1  0  0  0  0
 32150  1  0  0  0  0
 32151  1  0  0  0  0
 32152  1  0  0  0  0
 33153  1  0  0  0  0
 38154  1  0  0  0  0
 39155  1  0  0  0  0
 40156  1  0  0  0  0
 43157  1  0  0  0  0
 43158  1  0  0  0  0
 44159  1  0  0  0  0
 44160  1  0  0  0  0
 44161  1  0  0  0  0
 45162  1  0  0  0  0
 48163  1  0  0  0  0
 55164  1  0  0  0  0
 56165  1  0  0  0  0
 59166  1  0  0  0  0
 59167  1  0  0  0  0
 59168  1  0  0  0  0
 60169  1  0  0  0  0
 61170  1  0  0  0  0
 63171  1  0  0  0  0
 64172  1  0  0  0  0
 67173  1  0  0  0  0
 67174  1  0  0  0  0
 67175  1  0  0  0  0
 68176  1  0  0  0  0
 69177  1  0  0  0  0
 76178  1  0  0  0  0
 77179  1  0  0  0  0
 80180  1  0  0  0  0
 80181  1  0  0  0  0
 80182  1  0  0  0  0
 81183  1  0  0  0  0
 82184  1  0  0  0  0
 84185  1  0  0  0  0
 85186  1  0  0  0  0
 88187  1  0  0  0  0
 88188  1  0  0  0  0
 88189  1  0  0  0  0
 89190  1  0  0  0  0
 90191  1  0  0  0  0
 94192  1  0  0  0  0
 98193  1  0  0  0  0
 99194  1  0  0  0  0
100195  1  0  0  0  0
103196  1  0  0  0  0
103197  1  0  0  0  0
104198  1  0  0  0  0
104199  1  0  0  0  0
104200  1  0  0  0  0
105201  1  0  0  0  0
110202  1  0  0  0  0
111203  1  0  0  0  0
112204  1  0  0  0  0
115205  1  0  0  0  0
115206  1  0  0  0  0
116207  1  0  0  0  0
116208  1  0  0  0  0
116209  1  0  0  0  0
117210  1  0  0  0  0
120211  1  0  0  0  0
123212  1  0  0  0  0
M  END
