
  xtb     02042204313D
 energy: -374.435555514062 gnorm: 0.000277550411 xtb: 6.4.1 (unknown)
193210  0     0  0            999 V2000
    5.4751    0.9292    6.5579 C   0  0  0  0  0  0  0  0  0  0  0  0
    5.5620    2.2752    6.6602 C   0  0  0  0  0  0  0  0  0  0  0  0
    6.4253    2.9110    7.6856 C   0  0  0  0  0  0  0  0  0  0  0  0
    7.3532    2.4102    8.2705 O   0  0  0  0  0  0  0  0  0  0  0  0
    5.7990    4.2350    7.9245 C   0  0  0  0  0  0  0  0  0  0  0  0
    6.0831    5.1562    8.9189 C   0  0  0  0  0  0  0  0  0  0  0  0
    7.4182    4.9524    9.9622 Cl  0  0  0  0  0  0  0  0  0  0  0  0
    5.2355    6.2643    9.0591 C   0  0  0  0  0  0  0  0  0  0  0  0
    5.5648    7.4418   10.2535 Cl  0  0  0  0  0  0  0  0  0  0  0  0
    4.1006    6.3865    8.2567 C   0  0  0  0  0  0  0  0  0  0  0  0
    3.0290    7.6930    8.5148 Cl  0  0  0  0  0  0  0  0  0  0  0  0
    3.8138    5.4489    7.2524 C   0  0  0  0  0  0  0  0  0  0  0  0
    2.3219    5.5587    6.4169 Cl  0  0  0  0  0  0  0  0  0  0  0  0
    4.7061    4.4048    7.0467 C   0  0  0  0  0  0  0  0  0  0  0  0
    4.7193    3.3132    6.0778 C   0  0  0  0  0  0  0  0  0  0  0  0
    4.2670    3.3467    4.7898 C   0  0  0  0  0  0  0  0  0  0  0  0
    4.5226    2.3352    3.8426 C   0  0  0  0  0  0  0  0  0  0  0  0
    4.7179    1.5780    3.0020 N   0  0  0  0  0  0  0  0  0  0  0  0
    3.6485    4.4317    4.1265 C   0  0  0  0  0  0  0  0  0  0  0  0
    3.1956    5.2492    3.4618 N   0  0  0  0  0  0  0  0  0  0  0  0
    4.3491    0.2589    5.9057 C   0  0  0  0  0  0  0  0  0  0  0  0
    3.0293    0.4844    6.3118 C   0  0  0  0  0  0  0  0  0  0  0  0
    2.6750    1.5484    7.6917 S   0  0  0  0  0  0  0  0  0  0  0  0
    3.7590    0.9158    9.0366 C   0  0  0  0  0  0  0  0  0  0  0  0
    2.9653    0.8178   10.3253 C   0  0  0  0  0  0  0  0  0  0  0  0
    1.9641    0.0471    5.5162 C   0  0  0  0  0  0  0  0  0  0  0  0
    0.2871    0.4230    5.9128 S   0  0  0  0  0  0  0  0  0  0  0  0
    0.0728   -0.2354    7.6154 C   0  0  0  0  0  0  0  0  0  0  0  0
    0.9095   -1.4627    7.9051 C   0  0  0  0  0  0  0  0  0  0  0  0
    2.2181   -0.6033    4.2950 C   0  0  0  0  0  0  0  0  0  0  0  0
    3.5316   -1.0087    4.0008 C   0  0  0  0  0  0  0  0  0  0  0  0
    4.5931   -0.5290    4.7762 C   0  0  0  0  0  0  0  0  0  0  0  0
    5.9829   -0.5038    4.2917 C   0  0  0  0  0  0  0  0  0  0  0  0
    6.8489    0.0850    4.9212 O   0  0  0  0  0  0  0  0  0  0  0  0
    6.1861   -1.0879    2.9751 C   0  0  0  0  0  0  0  0  0  0  0  0
    5.1325   -1.7484    2.2767 C   0  0  0  0  0  0  0  0  0  0  0  0
    3.7960   -1.9159    2.8547 C   0  0  0  0  0  0  0  0  0  0  0  0
    3.0060   -2.7535    2.4659 O   0  0  0  0  0  0  0  0  0  0  0  0
    5.5168   -2.1591    1.0348 C   0  0  0  0  0  0  0  0  0  0  0  0
    7.1439   -1.7367    0.6927 S   0  0  0  0  0  0  0  0  0  0  0  0
    7.3346   -1.0215    2.2352 C   0  0  0  0  0  0  0  0  0  0  0  0
    1.2861   -0.5926    3.1802 C   0  0  0  0  0  0  0  0  0  0  0  0
   -0.0348   -0.9179    2.9480 C   0  0  0  0  0  0  0  0  0  0  0  0
   -0.9533   -1.4983    3.8053 N   0  0  0  0  0  0  0  0  0  0  0  0
   -2.2859   -1.0588    3.6576 C   0  0  0  0  0  0  0  0  0  0  0  0
   -2.5521    0.3095    3.6147 C   0  0  0  0  0  0  0  0  0  0  0  0
   -3.8420    0.7583    3.4453 C   0  0  0  0  0  0  0  0  0  0  0  0
   -4.8943   -0.1473    3.3195 C   0  0  0  0  0  0  0  0  0  0  0  0
   -6.5010    0.5471    3.1089 S   0  0  0  0  0  0  0  0  0  0  0  0
   -7.6156   -0.8810    3.2227 C   0  0  0  0  0  0  0  0  0  0  0  0
   -4.6324   -1.5109    3.3589 C   0  0  0  0  0  0  0  0  0  0  0  0
   -3.3364   -1.9603    3.5226 C   0  0  0  0  0  0  0  0  0  0  0  0
   -0.6471   -2.5400    4.6764 C   0  0  0  0  0  0  0  0  0  0  0  0
   -1.4803   -2.8016    5.7685 C   0  0  0  0  0  0  0  0  0  0  0  0
   -1.2214   -3.8613    6.6087 C   0  0  0  0  0  0  0  0  0  0  0  0
   -0.1127   -4.6782    6.3970 C   0  0  0  0  0  0  0  0  0  0  0  0
    0.1440   -5.9910    7.5547 S   0  0  0  0  0  0  0  0  0  0  0  0
    1.3419   -7.0666    6.7153 C   0  0  0  0  0  0  0  0  0  0  0  0
    0.7318   -4.4085    5.3289 C   0  0  0  0  0  0  0  0  0  0  0  0
    0.4623   -3.3582    4.4723 C   0  0  0  0  0  0  0  0  0  0  0  0
   -0.3942   -0.6062    1.6053 C   0  0  0  0  0  0  0  0  0  0  0  0
   -1.8114   -0.8809    0.6575 S   0  0  0  0  0  0  0  0  0  0  0  0
   -0.9935   -0.2704   -0.7816 C   0  0  0  0  0  0  0  0  0  0  0  0
    0.3261    0.0945   -0.5356 C   0  0  0  0  0  0  0  0  0  0  0  0
    1.2905    0.4833   -1.4378 N   0  0  0  0  0  0  0  0  0  0  0  0
    1.4047   -0.0573   -2.7231 C   0  0  0  0  0  0  0  0  0  0  0  0
    0.9049   -1.3179   -3.0405 C   0  0  0  0  0  0  0  0  0  0  0  0
    0.9961   -1.8125   -4.3277 C   0  0  0  0  0  0  0  0  0  0  0  0
    1.6054   -1.0597   -5.3238 C   0  0  0  0  0  0  0  0  0  0  0  0
    1.7175   -1.5495   -7.0128 S   0  0  0  0  0  0  0  0  0  0  0  0
    0.6292   -2.9946   -7.1242 C   0  0  0  0  0  0  0  0  0  0  0  0
    2.1579    0.1812   -4.9962 C   0  0  0  0  0  0  0  0  0  0  0  0
    2.0491    0.6813   -3.7198 C   0  0  0  0  0  0  0  0  0  0  0  0
    2.3610    1.2557   -0.9295 C   0  0  0  0  0  0  0  0  0  0  0  0
    2.1000    2.4471   -0.2536 C   0  0  0  0  0  0  0  0  0  0  0  0
    3.1362    3.1876    0.2720 C   0  0  0  0  0  0  0  0  0  0  0  0
    4.4520    2.7501    0.1366 C   0  0  0  0  0  0  0  0  0  0  0  0
    5.7107    3.7807    0.8140 S   0  0  0  0  0  0  0  0  0  0  0  0
    7.1136    2.6421    1.0094 C   0  0  0  0  0  0  0  0  0  0  0  0
    4.7153    1.5664   -0.5421 C   0  0  0  0  0  0  0  0  0  0  0  0
    3.6772    0.8268   -1.0712 C   0  0  0  0  0  0  0  0  0  0  0  0
    0.6244   -0.0699    0.8416 C   0  0  0  0  0  0  0  0  0  0  0  0
    2.0678    0.1111    1.7582 S   0  0  0  0  0  0  0  0  0  0  0  0
   -1.7531   -0.3206   -1.9815 C   0  0  0  0  0  0  0  0  0  0  0  0
   -1.6264    0.2660   -3.2187 C   0  0  0  0  0  0  0  0  0  0  0  0
   -2.6698   -0.2556   -4.0244 C   0  0  0  0  0  0  0  0  0  0  0  0
   -3.0440   -0.0963   -5.3703 C   0  0  0  0  0  0  0  0  0  0  0  0
   -2.3936    0.7860   -6.3421 C   0  0  0  0  0  0  0  0  0  0  0  0
   -3.1684    1.4511   -7.2919 C   0  0  0  0  0  0  0  0  0  0  0  0
   -2.5607    2.2547   -8.2334 C   0  0  0  0  0  0  0  0  0  0  0  0
   -3.3496    2.8875   -9.1283 F   0  0  0  0  0  0  0  0  0  0  0  0
   -1.1853    2.4423   -8.3027 C   0  0  0  0  0  0  0  0  0  0  0  0
   -0.5396    3.3362   -9.3186 C   0  0  0  0  0  0  0  0  0  0  0  0
   -0.2963    4.7295   -8.7341 C   0  0  0  0  0  0  0  0  0  0  0  0
   -0.4475    1.7736   -7.3314 C   0  0  0  0  0  0  0  0  0  0  0  0
    0.8898    1.9319   -7.3284 F   0  0  0  0  0  0  0  0  0  0  0  0
   -1.0133    0.9611   -6.3693 C   0  0  0  0  0  0  0  0  0  0  0  0
   -4.1130   -0.8939   -5.7562 C   0  0  0  0  0  0  0  0  0  0  0  0
   -4.8217   -1.7905   -4.9108 C   0  0  0  0  0  0  0  0  0  0  0  0
   -4.4718   -1.9205   -3.5538 C   0  0  0  0  0  0  0  0  0  0  0  0
   -5.1303   -2.8433   -2.6286 C   0  0  0  0  0  0  0  0  0  0  0  0
   -5.4920   -4.1236   -3.0412 C   0  0  0  0  0  0  0  0  0  0  0  0
   -6.1015   -4.9820   -2.1484 C   0  0  0  0  0  0  0  0  0  0  0  0
   -6.3901   -4.6354   -0.8333 C   0  0  0  0  0  0  0  0  0  0  0  0
   -7.0235   -5.5879    0.1369 C   0  0  0  0  0  0  0  0  0  0  0  0
   -5.9567   -6.2533    1.0098 C   0  0  0  0  0  0  0  0  0  0  0  0
   -6.0013   -3.3534   -0.4601 C   0  0  0  0  0  0  0  0  0  0  0  0
   -5.3844   -2.4627   -1.3122 C   0  0  0  0  0  0  0  0  0  0  0  0
   -6.2579   -2.9563    0.8058 F   0  0  0  0  0  0  0  0  0  0  0  0
   -6.4371   -6.2154   -2.5787 F   0  0  0  0  0  0  0  0  0  0  0  0
   -3.3995   -1.1326   -3.1692 C   0  0  0  0  0  0  0  0  0  0  0  0
   -2.8389   -1.1440   -1.9418 O   0  0  0  0  0  0  0  0  0  0  0  0
   -5.7855   -2.4045   -5.7431 C   0  0  0  0  0  0  0  0  0  0  0  0
   -5.5740   -1.9222   -7.0168 C   0  0  0  0  0  0  0  0  0  0  0  0
   -4.5820   -0.9860   -7.0182 O   0  0  0  0  0  0  0  0  0  0  0  0
   -6.1668   -2.2772   -8.2528 C   0  0  0  0  0  0  0  0  0  0  0  0
   -5.6443   -1.9978   -9.4785 C   0  0  0  0  0  0  0  0  0  0  0  0
   -6.4809   -2.0660  -10.7016 C   0  0  0  0  0  0  0  0  0  0  0  0
   -7.5628   -2.5884  -10.8121 O   0  0  0  0  0  0  0  0  0  0  0  0
   -5.7236   -1.2972  -11.7205 C   0  0  0  0  0  0  0  0  0  0  0  0
   -6.1225   -0.9083  -12.9877 C   0  0  0  0  0  0  0  0  0  0  0  0
   -7.6104   -1.4200  -13.6462 Cl  0  0  0  0  0  0  0  0  0  0  0  0
   -5.2714   -0.0703  -13.7239 C   0  0  0  0  0  0  0  0  0  0  0  0
   -5.7147    0.4177  -15.3008 Cl  0  0  0  0  0  0  0  0  0  0  0  0
   -4.0810    0.3906  -13.1632 C   0  0  0  0  0  0  0  0  0  0  0  0
   -3.1002    1.4741  -14.0486 Cl  0  0  0  0  0  0  0  0  0  0  0  0
   -3.6768   -0.0130  -11.8802 C   0  0  0  0  0  0  0  0  0  0  0  0
   -2.2688    0.6842  -11.2013 Cl  0  0  0  0  0  0  0  0  0  0  0  0
   -4.4820   -0.8998  -11.1798 C   0  0  0  0  0  0  0  0  0  0  0  0
   -4.3262   -1.5335   -9.8728 C   0  0  0  0  0  0  0  0  0  0  0  0
   -3.1502   -1.9296   -9.2963 C   0  0  0  0  0  0  0  0  0  0  0  0
   -1.8509   -1.7858   -9.8286 C   0  0  0  0  0  0  0  0  0  0  0  0
   -0.7582   -1.8112  -10.1792 N   0  0  0  0  0  0  0  0  0  0  0  0
   -3.0725   -2.7475   -8.1466 C   0  0  0  0  0  0  0  0  0  0  0  0
   -2.9112   -3.4433   -7.2474 N   0  0  0  0  0  0  0  0  0  0  0  0
    6.1727    0.3426    7.1436 H   0  0  0  0  0  0  0  0  0  0  0  0
    4.1312   -0.0575    8.7234 H   0  0  0  0  0  0  0  0  0  0  0  0
    4.5938    1.6071    9.1497 H   0  0  0  0  0  0  0  0  0  0  0  0
    3.6195    0.4850   11.1281 H   0  0  0  0  0  0  0  0  0  0  0  0
    2.1464    0.1095   10.2260 H   0  0  0  0  0  0  0  0  0  0  0  0
    2.5552    1.7889   10.5925 H   0  0  0  0  0  0  0  0  0  0  0  0
    0.2703    0.5696    8.3217 H   0  0  0  0  0  0  0  0  0  0  0  0
   -0.9888   -0.4795    7.6343 H   0  0  0  0  0  0  0  0  0  0  0  0
    1.9619   -1.2128    8.0123 H   0  0  0  0  0  0  0  0  0  0  0  0
    0.5692   -1.9183    8.8329 H   0  0  0  0  0  0  0  0  0  0  0  0
    0.8114   -2.1950    7.1089 H   0  0  0  0  0  0  0  0  0  0  0  0
    4.9187   -2.6647    0.3029 H   0  0  0  0  0  0  0  0  0  0  0  0
    8.2690   -0.5829    2.5258 H   0  0  0  0  0  0  0  0  0  0  0  0
   -1.7392    1.0113    3.7264 H   0  0  0  0  0  0  0  0  0  0  0  0
   -4.0530    1.8162    3.4151 H   0  0  0  0  0  0  0  0  0  0  0  0
   -7.4430   -1.5555    2.3910 H   0  0  0  0  0  0  0  0  0  0  0  0
   -7.4724   -1.3814    4.1758 H   0  0  0  0  0  0  0  0  0  0  0  0
   -8.6196   -0.4722    3.1664 H   0  0  0  0  0  0  0  0  0  0  0  0
   -5.4237   -2.2321    3.2429 H   0  0  0  0  0  0  0  0  0  0  0  0
   -3.1351   -3.0211    3.5391 H   0  0  0  0  0  0  0  0  0  0  0  0
   -2.3363   -2.1699    5.9506 H   0  0  0  0  0  0  0  0  0  0  0  0
   -1.8712   -4.0644    7.4460 H   0  0  0  0  0  0  0  0  0  0  0  0
    2.3202   -6.5951    6.6886 H   0  0  0  0  0  0  0  0  0  0  0  0
    0.9871   -7.2938    5.7146 H   0  0  0  0  0  0  0  0  0  0  0  0
    1.3886   -7.9744    7.3087 H   0  0  0  0  0  0  0  0  0  0  0  0
    1.6029   -5.0150    5.1398 H   0  0  0  0  0  0  0  0  0  0  0  0
    1.1178   -3.1889    3.6333 H   0  0  0  0  0  0  0  0  0  0  0  0
    0.4526   -1.9268   -2.2729 H   0  0  0  0  0  0  0  0  0  0  0  0
    0.5893   -2.7878   -4.5401 H   0  0  0  0  0  0  0  0  0  0  0  0
    0.5437   -3.2066   -8.1857 H   0  0  0  0  0  0  0  0  0  0  0  0
    1.0733   -3.8432   -6.6118 H   0  0  0  0  0  0  0  0  0  0  0  0
   -0.3514   -2.7583   -6.7204 H   0  0  0  0  0  0  0  0  0  0  0  0
    2.6421    0.7567   -5.7687 H   0  0  0  0  0  0  0  0  0  0  0  0
    2.4536    1.6541   -3.4845 H   0  0  0  0  0  0  0  0  0  0  0  0
    1.0792    2.7813   -0.1400 H   0  0  0  0  0  0  0  0  0  0  0  0
    2.9400    4.1085    0.7993 H   0  0  0  0  0  0  0  0  0  0  0  0
    6.7733    1.7605    1.5448 H   0  0  0  0  0  0  0  0  0  0  0  0
    7.8476    3.1784    1.6027 H   0  0  0  0  0  0  0  0  0  0  0  0
    7.5387    2.3893    0.0425 H   0  0  0  0  0  0  0  0  0  0  0  0
    5.7257    1.2107   -0.6637 H   0  0  0  0  0  0  0  0  0  0  0  0
    3.8824   -0.0942   -1.5971 H   0  0  0  0  0  0  0  0  0  0  0  0
   -0.8951    0.9935   -3.4991 H   0  0  0  0  0  0  0  0  0  0  0  0
   -4.2425    1.3652   -7.2970 H   0  0  0  0  0  0  0  0  0  0  0  0
    0.4134    2.9005   -9.6242 H   0  0  0  0  0  0  0  0  0  0  0  0
   -1.1858    3.4177  -10.1937 H   0  0  0  0  0  0  0  0  0  0  0  0
    0.3598    4.6688   -7.8689 H   0  0  0  0  0  0  0  0  0  0  0  0
   -1.2369    5.1821   -8.4276 H   0  0  0  0  0  0  0  0  0  0  0  0
    0.1701    5.3688   -9.4790 H   0  0  0  0  0  0  0  0  0  0  0  0
   -0.3744    0.4529   -5.6679 H   0  0  0  0  0  0  0  0  0  0  0  0
   -5.2682   -4.4695   -4.0370 H   0  0  0  0  0  0  0  0  0  0  0  0
   -7.5751   -6.3523   -0.4115 H   0  0  0  0  0  0  0  0  0  0  0  0
   -7.7223   -5.0424    0.7746 H   0  0  0  0  0  0  0  0  0  0  0  0
   -6.4241   -6.9386    1.7122 H   0  0  0  0  0  0  0  0  0  0  0  0
   -5.2570   -6.8121    0.3924 H   0  0  0  0  0  0  0  0  0  0  0  0
   -5.4024   -5.5043    1.5708 H   0  0  0  0  0  0  0  0  0  0  0  0
   -5.1141   -1.4843   -0.9506 H   0  0  0  0  0  0  0  0  0  0  0  0
   -6.5260   -3.1259   -5.4658 H   0  0  0  0  0  0  0  0  0  0  0  0
   -7.1372   -2.7542   -8.2209 H   0  0  0  0  0  0  0  0  0  0  0  0
  1  2  2  0  0  0  0
  2  3  1  0  0  0  0
  3  4  2  0  0  0  0
  3  5  1  0  0  0  0
  5  6  2  0  0  0  0
  6  7  1  0  0  0  0
  6  8  1  0  0  0  0
  8  9  1  0  0  0  0
  8 10  2  0  0  0  0
 10 11  1  0  0  0  0
 10 12  1  0  0  0  0
 12 13  1  0  0  0  0
 12 14  2  0  0  0  0
 14 15  1  0  0  0  0
 15 16  2  0  0  0  0
 16 17  1  0  0  0  0
 17 18  3  0  0  0  0
 16 19  1  0  0  0  0
 19 20  3  0  0  0  0
  1 21  1  0  0  0  0
 21 22  2  0  0  0  0
 22 23  1  0  0  0  0
 23 24  1  0  0  0  0
 24 25  1  0  0  0  0
 22 26  1  0  0  0  0
 26 27  1  0  0  0  0
 27 28  1  0  0  0  0
 28 29  1  0  0  0  0
 26 30  2  0  0  0  0
 30 31  1  0  0  0  0
 31 32  2  0  0  0  0
 32 33  1  0  0  0  0
 33 34  2  0  0  0  0
 33 35  1  0  0  0  0
 35 36  1  0  0  0  0
 36 37  1  0  0  0  0
 37 38  2  0  0  0  0
 36 39  2  0  0  0  0
 39 40  1  0  0  0  0
 40 41  1  0  0  0  0
 30 42  1  0  0  0  0
 42 43  2  0  0  0  0
 43 44  1  0  0  0  0
 44 45  1  0  0  0  0
 45 46  2  0  0  0  0
 46 47  1  0  0  0  0
 47 48  2  0  0  0  0
 48 49  1  0  0  0  0
 49 50  1  0  0  0  0
 48 51  1  0  0  0  0
 51 52  2  0  0  0  0
 44 53  1  0  0  0  0
 53 54  2  0  0  0  0
 54 55  1  0  0  0  0
 55 56  2  0  0  0  0
 56 57  1  0  0  0  0
 57 58  1  0  0  0  0
 56 59  1  0  0  0  0
 59 60  2  0  0  0  0
 43 61  1  0  0  0  0
 61 62  1  0  0  0  0
 62 63  1  0  0  0  0
 63 64  2  0  0  0  0
 64 65  1  0  0  0  0
 65 66  1  0  0  0  0
 66 67  2  0  0  0  0
 67 68  1  0  0  0  0
 68 69  2  0  0  0  0
 69 70  1  0  0  0  0
 70 71  1  0  0  0  0
 69 72  1  0  0  0  0
 72 73  2  0  0  0  0
 65 74  1  0  0  0  0
 74 75  2  0  0  0  0
 75 76  1  0  0  0  0
 76 77  2  0  0  0  0
 77 78  1  0  0  0  0
 78 79  1  0  0  0  0
 77 80  1  0  0  0  0
 80 81  2  0  0  0  0
 64 82  1  0  0  0  0
 82 83  1  0  0  0  0
 63 84  1  0  0  0  0
 84 85  2  0  0  0  0
 85 86  1  0  0  0  0
 86 87  2  0  0  0  0
 87 88  1  0  0  0  0
 88 89  2  0  0  0  0
 89 90  1  0  0  0  0
 90 91  1  0  0  0  0
 90 92  2  0  0  0  0
 92 93  1  0  0  0  0
 93 94  1  0  0  0  0
 92 95  1  0  0  0  0
 95 96  1  0  0  0  0
 95 97  2  0  0  0  0
 87 98  1  0  0  0  0
 98 99  2  0  0  0  0
 99100  1  0  0  0  0
100101  1  0  0  0  0
101102  2  0  0  0  0
102103  1  0  0  0  0
103104  2  0  0  0  0
104105  1  0  0  0  0
105106  1  0  0  0  0
104107  1  0  0  0  0
107108  2  0  0  0  0
107109  1  0  0  0  0
103110  1  0  0  0  0
100111  2  0  0  0  0
111112  1  0  0  0  0
 99113  1  0  0  0  0
113114  2  0  0  0  0
114115  1  0  0  0  0
114116  1  0  0  0  0
116117  2  0  0  0  0
117118  1  0  0  0  0
118119  2  0  0  0  0
118120  1  0  0  0  0
120121  2  0  0  0  0
121122  1  0  0  0  0
121123  1  0  0  0  0
123124  1  0  0  0  0
123125  2  0  0  0  0
125126  1  0  0  0  0
125127  1  0  0  0  0
127128  1  0  0  0  0
127129  2  0  0  0  0
129130  1  0  0  0  0
130131  2  0  0  0  0
131132  1  0  0  0  0
132133  3  0  0  0  0
131134  1  0  0  0  0
134135  3  0  0  0  0
 15  2  1  0  0  0  0
 32 21  1  0  0  0  0
 41 35  2  0  0  0  0
 83 42  1  0  0  0  0
112 84  1  0  0  0  0
130117  1  0  0  0  0
 14  5  1  0  0  0  0
 37 31  1  0  0  0  0
 52 45  1  0  0  0  0
 60 53  1  0  0  0  0
 82 61  2  0  0  0  0
111 86  1  0  0  0  0
129120  1  0  0  0  0
 73 66  1  0  0  0  0
 81 74  1  0  0  0  0
 97 88  1  0  0  0  0
115 98  1  0  0  0  0
108101  1  0  0  0  0
  1136  1  0  0  0  0
 24137  1  0  0  0  0
 24138  1  0  0  0  0
 25139  1  0  0  0  0
 25140  1  0  0  0  0
 25141  1  0  0  0  0
 28142  1  0  0  0  0
 28143  1  0  0  0  0
 29144  1  0  0  0  0
 29145  1  0  0  0  0
 29146  1  0  0  0  0
 39147  1  0  0  0  0
 41148  1  0  0  0  0
 46149  1  0  0  0  0
 47150  1  0  0  0  0
 50151  1  0  0  0  0
 50152  1  0  0  0  0
 50153  1  0  0  0  0
 51154  1  0  0  0  0
 52155  1  0  0  0  0
 54156  1  0  0  0  0
 55157  1  0  0  0  0
 58158  1  0  0  0  0
 58159  1  0  0  0  0
 58160  1  0  0  0  0
 59161  1  0  0  0  0
 60162  1  0  0  0  0
 67163  1  0  0  0  0
 68164  1  0  0  0  0
 71165  1  0  0  0  0
 71166  1  0  0  0  0
 71167  1  0  0  0  0
 72168  1  0  0  0  0
 73169  1  0  0  0  0
 75170  1  0  0  0  0
 76171  1  0  0  0  0
 79172  1  0  0  0  0
 79173  1  0  0  0  0
 79174  1  0  0  0  0
 80175  1  0  0  0  0
 81176  1  0  0  0  0
 85177  1  0  0  0  0
 89178  1  0  0  0  0
 93179  1  0  0  0  0
 93180  1  0  0  0  0
 94181  1  0  0  0  0
 94182  1  0  0  0  0
 94183  1  0  0  0  0
 97184  1  0  0  0  0
102185  1  0  0  0  0
105186  1  0  0  0  0
105187  1  0  0  0  0
106188  1  0  0  0  0
106189  1  0  0  0  0
106190  1  0  0  0  0
108191  1  0  0  0  0
113192  1  0  0  0  0
116193  1  0  0  0  0
M  END
