133

C         -4.13870       -7.98360        0.62890
C         -5.48040       -7.93590        0.42080
C         -6.19490       -6.65550        0.24980
O         -5.70220       -5.55740        0.11530
C         -7.63250       -7.00150        0.32260
C         -8.72110       -6.14710        0.31640
Cl        -8.53410       -4.47270        0.04720
C         -9.99260       -6.69110        0.54810
Cl       -11.37080       -5.68170        0.51700
C        -10.12770       -8.04620        0.84790
Cl       -11.67570       -8.66740        1.22490
C         -9.01760       -8.90680        0.86270
Cl        -9.24590      -10.51400        1.41080
C         -7.77020       -8.39180        0.52680
C         -6.45370       -9.01450        0.42380
C         -6.16800      -10.32890        0.17610
C         -4.85160      -10.83760        0.10740
N         -3.80940      -11.31370        0.03950
C         -7.08140      -11.33150       -0.21780
N         -7.70560      -12.18730       -0.65850
C         -3.31130       -6.77020        0.53160
C         -2.76970       -6.26050       -0.65690
S         -2.81300       -6.92620       -2.28040
C         -3.79040       -8.47010       -2.33630
C         -5.20940       -8.20860       -2.80190
C         -2.00200       -5.08260       -0.59120
S         -1.28100       -4.49980       -2.11220
C          0.49850       -4.79060       -1.78360
C          0.78740       -6.23050       -1.41480
C         -1.81900       -4.37610        0.58870
C         -2.36580       -4.87450        1.77900
C         -3.05740       -6.09370        1.73600
C         -3.54890       -6.76920        2.94500
O         -4.12140       -7.84920        2.86880
C         -3.26230       -6.09890        4.20010
C         -2.65280       -4.81060        4.23810
C         -2.28460       -4.07560        3.02300
O         -1.97670       -2.89930        3.04400
C         -2.48950       -4.35920        5.51530
S         -3.05560       -5.48780        6.67610
C         -3.53850       -6.57870        5.45290
C         -1.01850       -3.13770        0.59210
C         -1.38920       -2.02230       -0.15010
C         -0.62020       -0.87840       -0.13320
C          0.54480       -0.79700        0.63330
C          0.92400       -1.92380        1.36910
F          2.05370       -1.91580        2.09650
C          0.15820       -3.07450        1.33680
F          0.56170       -4.15700        2.02930
C          1.31740        0.42780        0.65660
C          2.27170        0.88420        1.52280
C          2.65620        2.17350        1.06380
C          3.54390        3.14290        1.55570
C          4.38210        2.94470        2.73950
C          5.01280        1.72480        2.97170
C          5.80410        1.57060        4.09210
F          6.40570        0.37980        4.28610
C          6.00680        2.57700        5.03030
C          6.89670        2.39570        6.22320
C          8.33200        2.80920        5.88760
C          5.36660        3.78130        4.75730
F          5.51750        4.80140        5.62600
C          4.57320        3.98370        3.64690
C          3.56580        4.31890        0.81520
C          2.78970        4.53980       -0.35850
C          1.89330        3.57040       -0.84660
C          1.05580        3.77210       -2.02840
C          0.82080        2.71830       -2.90970
C          0.03220        2.92380       -4.02270
C         -0.56280        4.14450       -4.32400
C         -1.44400        4.33040       -5.52260
C         -2.88710        3.93870       -5.19460
C         -0.32110        5.16490       -3.40990
C          0.46780        5.00850       -2.28810
F         -0.88530        6.36860       -3.62770
F         -0.16440        1.88750       -4.86310
C          1.86710        2.40300       -0.09720
O          1.06640        1.33830       -0.32510
C          3.17560        5.81440       -0.82810
C          4.11030        6.30320        0.06100
O          4.34630        5.39000        1.05600
C          4.86780        7.49590        0.15020
C          4.78940        8.64950       -0.57070
C          3.78870        9.02610       -1.59650
O          2.99640        8.31740       -2.17210
C          3.92990       10.49140       -1.76060
C          3.13370       11.35160       -2.49830
Cl         1.87650       10.77120       -3.49350
C          3.38030       12.72890       -2.39840
Cl         2.44680       13.82880       -3.31360
C          4.35590       13.20490       -1.52260
Cl         4.56920       14.89160       -1.34520
C          5.15640       12.32670       -0.77360
Cl         6.21040       12.98590        0.40670
C          4.98480       10.95940       -0.95100
C          5.66340        9.80220       -0.37750
C          6.96330        9.73930        0.04070
C          7.92900       10.76030       -0.11030
N          8.80510       11.48200       -0.27470
C          7.58780        8.56650        0.52660
N          8.16830        7.66260        0.92910
H         -3.62910       -8.91580        0.83680
H         -3.74150       -8.95920       -1.36910
H         -3.25800       -9.08410       -3.06380
H         -5.20020       -7.77000       -3.79700
H         -5.72200       -7.51830       -2.13510
H         -5.76850       -9.14190       -2.83980
H          0.82420       -4.09920       -1.00810
H          0.97240       -4.52000       -2.72600
H          0.39620       -6.90380       -2.17370
H          0.33650       -6.48300       -0.45680
H          1.86250       -6.37720       -1.33590
H         -2.05710       -3.42760        5.82240
H         -3.99530       -7.51660        5.70060
H         -2.29680       -2.05950       -0.73060
H         -0.91870       -0.01660       -0.70820
H          2.62970        0.38240        2.39640
H          4.91970        0.90660        2.27660
H          6.52680        3.00880        7.04670
H          6.88300        1.34860        6.52960
H          8.72250        2.19970        5.07590
H          8.96960        2.67840        6.75800
H          8.36540        3.85350        5.58600
H          4.10130        4.94160        3.50390
H          1.25830        1.74730       -2.74660
H         -1.41340        5.37500       -5.83520
H         -1.07790        3.70680       -6.34000
H         -2.93880        2.89330       -4.89920
H         -3.27120        4.55080       -4.38150
H         -3.51880        4.08430       -6.06680
H          0.59330        5.84140       -1.61630
H          2.84120        6.31050       -1.71390
H          5.58660        7.46140        0.96060
