178

C          7.56080       -3.30670       -0.62830
C          7.85510       -4.07010        0.45130
C          6.86660       -4.34910        1.51560
O          5.67650       -4.12520        1.49660
C          7.64910       -4.94270        2.61920
C          7.23510       -5.20550        3.91310
Cl         5.61960       -4.95040        4.39370
C          8.18540       -5.66560        4.83340
Cl         7.71570       -6.03530        6.43490
C          9.52230       -5.78290        4.45350
Cl        10.67880       -6.26810        5.61590
C          9.94120       -5.49010        3.14550
Cl        11.62310       -5.48840        2.81410
C          8.98520       -5.12530        2.20360
C          9.09300       -4.75210        0.79550
C         10.06220       -5.10350       -0.10110
C         10.11550       -4.61160       -1.42660
N         10.26560       -4.21280       -2.49160
C         11.06160       -6.08320        0.08860
N         11.83410       -6.93140        0.10200
C          6.26240       -2.63620       -0.70930
C          5.89440       -1.65280        0.20560
S          7.08110       -1.10470        1.41920
C          7.57660        0.45260        0.59300
C          8.37230        0.19120       -0.66850
C          4.60510       -1.13580        0.18440
S          4.09560       -0.02100        1.46720
C          4.09400       -1.19920        2.88290
C          4.71180       -0.57850        4.11570
C          3.68030       -1.53720       -0.79210
C          4.05770       -2.49230       -1.74350
C          5.35150       -3.03170       -1.69140
C          5.84750       -4.08670       -2.58370
O          6.92560       -4.62360       -2.36870
C          4.97640       -4.39080       -3.70640
C          3.64900       -3.86880       -3.76640
C          3.06620       -3.04730       -2.69830
O          1.86670       -2.88920       -2.59130
C          2.98790       -4.28690       -4.88540
S          3.96460       -5.28770       -5.87770
C          5.27270       -5.18400       -4.78080
C          2.31360       -1.02440       -0.72910
C          1.68030       -0.16290       -1.59050
N          2.23130        0.35600       -2.75920
C          1.40270        0.40830       -3.88770
C          1.42640        1.49660       -4.75890
C          0.55180        1.54960       -5.82430
C         -0.36340        0.52450       -6.03660
S         -1.50260        0.68930       -7.38870
C         -1.68530       -1.03600       -7.94690
C         -0.38700       -0.56430       -5.17700
C          0.49290       -0.62390       -4.11780
C          3.49950        0.93410       -2.73380
C          3.94270        1.61560       -1.60190
C          5.17870        2.22990       -1.58630
C          5.99930        2.17170       -2.70390
S          7.58170        2.95530       -2.80450
C          7.56970        4.11800       -1.40840
C          5.57690        1.46130       -3.82570
C          4.34340        0.84940       -3.84270
C          0.35810        0.10630       -1.15760
S         -0.92730        1.07900       -1.76760
C         -1.96340        0.56040       -0.44880
C         -1.33930       -0.32500        0.41090
N         -1.91470       -0.95990        1.49300
C         -1.10210       -1.30830        2.58240
C         -1.23170       -2.55420        3.18840
C         -0.37750       -2.93170        4.20630
C          0.61760       -2.06440        4.63810
S          1.80490       -2.46690        5.88400
C          1.73730       -4.27900        5.96330
C          0.70770       -0.79210        4.07830
C         -0.13940       -0.41890        3.05980
C         -3.29360       -1.20690        1.53170
C         -4.02160       -0.94130        2.69140
C         -5.39240       -1.06130        2.68670
C         -6.06560       -1.45120        1.52910
S         -7.82680       -1.44760        1.61080
C         -8.35810       -1.97440       -0.04280
C         -5.33540       -1.79010        0.39690
C         -3.95940       -1.67480        0.40220
C         -0.00090       -0.56150       -0.00240
S          1.30130       -1.51430        0.60770
C         -3.34860        1.00220       -0.37940
C         -3.82110        1.60620        0.80380
S         -2.65710        2.06640        2.05660
C         -1.66910        3.31300        1.12000
C         -0.17870        3.11960        1.30720
C         -5.17850        1.84080        1.00160
S         -5.85380        2.38920        2.54600
C         -5.04530        4.02880        2.78250
C         -6.04570        4.98880        3.39380
C         -6.06990        1.60780       -0.04840
C         -5.58520        1.15220       -1.27410
C         -4.23840        0.79170       -1.44020
C         -3.82670        0.09800       -2.68270
O         -2.85910       -0.63370       -2.76480
C         -4.73150        0.32800       -3.81660
C         -6.07800        0.77370       -3.65020
C         -6.59380        1.09370       -2.33150
O         -7.76780        1.34140       -2.07440
C         -6.74500        0.86350       -4.84230
S         -5.74700        0.44640       -6.16680
C         -4.42600        0.10700       -5.12700
C         -7.50210        1.88980        0.07540
C         -7.97270        3.16330        0.14620
C         -7.08540        4.32670       -0.00420
O         -5.90080        4.32640       -0.26800
C         -7.94680        5.50840        0.22060
C         -7.58830        6.84450        0.19550
Cl        -5.95540        7.32170        0.05770
C         -8.60090        7.80690        0.28860
Cl        -8.20460        9.47010        0.30650
C         -9.93580        7.40580        0.31930
Cl       -11.16240        8.59820        0.32090
C        -10.29450        6.04790        0.33620
Cl       -11.95760        5.65890        0.19100
C         -9.28630        5.08820        0.37330
C         -9.31710        3.62820        0.43860
C        -10.35680        2.82820        0.83070
C        -11.51740        3.22910        1.52770
N        -12.42770        3.41720        2.20100
C        -10.37530        1.42230        0.68890
N        -10.52370        0.29260        0.54990
H          8.31780       -3.03200       -1.34980
H          6.66400        1.01400        0.39570
H          8.17390        0.97090        1.34220
H          9.22280       -0.45340       -0.45660
H          7.75030       -0.28170       -1.42690
H          8.74460        1.12780       -1.07680
H          4.63810       -2.08500        2.56070
H          3.04660       -1.45480        3.04520
H          4.20650        0.34970        4.37310
H          5.76620       -0.37020        3.95120
H          4.61280       -1.26860        4.95060
H          1.98360       -4.04440       -5.17190
H          6.19560       -5.69460       -4.97390
H          2.12300        2.30450       -4.59110
H          0.56080        2.39650       -6.49320
H         -2.33190       -1.59760       -7.27850
H         -2.13790       -0.98380       -8.93190
H         -0.70370       -1.49470       -8.00940
H         -1.09120       -1.36950       -5.31500
H          0.47310       -1.47630       -3.45740
H          3.30760        1.68200       -0.73120
H          5.47540        2.77100       -0.70210
H          8.45350        4.73550       -1.53540
H          7.62870        3.58270       -0.46470
H          6.67720        4.73430       -1.45640
H          6.22670        1.40360       -4.68550
H          4.01550        0.31150       -4.72010
H         -1.99770       -3.23470        2.84670
H         -0.49160       -3.90830        4.64900
H          2.59430       -4.58000        6.55810
H          1.81990       -4.68760        4.96070
H          0.82180       -4.60380        6.44950
H          1.45000       -0.10350        4.45160
H         -0.06290        0.56610        2.62890
H         -3.50550       -0.60600        3.57810
H         -5.96470       -0.82220        3.56900
H         -9.44170       -1.91800       -0.01850
H         -7.97750       -1.29220       -0.79790
H         -8.03600       -2.99440       -0.23090
H         -5.82590       -2.14000       -0.49780
H         -3.39490       -1.92630       -0.48360
H         -1.95500        3.23000        0.07380
H         -1.98400        4.28440        1.50250
H          0.14720        2.16970        0.89100
H          0.08190        3.15130        2.36280
H          0.35490        3.91760        0.79460
H         -4.72920        4.36110        1.79530
H         -4.18340        3.89080        3.43290
H         -6.91380        5.10460        2.74780
H         -5.58060        5.96300        3.52930
H         -6.38280        4.62370        4.36090
H         -7.76210        1.16670       -4.99440
H         -3.48060       -0.19530       -5.52910
H         -8.14390        1.04520        0.28790
