215

C          0.85200       -8.06910        8.83730
C          1.94280       -8.87440        8.90150
C          2.19060       -9.75030       10.07200
O          1.41300      -10.02550       10.95210
C          3.61300      -10.15330        9.94300
C          4.39780      -10.85020       10.84560
Cl         3.74540      -11.47250       12.29350
C          5.75590      -11.03230       10.54450
Cl         6.75770      -11.90120       11.62240
C          6.29630      -10.48320        9.38230
Cl         7.96810      -10.65890        9.07040
C          5.49500       -9.78140        8.46760
Cl         6.24170       -9.03390        7.11970
C          4.13870       -9.65330        8.73130
C          3.04540       -9.04910        7.97520
C          2.88570       -8.98830        6.61640
C          3.78730       -9.38940        5.61060
N          4.39120       -9.72320        4.69280
C          1.62980       -8.70180        6.03550
N          0.61220       -8.55930        5.52320
C          0.65240       -6.94810        7.98720
C         -0.55140       -6.51720        7.49750
C         -0.45310       -5.38390        6.66310
C         -1.48450       -4.75880        5.93950
C         -2.80740       -5.37590        5.80320
C         -2.91540       -6.72430        5.45980
C         -4.16400       -7.28890        5.28690
C         -5.31510       -6.53730        5.45400
C         -5.21450       -5.19890        5.80890
S         -6.59580       -4.11900        6.03100
C         -8.01880       -5.23330        6.29920
C         -7.91890       -5.98800        7.61090
C         -3.96000       -4.62290        5.97640
C         -1.15520       -3.57870        5.29650
C          0.13440       -2.99750        5.36390
C          1.17890       -3.65580        6.03070
C          2.51880       -3.04680        6.06940
C          2.67980       -1.79890        6.66190
C          3.92940       -1.20300        6.68010
C          5.00640       -1.83100        6.08990
C          4.84700       -3.07630        5.48270
S          6.28900       -3.72890        4.70330
C          5.79900       -5.34940        4.02500
C          5.75120       -6.42880        5.08690
C          3.60450       -3.69260        5.48990
C          0.86770       -4.86400        6.62730
S          1.97850       -5.91240        7.46680
C          0.23520       -1.83410        4.55780
C         -0.89280       -1.57560        3.84650
S         -2.20090       -2.67850        4.23340
C         -1.05750       -0.64910        2.75970
C         -1.39700       -1.01520        1.46960
N         -1.53410       -2.33400        1.05380
C         -0.64760       -3.30360        1.54770
C         -1.09890       -4.57980        1.88350
C         -0.23630       -5.51060        2.42520
C          1.09830       -5.18720        2.63180
S          2.24500       -6.33490        3.34710
C          1.72380       -7.90730        2.60790
C          1.55890       -3.92190        2.28900
C          0.69670       -2.99120        1.74970
C         -2.56710       -2.68810        0.18090
C         -3.80180       -2.04210        0.24290
C         -4.81750       -2.40460       -0.61380
C         -4.62900       -3.42170       -1.54750
S         -6.00010       -3.80880       -2.59070
C         -5.27880       -4.86340       -3.88180
C         -3.40180       -4.06820       -1.61080
C         -2.37980       -3.69760       -0.75990
C         -1.44680        0.12060        0.62460
S         -1.73370        0.37790       -1.05870
C         -1.33410        2.09430       -0.90470
C         -0.98230        2.42510        0.39860
N         -0.57290        3.65990        0.89320
C         -1.16220        4.06090        2.10430
C         -0.40310        4.58030        3.15320
C         -1.01380        4.95120        4.32900
C         -2.39090        4.80340        4.49370
S         -3.05140        5.31370        6.04760
C         -4.82130        4.92960        5.92270
C         -3.14820        4.27790        3.45590
C         -2.53610        3.91430        2.27220
C          0.52670        4.33940        0.36730
C          1.48960        3.66940       -0.38650
C          2.52460        4.36070       -0.98440
C          2.62400        5.73620       -0.83120
S          3.90000        6.70380       -1.57370
C          4.34250        5.71990       -3.03600
C          1.69680        6.40400       -0.03540
C          0.66060        5.71800        0.55340
C         -1.09090        1.29970        1.25520
S         -0.71740        1.05820        2.92760
C         -1.37230        2.87610       -2.09350
C         -1.77730        2.44960       -3.33300
C         -1.57490        3.39330       -4.36730
C         -1.78720        3.26270       -5.75520
C         -2.42860        2.07690       -6.34090
C         -3.46280        2.23250       -7.26330
C         -4.08720        1.12760       -7.81130
C         -3.73280       -0.14720       -7.40860
C         -2.72220       -0.30710       -6.47260
S         -2.35900       -1.93900       -5.86380
C         -2.50800       -1.61850       -4.06610
C         -3.84530       -1.00160       -3.70970
C         -2.04110        0.79220       -5.97560
C         -1.37570        4.32490       -6.54800
C         -0.77040        5.50410       -6.03230
C         -0.61580        5.66130       -4.64340
C          0.02560        6.82880       -4.02650
C          1.25930        7.29780       -4.46720
C          1.87570        8.33760       -3.79130
C          1.28300        8.90900       -2.68360
C          0.04220        8.45190       -2.24600
S         -0.62870        9.23910       -0.81220
C         -2.37640        8.70690       -0.74070
C         -2.57800        7.40740        0.01770
C         -0.58280        7.41860       -2.92080
C         -1.03680        4.60370       -3.85770
S         -0.83790        4.54050       -2.12840
C         -0.37540        6.39730       -7.04810
C         -0.61690        5.93170       -8.31510
S         -1.43600        4.37150       -8.28800
C         -0.35760        6.51820       -9.57620
C          0.59790        7.43980       -9.89370
C          1.78270        7.80720       -9.07370
O          2.01350        7.53380       -7.91430
C          2.68370        8.52410       -9.99220
C          3.94790        9.02600       -9.74710
C          4.61430        9.66390      -10.78030
C          4.03770        9.79570      -12.04270
C          4.79440       10.46080      -13.14790
C          2.76210        9.28660      -12.28170
C          2.08200        8.65330      -11.25570
C          0.75790        8.04160      -11.20580
C         -0.19190        8.10730      -12.19010
C         -1.50860        7.61100      -12.07830
N         -2.59990        7.25450      -12.05600
C          0.00990        8.72580      -13.44180
N          0.11200        9.21380      -14.47590
H          0.06550       -8.26980        9.55780
H         -1.47730       -7.02130        7.70900
H         -2.02320       -7.31230        5.30700
H         -4.24880       -8.32950        5.01010
H         -6.27500       -7.00250        5.29570
H         -8.10660       -5.89900        5.44130
H         -8.87510       -4.55870        6.30230
H         -7.03590       -6.62370        7.62880
H         -7.85490       -5.28920        8.44170
H         -8.80020       -6.61210        7.74700
H         -3.89600       -3.58430        6.26330
H          1.83070       -1.30830        7.11420
H          4.06010       -0.23890        7.14840
H          5.98090       -1.36730        6.08160
H          6.57470       -5.56660        3.29030
H          4.84680       -5.23850        3.50910
H          5.51480       -7.38390        4.62240
H          4.99350       -6.20870        5.83670
H          6.71570       -6.50690        5.58410
H          3.44350       -4.65170        5.02470
H          1.14150       -1.26580        4.45000
H         -2.14030       -4.83020        1.74580
H         -0.61390       -6.48140        2.70580
H          2.55900       -8.58940        2.73750
H          0.85230       -8.29390        3.12790
H          1.52260       -7.75070        1.55280
H          2.59620       -3.67080        2.44720
H          1.06450       -2.01220        1.48060
H         -3.96270       -1.26560        0.97590
H         -5.77500       -1.90910       -0.56440
H         -6.06970       -5.01190       -4.61050
H         -4.43840       -4.35730       -4.34810
H         -4.98290       -5.82150       -3.46440
H         -3.22730       -4.86260       -2.31880
H         -1.42450       -4.19740       -0.82210
H          0.66580        4.67990        3.04300
H         -0.42950        5.35080        5.14340
H         -5.27460        5.51290        5.12650
H         -5.24910        5.21780        6.87790
H         -4.95990        3.86430        5.76330
H         -4.21440        4.15050        3.55020
H         -3.13100        3.51330        1.46410
H          1.42080        2.59880       -0.51490
H          3.25030        3.81440       -1.56590
H          3.43340        5.40410       -3.53860
H          4.95540        4.86890       -2.75300
H          4.91270        6.38180       -3.67980
H          1.78550        7.47070        0.09730
H         -0.06660        6.25250        1.14290
H         -2.19550        1.47180       -3.48310
H         -3.79190        3.22350       -7.53590
H         -4.87700        1.26200       -8.53470
H         -4.23840       -1.01620       -7.79950
H         -2.39010       -2.59600       -3.60010
H         -1.67600       -0.98800       -3.75340
H         -4.66220       -1.64640       -4.02370
H         -3.97240       -0.03600       -4.19620
H         -3.90620       -0.86130       -2.63260
H         -1.20230        0.65260       -5.31110
H          1.74190        6.84250       -5.31820
H          2.83510        8.69940       -4.12790
H          1.77070        9.70800       -2.14710
H         -2.74710        8.65250       -1.76340
H         -2.88070        9.52830       -0.23090
H         -2.24920        7.51910        1.04860
H         -3.63440        7.14360        0.02050
H         -2.01670        6.59270       -0.43460
H         -1.55460        7.06400       -2.61810
H          0.04740        7.36280       -6.84850
H         -0.96920        6.13110      -10.38340
H          4.39190        8.92040       -8.76920
H          5.60150       10.06820      -10.61020
H          5.39670       11.28240      -12.76700
H          5.46770        9.74210      -13.61650
H          4.11840       10.83660      -13.91140
H          2.32720        9.38770      -13.26310
