
  xtb     02042204413D
 energy: -341.718834949533 gnorm: 0.000352443124 xtb: 6.4.1 (unknown)
178193  0     0  0            999 V2000
    7.5608   -3.3067   -0.6283 C   0  0  0  0  0  0  0  0  0  0  0  0
    7.8551   -4.0701    0.4513 C   0  0  0  0  0  0  0  0  0  0  0  0
    6.8666   -4.3491    1.5156 C   0  0  0  0  0  0  0  0  0  0  0  0
    5.6765   -4.1252    1.4966 O   0  0  0  0  0  0  0  0  0  0  0  0
    7.6491   -4.9427    2.6192 C   0  0  0  0  0  0  0  0  0  0  0  0
    7.2351   -5.2055    3.9131 C   0  0  0  0  0  0  0  0  0  0  0  0
    5.6196   -4.9504    4.3937 Cl  0  0  0  0  0  0  0  0  0  0  0  0
    8.1854   -5.6656    4.8334 C   0  0  0  0  0  0  0  0  0  0  0  0
    7.7157   -6.0353    6.4349 Cl  0  0  0  0  0  0  0  0  0  0  0  0
    9.5223   -5.7829    4.4535 C   0  0  0  0  0  0  0  0  0  0  0  0
   10.6788   -6.2681    5.6159 Cl  0  0  0  0  0  0  0  0  0  0  0  0
    9.9412   -5.4901    3.1455 C   0  0  0  0  0  0  0  0  0  0  0  0
   11.6231   -5.4884    2.8141 Cl  0  0  0  0  0  0  0  0  0  0  0  0
    8.9852   -5.1253    2.2036 C   0  0  0  0  0  0  0  0  0  0  0  0
    9.0930   -4.7521    0.7955 C   0  0  0  0  0  0  0  0  0  0  0  0
   10.0622   -5.1035   -0.1011 C   0  0  0  0  0  0  0  0  0  0  0  0
   10.1155   -4.6116   -1.4266 C   0  0  0  0  0  0  0  0  0  0  0  0
   10.2656   -4.2128   -2.4916 N   0  0  0  0  0  0  0  0  0  0  0  0
   11.0616   -6.0832    0.0886 C   0  0  0  0  0  0  0  0  0  0  0  0
   11.8341   -6.9314    0.1020 N   0  0  0  0  0  0  0  0  0  0  0  0
    6.2624   -2.6362   -0.7093 C   0  0  0  0  0  0  0  0  0  0  0  0
    5.8944   -1.6528    0.2056 C   0  0  0  0  0  0  0  0  0  0  0  0
    7.0811   -1.1047    1.4192 S   0  0  0  0  0  0  0  0  0  0  0  0
    7.5766    0.4526    0.5930 C   0  0  0  0  0  0  0  0  0  0  0  0
    8.3723    0.1912   -0.6685 C   0  0  0  0  0  0  0  0  0  0  0  0
    4.6051   -1.1358    0.1844 C   0  0  0  0  0  0  0  0  0  0  0  0
    4.0956   -0.0210    1.4672 S   0  0  0  0  0  0  0  0  0  0  0  0
    4.0940   -1.1992    2.8829 C   0  0  0  0  0  0  0  0  0  0  0  0
    4.7118   -0.5785    4.1157 C   0  0  0  0  0  0  0  0  0  0  0  0
    3.6803   -1.5372   -0.7921 C   0  0  0  0  0  0  0  0  0  0  0  0
    4.0577   -2.4923   -1.7435 C   0  0  0  0  0  0  0  0  0  0  0  0
    5.3515   -3.0317   -1.6914 C   0  0  0  0  0  0  0  0  0  0  0  0
    5.8475   -4.0867   -2.5837 C   0  0  0  0  0  0  0  0  0  0  0  0
    6.9256   -4.6236   -2.3687 O   0  0  0  0  0  0  0  0  0  0  0  0
    4.9764   -4.3908   -3.7064 C   0  0  0  0  0  0  0  0  0  0  0  0
    3.6490   -3.8688   -3.7664 C   0  0  0  0  0  0  0  0  0  0  0  0
    3.0662   -3.0473   -2.6983 C   0  0  0  0  0  0  0  0  0  0  0  0
    1.8667   -2.8892   -2.5913 O   0  0  0  0  0  0  0  0  0  0  0  0
    2.9879   -4.2869   -4.8854 C   0  0  0  0  0  0  0  0  0  0  0  0
    3.9646   -5.2877   -5.8777 S   0  0  0  0  0  0  0  0  0  0  0  0
    5.2727   -5.1840   -4.7808 C   0  0  0  0  0  0  0  0  0  0  0  0
    2.3136   -1.0244   -0.7291 C   0  0  0  0  0  0  0  0  0  0  0  0
    1.6803   -0.1629   -1.5905 C   0  0  0  0  0  0  0  0  0  0  0  0
    2.2313    0.3560   -2.7592 N   0  0  0  0  0  0  0  0  0  0  0  0
    1.4027    0.4083   -3.8877 C   0  0  0  0  0  0  0  0  0  0  0  0
    1.4264    1.4966   -4.7589 C   0  0  0  0  0  0  0  0  0  0  0  0
    0.5518    1.5496   -5.8243 C   0  0  0  0  0  0  0  0  0  0  0  0
   -0.3634    0.5245   -6.0366 C   0  0  0  0  0  0  0  0  0  0  0  0
   -1.5026    0.6893   -7.3887 S   0  0  0  0  0  0  0  0  0  0  0  0
   -1.6853   -1.0360   -7.9469 C   0  0  0  0  0  0  0  0  0  0  0  0
   -0.3870   -0.5643   -5.1770 C   0  0  0  0  0  0  0  0  0  0  0  0
    0.4929   -0.6239   -4.1178 C   0  0  0  0  0  0  0  0  0  0  0  0
    3.4995    0.9341   -2.7338 C   0  0  0  0  0  0  0  0  0  0  0  0
    3.9427    1.6156   -1.6019 C   0  0  0  0  0  0  0  0  0  0  0  0
    5.1787    2.2299   -1.5863 C   0  0  0  0  0  0  0  0  0  0  0  0
    5.9993    2.1717   -2.7039 C   0  0  0  0  0  0  0  0  0  0  0  0
    7.5817    2.9553   -2.8045 S   0  0  0  0  0  0  0  0  0  0  0  0
    7.5697    4.1180   -1.4084 C   0  0  0  0  0  0  0  0  0  0  0  0
    5.5769    1.4613   -3.8257 C   0  0  0  0  0  0  0  0  0  0  0  0
    4.3434    0.8494   -3.8427 C   0  0  0  0  0  0  0  0  0  0  0  0
    0.3581    0.1063   -1.1576 C   0  0  0  0  0  0  0  0  0  0  0  0
   -0.9273    1.0790   -1.7676 S   0  0  0  0  0  0  0  0  0  0  0  0
   -1.9634    0.5604   -0.4488 C   0  0  0  0  0  0  0  0  0  0  0  0
   -1.3393   -0.3250    0.4109 C   0  0  0  0  0  0  0  0  0  0  0  0
   -1.9147   -0.9599    1.4930 N   0  0  0  0  0  0  0  0  0  0  0  0
   -1.1021   -1.3083    2.5824 C   0  0  0  0  0  0  0  0  0  0  0  0
   -1.2317   -2.5542    3.1884 C   0  0  0  0  0  0  0  0  0  0  0  0
   -0.3775   -2.9317    4.2063 C   0  0  0  0  0  0  0  0  0  0  0  0
    0.6176   -2.0644    4.6381 C   0  0  0  0  0  0  0  0  0  0  0  0
    1.8049   -2.4669    5.8840 S   0  0  0  0  0  0  0  0  0  0  0  0
    1.7373   -4.2790    5.9633 C   0  0  0  0  0  0  0  0  0  0  0  0
    0.7077   -0.7921    4.0783 C   0  0  0  0  0  0  0  0  0  0  0  0
   -0.1394   -0.4189    3.0598 C   0  0  0  0  0  0  0  0  0  0  0  0
   -3.2936   -1.2069    1.5317 C   0  0  0  0  0  0  0  0  0  0  0  0
   -4.0216   -0.9413    2.6914 C   0  0  0  0  0  0  0  0  0  0  0  0
   -5.3924   -1.0613    2.6867 C   0  0  0  0  0  0  0  0  0  0  0  0
   -6.0656   -1.4512    1.5291 C   0  0  0  0  0  0  0  0  0  0  0  0
   -7.8268   -1.4476    1.6108 S   0  0  0  0  0  0  0  0  0  0  0  0
   -8.3581   -1.9744   -0.0428 C   0  0  0  0  0  0  0  0  0  0  0  0
   -5.3354   -1.7901    0.3969 C   0  0  0  0  0  0  0  0  0  0  0  0
   -3.9594   -1.6748    0.4022 C   0  0  0  0  0  0  0  0  0  0  0  0
   -0.0009   -0.5615   -0.0024 C   0  0  0  0  0  0  0  0  0  0  0  0
    1.3013   -1.5143    0.6077 S   0  0  0  0  0  0  0  0  0  0  0  0
   -3.3486    1.0022   -0.3794 C   0  0  0  0  0  0  0  0  0  0  0  0
   -3.8211    1.6062    0.8038 C   0  0  0  0  0  0  0  0  0  0  0  0
   -2.6571    2.0664    2.0566 S   0  0  0  0  0  0  0  0  0  0  0  0
   -1.6691    3.3130    1.1200 C   0  0  0  0  0  0  0  0  0  0  0  0
   -0.1787    3.1196    1.3072 C   0  0  0  0  0  0  0  0  0  0  0  0
   -5.1785    1.8408    1.0016 C   0  0  0  0  0  0  0  0  0  0  0  0
   -5.8538    2.3892    2.5460 S   0  0  0  0  0  0  0  0  0  0  0  0
   -5.0453    4.0288    2.7825 C   0  0  0  0  0  0  0  0  0  0  0  0
   -6.0457    4.9888    3.3938 C   0  0  0  0  0  0  0  0  0  0  0  0
   -6.0699    1.6078   -0.0484 C   0  0  0  0  0  0  0  0  0  0  0  0
   -5.5852    1.1522   -1.2741 C   0  0  0  0  0  0  0  0  0  0  0  0
   -4.2384    0.7917   -1.4402 C   0  0  0  0  0  0  0  0  0  0  0  0
   -3.8267    0.0980   -2.6827 C   0  0  0  0  0  0  0  0  0  0  0  0
   -2.8591   -0.6337   -2.7648 O   0  0  0  0  0  0  0  0  0  0  0  0
   -4.7315    0.3280   -3.8166 C   0  0  0  0  0  0  0  0  0  0  0  0
   -6.0780    0.7737   -3.6502 C   0  0  0  0  0  0  0  0  0  0  0  0
   -6.5938    1.0937   -2.3315 C   0  0  0  0  0  0  0  0  0  0  0  0
   -7.7678    1.3414   -2.0744 O   0  0  0  0  0  0  0  0  0  0  0  0
   -6.7450    0.8635   -4.8423 C   0  0  0  0  0  0  0  0  0  0  0  0
   -5.7470    0.4464   -6.1668 S   0  0  0  0  0  0  0  0  0  0  0  0
   -4.4260    0.1070   -5.1270 C   0  0  0  0  0  0  0  0  0  0  0  0
   -7.5021    1.8898    0.0754 C   0  0  0  0  0  0  0  0  0  0  0  0
   -7.9727    3.1633    0.1462 C   0  0  0  0  0  0  0  0  0  0  0  0
   -7.0854    4.3267   -0.0042 C   0  0  0  0  0  0  0  0  0  0  0  0
   -5.9008    4.3264   -0.2680 O   0  0  0  0  0  0  0  0  0  0  0  0
   -7.9468    5.5084    0.2206 C   0  0  0  0  0  0  0  0  0  0  0  0
   -7.5883    6.8445    0.1955 C   0  0  0  0  0  0  0  0  0  0  0  0
   -5.9554    7.3217    0.0577 Cl  0  0  0  0  0  0  0  0  0  0  0  0
   -8.6009    7.8069    0.2886 C   0  0  0  0  0  0  0  0  0  0  0  0
   -8.2046    9.4701    0.3065 Cl  0  0  0  0  0  0  0  0  0  0  0  0
   -9.9358    7.4058    0.3193 C   0  0  0  0  0  0  0  0  0  0  0  0
  -11.1624    8.5982    0.3209 Cl  0  0  0  0  0  0  0  0  0  0  0  0
  -10.2945    6.0479    0.3362 C   0  0  0  0  0  0  0  0  0  0  0  0
  -11.9576    5.6589    0.1910 Cl  0  0  0  0  0  0  0  0  0  0  0  0
   -9.2863    5.0882    0.3733 C   0  0  0  0  0  0  0  0  0  0  0  0
   -9.3171    3.6282    0.4386 C   0  0  0  0  0  0  0  0  0  0  0  0
  -10.3568    2.8282    0.8307 C   0  0  0  0  0  0  0  0  0  0  0  0
  -11.5174    3.2291    1.5277 C   0  0  0  0  0  0  0  0  0  0  0  0
  -12.4277    3.4172    2.2010 N   0  0  0  0  0  0  0  0  0  0  0  0
  -10.3753    1.4223    0.6889 C   0  0  0  0  0  0  0  0  0  0  0  0
  -10.5237    0.2926    0.5499 N   0  0  0  0  0  0  0  0  0  0  0  0
    8.3178   -3.0320   -1.3498 H   0  0  0  0  0  0  0  0  0  0  0  0
    6.6640    1.0140    0.3957 H   0  0  0  0  0  0  0  0  0  0  0  0
    8.1739    0.9709    1.3422 H   0  0  0  0  0  0  0  0  0  0  0  0
    9.2228   -0.4534   -0.4566 H   0  0  0  0  0  0  0  0  0  0  0  0
    7.7503   -0.2817   -1.4269 H   0  0  0  0  0  0  0  0  0  0  0  0
    8.7446    1.1278   -1.0768 H   0  0  0  0  0  0  0  0  0  0  0  0
    4.6381   -2.0850    2.5607 H   0  0  0  0  0  0  0  0  0  0  0  0
    3.0466   -1.4548    3.0452 H   0  0  0  0  0  0  0  0  0  0  0  0
    4.2065    0.3497    4.3731 H   0  0  0  0  0  0  0  0  0  0  0  0
    5.7662   -0.3702    3.9512 H   0  0  0  0  0  0  0  0  0  0  0  0
    4.6128   -1.2686    4.9506 H   0  0  0  0  0  0  0  0  0  0  0  0
    1.9836   -4.0444   -5.1719 H   0  0  0  0  0  0  0  0  0  0  0  0
    6.1956   -5.6946   -4.9739 H   0  0  0  0  0  0  0  0  0  0  0  0
    2.1230    2.3045   -4.5911 H   0  0  0  0  0  0  0  0  0  0  0  0
    0.5608    2.3965   -6.4932 H   0  0  0  0  0  0  0  0  0  0  0  0
   -2.3319   -1.5976   -7.2785 H   0  0  0  0  0  0  0  0  0  0  0  0
   -2.1379   -0.9838   -8.9319 H   0  0  0  0  0  0  0  0  0  0  0  0
   -0.7037   -1.4947   -8.0094 H   0  0  0  0  0  0  0  0  0  0  0  0
   -1.0912   -1.3695   -5.3150 H   0  0  0  0  0  0  0  0  0  0  0  0
    0.4731   -1.4763   -3.4574 H   0  0  0  0  0  0  0  0  0  0  0  0
    3.3076    1.6820   -0.7312 H   0  0  0  0  0  0  0  0  0  0  0  0
    5.4754    2.7710   -0.7021 H   0  0  0  0  0  0  0  0  0  0  0  0
    8.4535    4.7355   -1.5354 H   0  0  0  0  0  0  0  0  0  0  0  0
    7.6287    3.5827   -0.4647 H   0  0  0  0  0  0  0  0  0  0  0  0
    6.6772    4.7343   -1.4564 H   0  0  0  0  0  0  0  0  0  0  0  0
    6.2267    1.4036   -4.6855 H   0  0  0  0  0  0  0  0  0  0  0  0
    4.0155    0.3115   -4.7201 H   0  0  0  0  0  0  0  0  0  0  0  0
   -1.9977   -3.2347    2.8467 H   0  0  0  0  0  0  0  0  0  0  0  0
   -0.4916   -3.9083    4.6490 H   0  0  0  0  0  0  0  0  0  0  0  0
    2.5943   -4.5800    6.5581 H   0  0  0  0  0  0  0  0  0  0  0  0
    1.8199   -4.6876    4.9607 H   0  0  0  0  0  0  0  0  0  0  0  0
    0.8218   -4.6038    6.4495 H   0  0  0  0  0  0  0  0  0  0  0  0
    1.4500   -0.1035    4.4516 H   0  0  0  0  0  0  0  0  0  0  0  0
   -0.0629    0.5661    2.6289 H   0  0  0  0  0  0  0  0  0  0  0  0
   -3.5055   -0.6060    3.5781 H   0  0  0  0  0  0  0  0  0  0  0  0
   -5.9647   -0.8222    3.5690 H   0  0  0  0  0  0  0  0  0  0  0  0
   -9.4417   -1.9180   -0.0185 H   0  0  0  0  0  0  0  0  0  0  0  0
   -7.9775   -1.2922   -0.7979 H   0  0  0  0  0  0  0  0  0  0  0  0
   -8.0360   -2.9944   -0.2309 H   0  0  0  0  0  0  0  0  0  0  0  0
   -5.8259   -2.1400   -0.4978 H   0  0  0  0  0  0  0  0  0  0  0  0
   -3.3949   -1.9263   -0.4836 H   0  0  0  0  0  0  0  0  0  0  0  0
   -1.9550    3.2300    0.0738 H   0  0  0  0  0  0  0  0  0  0  0  0
   -1.9840    4.2844    1.5025 H   0  0  0  0  0  0  0  0  0  0  0  0
    0.1472    2.1697    0.8910 H   0  0  0  0  0  0  0  0  0  0  0  0
    0.0819    3.1513    2.3628 H   0  0  0  0  0  0  0  0  0  0  0  0
    0.3549    3.9176    0.7946 H   0  0  0  0  0  0  0  0  0  0  0  0
   -4.7292    4.3611    1.7953 H   0  0  0  0  0  0  0  0  0  0  0  0
   -4.1834    3.8908    3.4329 H   0  0  0  0  0  0  0  0  0  0  0  0
   -6.9138    5.1046    2.7478 H   0  0  0  0  0  0  0  0  0  0  0  0
   -5.5806    5.9630    3.5293 H   0  0  0  0  0  0  0  0  0  0  0  0
   -6.3828    4.6237    4.3609 H   0  0  0  0  0  0  0  0  0  0  0  0
   -7.7621    1.1667   -4.9944 H   0  0  0  0  0  0  0  0  0  0  0  0
   -3.4806   -0.1953   -5.5291 H   0  0  0  0  0  0  0  0  0  0  0  0
   -8.1439    1.0452    0.2879 H   0  0  0  0  0  0  0  0  0  0  0  0
  1  2  2  0  0  0  0
  2  3  1  0  0  0  0
  3  4  2  0  0  0  0
  3  5  1  0  0  0  0
  5  6  2  0  0  0  0
  6  7  1  0  0  0  0
  6  8  1  0  0  0  0
  8  9  1  0  0  0  0
  8 10  2  0  0  0  0
 10 11  1  0  0  0  0
 10 12  1  0  0  0  0
 12 13  1  0  0  0  0
 12 14  2  0  0  0  0
 14 15  1  0  0  0  0
 15 16  2  0  0  0  0
 16 17  1  0  0  0  0
 17 18  3  0  0  0  0
 16 19  1  0  0  0  0
 19 20  3  0  0  0  0
  1 21  1  0  0  0  0
 21 22  2  0  0  0  0
 22 23  1  0  0  0  0
 23 24  1  0  0  0  0
 24 25  1  0  0  0  0
 22 26  1  0  0  0  0
 26 27  1  0  0  0  0
 27 28  1  0  0  0  0
 28 29  1  0  0  0  0
 26 30  2  0  0  0  0
 30 31  1  0  0  0  0
 31 32  2  0  0  0  0
 32 33  1  0  0  0  0
 33 34  2  0  0  0  0
 33 35  1  0  0  0  0
 35 36  1  0  0  0  0
 36 37  1  0  0  0  0
 37 38  2  0  0  0  0
 36 39  2  0  0  0  0
 39 40  1  0  0  0  0
 40 41  1  0  0  0  0
 30 42  1  0  0  0  0
 42 43  2  0  0  0  0
 43 44  1  0  0  0  0
 44 45  1  0  0  0  0
 45 46  2  0  0  0  0
 46 47  1  0  0  0  0
 47 48  2  0  0  0  0
 48 49  1  0  0  0  0
 49 50  1  0  0  0  0
 48 51  1  0  0  0  0
 51 52  2  0  0  0  0
 44 53  1  0  0  0  0
 53 54  2  0  0  0  0
 54 55  1  0  0  0  0
 55 56  2  0  0  0  0
 56 57  1  0  0  0  0
 57 58  1  0  0  0  0
 56 59  1  0  0  0  0
 59 60  2  0  0  0  0
 43 61  1  0  0  0  0
 61 62  1  0  0  0  0
 62 63  1  0  0  0  0
 63 64  2  0  0  0  0
 64 65  1  0  0  0  0
 65 66  1  0  0  0  0
 66 67  2  0  0  0  0
 67 68  1  0  0  0  0
 68 69  2  0  0  0  0
 69 70  1  0  0  0  0
 70 71  1  0  0  0  0
 69 72  1  0  0  0  0
 72 73  2  0  0  0  0
 65 74  1  0  0  0  0
 74 75  2  0  0  0  0
 75 76  1  0  0  0  0
 76 77  2  0  0  0  0
 77 78  1  0  0  0  0
 78 79  1  0  0  0  0
 77 80  1  0  0  0  0
 80 81  2  0  0  0  0
 64 82  1  0  0  0  0
 82 83  1  0  0  0  0
 63 84  1  0  0  0  0
 84 85  2  0  0  0  0
 85 86  1  0  0  0  0
 86 87  1  0  0  0  0
 87 88  1  0  0  0  0
 85 89  1  0  0  0  0
 89 90  1  0  0  0  0
 90 91  1  0  0  0  0
 91 92  1  0  0  0  0
 89 93  2  0  0  0  0
 93 94  1  0  0  0  0
 94 95  2  0  0  0  0
 95 96  1  0  0  0  0
 96 97  2  0  0  0  0
 96 98  1  0  0  0  0
 98 99  1  0  0  0  0
 99100  1  0  0  0  0
100101  2  0  0  0  0
 99102  2  0  0  0  0
102103  1  0  0  0  0
103104  1  0  0  0  0
 93105  1  0  0  0  0
105106  2  0  0  0  0
106107  1  0  0  0  0
107108  2  0  0  0  0
107109  1  0  0  0  0
109110  2  0  0  0  0
110111  1  0  0  0  0
110112  1  0  0  0  0
112113  1  0  0  0  0
112114  2  0  0  0  0
114115  1  0  0  0  0
114116  1  0  0  0  0
116117  1  0  0  0  0
116118  2  0  0  0  0
118119  1  0  0  0  0
119120  2  0  0  0  0
120121  1  0  0  0  0
121122  3  0  0  0  0
120123  1  0  0  0  0
123124  3  0  0  0  0
 15  2  1  0  0  0  0
 32 21  1  0  0  0  0
 41 35  2  0  0  0  0
 83 42  1  0  0  0  0
 95 84  1  0  0  0  0
104 98  2  0  0  0  0
119106  1  0  0  0  0
 14  5  1  0  0  0  0
 37 31  1  0  0  0  0
 52 45  1  0  0  0  0
 60 53  1  0  0  0  0
 82 61  2  0  0  0  0
100 94  1  0  0  0  0
118109  1  0  0  0  0
 73 66  1  0  0  0  0
 81 74  1  0  0  0  0
  1125  1  0  0  0  0
 24126  1  0  0  0  0
 24127  1  0  0  0  0
 25128  1  0  0  0  0
 25129  1  0  0  0  0
 25130  1  0  0  0  0
 28131  1  0  0  0  0
 28132  1  0  0  0  0
 29133  1  0  0  0  0
 29134  1  0  0  0  0
 29135  1  0  0  0  0
 39136  1  0  0  0  0
 41137  1  0  0  0  0
 46138  1  0  0  0  0
 47139  1  0  0  0  0
 50140  1  0  0  0  0
 50141  1  0  0  0  0
 50142  1  0  0  0  0
 51143  1  0  0  0  0
 52144  1  0  0  0  0
 54145  1  0  0  0  0
 55146  1  0  0  0  0
 58147  1  0  0  0  0
 58148  1  0  0  0  0
 58149  1  0  0  0  0
 59150  1  0  0  0  0
 60151  1  0  0  0  0
 67152  1  0  0  0  0
 68153  1  0  0  0  0
 71154  1  0  0  0  0
 71155  1  0  0  0  0
 71156  1  0  0  0  0
 72157  1  0  0  0  0
 73158  1  0  0  0  0
 75159  1  0  0  0  0
 76160  1  0  0  0  0
 79161  1  0  0  0  0
 79162  1  0  0  0  0
 79163  1  0  0  0  0
 80164  1  0  0  0  0
 81165  1  0  0  0  0
 87166  1  0  0  0  0
 87167  1  0  0  0  0
 88168  1  0  0  0  0
 88169  1  0  0  0  0
 88170  1  0  0  0  0
 91171  1  0  0  0  0
 91172  1  0  0  0  0
 92173  1  0  0  0  0
 92174  1  0  0  0  0
 92175  1  0  0  0  0
102176  1  0  0  0  0
104177  1  0  0  0  0
105178  1  0  0  0  0
M  END
