178

C          6.15740       -4.79970       -1.14170
C          6.29340       -5.66990       -2.35440
C          7.52270       -5.55400       -3.08680
O          8.46540       -4.81470       -2.82260
C          7.43170       -6.54620       -4.18480
C          8.29240       -6.75550       -5.24050
Cl         9.74770       -5.87440       -5.39440
C          7.93840       -7.71160       -6.20420
Cl         8.98880       -8.03080       -7.51820
C          6.72470       -8.37840       -6.10250
Cl         6.28490       -9.50120       -7.32010
C          5.84080       -8.14290       -5.03120
Cl         4.31360       -8.93010       -5.07570
C          6.22170       -7.25310       -4.04040
C          5.54980       -6.75610       -2.82200
C          4.46360       -7.36440       -2.17940
C          4.12010       -8.72280       -2.25420
N          3.82920       -9.83080       -2.15390
C          3.72890       -6.70100       -1.20940
N          3.09860       -6.12830       -0.42690
C          5.11250       -3.71590       -1.15920
C          4.78430       -2.69110       -2.02680
S          5.55790       -2.54320       -3.62170
C          7.27110       -2.03420       -3.17060
C          7.94830       -1.45520       -4.39620
C          3.73060       -1.82880       -1.65780
S          3.22530       -0.49250       -2.71020
C          4.72410        0.54630       -2.85590
C          5.28710        0.93870       -1.50690
C          2.96070       -2.02900       -0.49390
C          3.29650       -3.05980        0.39110
C          4.38260       -3.85630        0.02390
C          4.88810       -4.97540        0.72050
O          5.90170       -5.53160        0.08950
C          4.33120       -5.28200        1.98120
C          3.23100       -4.46530        2.43090
C          2.66580       -3.31790        1.69630
O          1.78020       -2.62470        2.17090
C          2.75840       -4.89330        3.63780
S          3.61080       -6.25510        4.23350
C          4.63550       -6.28660        2.87000
C          1.82720       -1.15320       -0.20320
C          0.48680       -1.47310       -0.19330
N         -0.07940       -2.71220       -0.45020
C         -1.23630       -3.03500        0.27710
C         -2.35300       -3.57730       -0.35210
C         -3.53000       -3.76360        0.34800
C         -3.60420       -3.41250        1.68940
S         -5.07300       -3.51200        2.66390
C         -6.26520       -4.35940        1.58980
C         -2.46960       -2.92520        2.33610
C         -1.29810       -2.74020        1.64140
C          0.42900       -3.55320       -1.43420
C          0.32780       -4.94080       -1.31500
C          0.89010       -5.75670       -2.26850
C          1.58810       -5.21100       -3.34650
S          2.35930       -6.34210       -4.45100
C          3.45730       -5.29700       -5.44820
C          1.64020       -3.83150       -3.50080
C          1.04550       -3.01630       -2.56350
C         -0.29620       -0.33960        0.14680
S         -1.98850       -0.06940        0.31120
C         -1.69810        1.59690        0.79670
C         -0.35390        1.92210        0.79980
N          0.18560        3.13870        1.17250
C          1.38070        3.55510        0.57750
C          2.37330        4.18720        1.32360
C          3.56360        4.57080        0.73850
C          3.78880        4.32930       -0.61020
S          5.28150        4.73430       -1.46150
C          6.28190        5.59140       -0.21440
C          2.79410        3.71260       -1.36590
C          1.60810        3.33190       -0.78270
C         -0.31200        3.82430        2.29400
C         -0.71470        3.12700        3.43160
C         -1.14760        3.81560        4.54230
C         -1.18760        5.20790        4.53730
S         -1.74690        6.00010        6.01130
C         -2.30470        7.62050        5.40730
C         -0.78790        5.90390        3.40360
C         -0.36110        5.21490        2.28770
C          0.43300        0.80100        0.41730
S          2.12400        0.51510        0.22670
C         -2.88880        2.37410        1.08150
C         -3.16170        3.58790        0.43110
S         -2.04120        4.28680       -0.74520
C         -1.95060        2.92890       -1.99170
C         -1.50160        3.51600       -3.31540
C         -4.34550        4.27720        0.69140
S         -4.52020        5.95040        0.11200
C         -5.67420        5.73860       -1.30590
C         -4.96860        5.22660       -2.54430
C         -5.35960        3.68950        1.45400
C         -5.14630        2.40590        1.99090
C         -3.87000        1.82260        1.93250
C         -3.48250        0.77260        2.91400
O         -2.32900        0.43250        3.09800
C         -4.57590        0.26580        3.74040
C         -5.93310        0.64000        3.52900
C         -6.29880        1.63400        2.52730
O         -7.43700        1.79240        2.12280
C         -6.78630       -0.00390        4.38150
S         -5.95290       -1.03800        5.46050
C         -4.44780       -0.63870        4.75730
C         -6.58210        4.41530        1.76080
C         -7.18820        4.44490        2.96510
C         -8.63200        4.80280        3.08860
O         -9.28120        5.50160        2.35300
C         -9.09120        4.03790        4.27070
C        -10.37900        3.84570        4.73580
C        -10.57080        3.03140        5.84120
C         -9.47870        2.43140        6.45720
Br        -9.77260        1.29110        7.94710
C         -8.17580        2.62390        6.01630
C         -7.99030        3.43330        4.90850
C         -6.77420        3.82260        4.21240
C         -5.49050        3.77590        4.67900
C         -5.08730        3.07690        5.83190
N         -4.72930        2.45220        6.72520
C         -4.47800        4.48490        4.00230
N         -3.69480        5.13410        3.47250
H          7.16030       -4.34650       -1.02290
H          7.81110       -2.91210       -2.82230
H          7.18650       -1.29850       -2.37130
H          7.40670       -0.59320       -4.78220
H          8.95800       -1.14720       -4.13490
H          8.00960       -2.20620       -5.18020
H          5.44750        0.02080       -3.47360
H          4.36460        1.42090       -3.39650
H          4.53610        1.45900       -0.91670
H          6.13630        1.60360       -1.65070
H          5.61660        0.06340       -0.94810
H          1.94660       -4.47130        4.19690
H          5.39830       -7.03290        2.77310
H         -2.30730       -3.82580       -1.40220
H         -4.38610       -4.16140       -0.17290
H         -6.50230       -3.73750        0.73130
H         -5.86530       -5.32160        1.28450
H         -7.15420       -4.50410        2.19580
H         -2.52280       -2.68370        3.38560
H         -0.41980       -2.36390        2.14240
H         -0.16710       -5.37000       -0.45780
H          0.82380       -6.82950       -2.17410
H          2.87280       -4.66450       -6.10970
H          4.06180       -5.98170       -6.03520
H          4.09450       -4.70210       -4.79940
H          2.13190       -3.37920       -4.34660
H          1.05900       -1.94650       -2.70730
H          2.21750        4.36490        2.37690
H          4.31180        5.04540        1.35250
H          5.75380        6.47070        0.14230
H          6.52100        4.91490        0.60110
H          7.19270        5.89020       -0.72410
H          2.96370        3.53890       -2.41740
H          0.85140        2.85770       -1.38580
H         -0.68670        2.04820        3.44330
H         -1.45930        3.28110        5.42710
H         -2.90770        7.47080        4.51680
H         -2.90630        8.04570        6.20450
H         -1.45320        8.26470        5.20830
H         -0.81530        6.98060        3.37510
H         -0.06200        5.75330        1.40090
H         -1.25440        2.16710       -1.64720
H         -2.94550        2.49080       -2.06370
H         -1.41680        2.72450       -4.05700
H         -2.21500        4.25470       -3.67080
H         -0.53320        3.99910       -3.20680
H         -6.48170        5.07120       -1.01190
H         -6.07160        6.73990       -1.46590
H         -4.62960        4.20440       -2.39610
H         -4.10960        5.85210       -2.77360
H         -5.65320        5.24320       -3.39030
H         -7.85280        0.09780        4.42830
H         -3.54080       -1.07670        5.12290
H         -7.08150        4.95120        0.96490
H        -11.21260        4.31750        4.23970
H        -11.56340        2.85480        6.22570
H         -7.34960        2.14420        6.51730
