
  xtb     02042202293D
 energy: -375.076573556752 gnorm: 0.000666644098 xtb: 6.4.1 (unknown)
212231  0     0  0            999 V2000
   -0.9765  -10.4272    0.8584 C   0  0  0  0  0  0  0  0  0  0  0  0
   -1.8623  -11.4134    0.5266 C   0  0  0  0  0  0  0  0  0  0  0  0
   -3.3291  -11.3347    0.6002 C   0  0  0  0  0  0  0  0  0  0  0  0
   -4.0034  -10.4657    1.1085 O   0  0  0  0  0  0  0  0  0  0  0  0
   -3.8281  -12.5351   -0.1096 C   0  0  0  0  0  0  0  0  0  0  0  0
   -5.1341  -12.8679   -0.4236 C   0  0  0  0  0  0  0  0  0  0  0  0
   -6.4493  -11.9375    0.1370 Cl  0  0  0  0  0  0  0  0  0  0  0  0
   -5.3541  -13.9932   -1.2311 C   0  0  0  0  0  0  0  0  0  0  0  0
   -6.9504  -14.4657   -1.6179 Cl  0  0  0  0  0  0  0  0  0  0  0  0
   -4.2725  -14.6999   -1.7552 C   0  0  0  0  0  0  0  0  0  0  0  0
   -4.5645  -16.0064   -2.8193 Cl  0  0  0  0  0  0  0  0  0  0  0  0
   -2.9491  -14.3510   -1.4394 C   0  0  0  0  0  0  0  0  0  0  0  0
   -1.6770  -15.1521   -2.2643 Cl  0  0  0  0  0  0  0  0  0  0  0  0
   -2.7319  -13.3049   -0.5508 C   0  0  0  0  0  0  0  0  0  0  0  0
   -1.5122  -12.7252    0.0046 C   0  0  0  0  0  0  0  0  0  0  0  0
   -0.3206  -13.3689    0.2102 C   0  0  0  0  0  0  0  0  0  0  0  0
    0.8265  -12.7686    0.7765 C   0  0  0  0  0  0  0  0  0  0  0  0
    1.8059  -12.3587    1.2137 N   0  0  0  0  0  0  0  0  0  0  0  0
   -0.0931  -14.7551    0.0635 C   0  0  0  0  0  0  0  0  0  0  0  0
    0.1664  -15.8726    0.0816 N   0  0  0  0  0  0  0  0  0  0  0  0
   -1.1873   -9.1452    1.4033 C   0  0  0  0  0  0  0  0  0  0  0  0
   -0.1362   -8.2733    1.6259 C   0  0  0  0  0  0  0  0  0  0  0  0
   -0.5186   -7.0461    2.1843 C   0  0  0  0  0  0  0  0  0  0  0  0
    0.3033   -5.9399    2.4856 C   0  0  0  0  0  0  0  0  0  0  0  0
    1.7509   -5.9253    2.2349 C   0  0  0  0  0  0  0  0  0  0  0  0
    2.6085   -6.9021    2.7340 C   0  0  0  0  0  0  0  0  0  0  0  0
    3.9695   -6.8023    2.5084 C   0  0  0  0  0  0  0  0  0  0  0  0
    4.5018   -5.7411    1.7951 C   0  0  0  0  0  0  0  0  0  0  0  0
    3.6516   -4.7645    1.2971 C   0  0  0  0  0  0  0  0  0  0  0  0
    4.1949   -3.3500    0.3736 S   0  0  0  0  0  0  0  0  0  0  0  0
    5.8771   -3.0179    1.0137 C   0  0  0  0  0  0  0  0  0  0  0  0
    6.9670   -3.5828    0.1230 C   0  0  0  0  0  0  0  0  0  0  0  0
    2.2848   -4.8690    1.5068 C   0  0  0  0  0  0  0  0  0  0  0  0
   -0.3421   -4.8093    2.9443 C   0  0  0  0  0  0  0  0  0  0  0  0
   -1.7498   -4.7230    3.0987 C   0  0  0  0  0  0  0  0  0  0  0  0
   -2.5670   -5.8295    2.8216 C   0  0  0  0  0  0  0  0  0  0  0  0
   -4.0263   -5.6745    2.9133 C   0  0  0  0  0  0  0  0  0  0  0  0
   -4.8534   -5.9914    1.8391 C   0  0  0  0  0  0  0  0  0  0  0  0
   -6.2020   -5.6863    1.8882 C   0  0  0  0  0  0  0  0  0  0  0  0
   -6.7488   -5.0879    3.0077 C   0  0  0  0  0  0  0  0  0  0  0  0
   -5.9366   -4.8117    4.1006 C   0  0  0  0  0  0  0  0  0  0  0  0
   -6.6759   -4.0361    5.5147 S   0  0  0  0  0  0  0  0  0  0  0  0
   -5.8090   -4.8229    6.9184 C   0  0  0  0  0  0  0  0  0  0  0  0
   -5.9897   -6.3274    6.9258 C   0  0  0  0  0  0  0  0  0  0  0  0
   -4.5819   -5.0939    4.0496 C   0  0  0  0  0  0  0  0  0  0  0  0
   -1.9295   -6.9743    2.3646 C   0  0  0  0  0  0  0  0  0  0  0  0
   -2.7214   -8.4476    1.8860 S   0  0  0  0  0  0  0  0  0  0  0  0
   -2.1683   -3.3905    3.3431 C   0  0  0  0  0  0  0  0  0  0  0  0
   -1.1414   -2.4997    3.3906 C   0  0  0  0  0  0  0  0  0  0  0  0
    0.4273   -3.2769    3.2735 S   0  0  0  0  0  0  0  0  0  0  0  0
   -1.2054   -1.0882    3.1593 C   0  0  0  0  0  0  0  0  0  0  0  0
   -1.9840   -0.5273    2.1588 C   0  0  0  0  0  0  0  0  0  0  0  0
   -2.8301   -1.2853    1.3260 N   0  0  0  0  0  0  0  0  0  0  0  0
   -4.2060   -1.3288    1.5785 C   0  0  0  0  0  0  0  0  0  0  0  0
   -5.0944   -1.6923    0.5645 C   0  0  0  0  0  0  0  0  0  0  0  0
   -6.4377   -1.8186    0.8311 C   0  0  0  0  0  0  0  0  0  0  0  0
   -6.9358   -1.5674    2.1091 C   0  0  0  0  0  0  0  0  0  0  0  0
   -8.6667   -1.8169    2.3368 S   0  0  0  0  0  0  0  0  0  0  0  0
   -8.9523   -1.3857    4.0753 C   0  0  0  0  0  0  0  0  0  0  0  0
   -6.0679   -1.1418    3.1034 C   0  0  0  0  0  0  0  0  0  0  0  0
   -4.7164   -1.0219    2.8369 C   0  0  0  0  0  0  0  0  0  0  0  0
   -2.1807   -2.2963    0.5997 C   0  0  0  0  0  0  0  0  0  0  0  0
   -2.7476   -3.5551    0.3906 C   0  0  0  0  0  0  0  0  0  0  0  0
   -2.0252   -4.5517   -0.2262 C   0  0  0  0  0  0  0  0  0  0  0  0
   -0.7179   -4.3318   -0.6499 C   0  0  0  0  0  0  0  0  0  0  0  0
    0.1494   -5.7242   -1.3085 S   0  0  0  0  0  0  0  0  0  0  0  0
    1.5949   -4.9858   -2.1226 C   0  0  0  0  0  0  0  0  0  0  0  0
   -0.1641   -3.0686   -0.4953 C   0  0  0  0  0  0  0  0  0  0  0  0
   -0.8916   -2.0670    0.1173 C   0  0  0  0  0  0  0  0  0  0  0  0
   -1.5918    0.8037    1.8990 C   0  0  0  0  0  0  0  0  0  0  0  0
   -1.9322    1.9353    0.6366 S   0  0  0  0  0  0  0  0  0  0  0  0
   -0.4809    2.8527    1.0285 C   0  0  0  0  0  0  0  0  0  0  0  0
    0.1782    2.3371    2.1297 C   0  0  0  0  0  0  0  0  0  0  0  0
    1.4040    2.7687    2.6639 N   0  0  0  0  0  0  0  0  0  0  0  0
    2.5816    2.3086    2.0707 C   0  0  0  0  0  0  0  0  0  0  0  0
    2.5545    1.3151    1.0917 C   0  0  0  0  0  0  0  0  0  0  0  0
    3.7164    0.8776    0.4878 C   0  0  0  0  0  0  0  0  0  0  0  0
    4.9359    1.4237    0.8558 C   0  0  0  0  0  0  0  0  0  0  0  0
    6.4796    0.9066    0.1608 S   0  0  0  0  0  0  0  0  0  0  0  0
    5.9860    0.1930   -1.4356 C   0  0  0  0  0  0  0  0  0  0  0  0
    4.9732    2.4120    1.8344 C   0  0  0  0  0  0  0  0  0  0  0  0
    3.8143    2.8623    2.4247 C   0  0  0  0  0  0  0  0  0  0  0  0
    1.3426    3.1334    4.0215 C   0  0  0  0  0  0  0  0  0  0  0  0
    2.2122    2.6217    4.9787 C   0  0  0  0  0  0  0  0  0  0  0  0
    2.0986    2.9956    6.3039 C   0  0  0  0  0  0  0  0  0  0  0  0
    1.1020    3.8779    6.6978 C   0  0  0  0  0  0  0  0  0  0  0  0
    0.8534    4.4209    8.3590 S   0  0  0  0  0  0  0  0  0  0  0  0
    2.2413    3.6901    9.2728 C   0  0  0  0  0  0  0  0  0  0  0  0
    0.2144    4.3750    5.7453 C   0  0  0  0  0  0  0  0  0  0  0  0
    0.3326    4.0083    4.4242 C   0  0  0  0  0  0  0  0  0  0  0  0
   -0.4865    1.2020    2.6396 C   0  0  0  0  0  0  0  0  0  0  0  0
    0.0129    0.0007    3.7775 S   0  0  0  0  0  0  0  0  0  0  0  0
   -0.0611    3.8870    0.1409 C   0  0  0  0  0  0  0  0  0  0  0  0
    1.2139    4.3199   -0.0922 C   0  0  0  0  0  0  0  0  0  0  0  0
    1.3081    5.2400   -1.1607 C   0  0  0  0  0  0  0  0  0  0  0  0
    2.4799    5.7792   -1.7132 C   0  0  0  0  0  0  0  0  0  0  0  0
    3.8057    5.4308   -1.1761 C   0  0  0  0  0  0  0  0  0  0  0  0
    4.7432    4.8043   -1.9935 C   0  0  0  0  0  0  0  0  0  0  0  0
    5.9794    4.4590   -1.4824 C   0  0  0  0  0  0  0  0  0  0  0  0
    6.3096    4.7498   -0.1710 C   0  0  0  0  0  0  0  0  0  0  0  0
    5.3891    5.3997    0.6396 C   0  0  0  0  0  0  0  0  0  0  0  0
    5.6946    5.8281    2.3287 S   0  0  0  0  0  0  0  0  0  0  0  0
    7.5159    5.9124    2.4500 C   0  0  0  0  0  0  0  0  0  0  0  0
    8.0940    7.0363    1.6129 C   0  0  0  0  0  0  0  0  0  0  0  0
    4.1328    5.7212    0.1399 C   0  0  0  0  0  0  0  0  0  0  0  0
    2.3260    6.6061   -2.8118 C   0  0  0  0  0  0  0  0  0  0  0  0
    1.0533    6.9397   -3.3549 C   0  0  0  0  0  0  0  0  0  0  0  0
   -0.1241    6.3978   -2.7955 C   0  0  0  0  0  0  0  0  0  0  0  0
   -1.4412    6.7426   -3.3445 C   0  0  0  0  0  0  0  0  0  0  0  0
   -2.3436    5.7512   -3.7209 C   0  0  0  0  0  0  0  0  0  0  0  0
   -3.5679    6.1015   -4.2602 C   0  0  0  0  0  0  0  0  0  0  0  0
   -3.9122    7.4304   -4.4280 C   0  0  0  0  0  0  0  0  0  0  0  0
   -3.0159    8.4230   -4.0545 C   0  0  0  0  0  0  0  0  0  0  0  0
   -3.3826   10.1506   -4.1997 S   0  0  0  0  0  0  0  0  0  0  0  0
   -4.2172   10.2422   -5.8241 C   0  0  0  0  0  0  0  0  0  0  0  0
   -3.3177    9.7578   -6.9433 C   0  0  0  0  0  0  0  0  0  0  0  0
   -1.7881    8.0784   -3.5099 C   0  0  0  0  0  0  0  0  0  0  0  0
    0.0405    5.5328   -1.7315 C   0  0  0  0  0  0  0  0  0  0  0  0
   -1.2293    4.6536   -0.9182 S   0  0  0  0  0  0  0  0  0  0  0  0
    1.1552    7.7675   -4.4861 C   0  0  0  0  0  0  0  0  0  0  0  0
    2.4492    8.0996   -4.8179 C   0  0  0  0  0  0  0  0  0  0  0  0
    3.6089    7.3730   -3.6965 S   0  0  0  0  0  0  0  0  0  0  0  0
    2.9947    8.8838   -5.8542 C   0  0  0  0  0  0  0  0  0  0  0  0
    2.4175    9.5233   -6.9206 C   0  0  0  0  0  0  0  0  0  0  0  0
    0.9993    9.5328   -7.3396 C   0  0  0  0  0  0  0  0  0  0  0  0
    0.0305    9.0394   -6.8007 O   0  0  0  0  0  0  0  0  0  0  0  0
    0.9627   10.2894   -8.6106 C   0  0  0  0  0  0  0  0  0  0  0  0
   -0.1335   10.5483   -9.4082 C   0  0  0  0  0  0  0  0  0  0  0  0
    0.0579   11.2831  -10.5712 C   0  0  0  0  0  0  0  0  0  0  0  0
   -1.2638   11.6425  -11.6112 Cl  0  0  0  0  0  0  0  0  0  0  0  0
    1.3420   11.7296  -10.8926 C   0  0  0  0  0  0  0  0  0  0  0  0
    1.5216   12.4342  -12.0161 F   0  0  0  0  0  0  0  0  0  0  0  0
    2.4462   11.4711  -10.0957 C   0  0  0  0  0  0  0  0  0  0  0  0
    2.2523   10.7380   -8.9343 C   0  0  0  0  0  0  0  0  0  0  0  0
    3.1782   10.2948   -7.8945 C   0  0  0  0  0  0  0  0  0  0  0  0
    4.5158   10.5920   -7.8711 C   0  0  0  0  0  0  0  0  0  0  0  0
    5.4530   10.2173   -6.8834 C   0  0  0  0  0  0  0  0  0  0  0  0
    6.2958    9.9744   -6.1415 N   0  0  0  0  0  0  0  0  0  0  0  0
    5.1711   11.3522   -8.8649 C   0  0  0  0  0  0  0  0  0  0  0  0
    5.7711   11.9569   -9.6340 N   0  0  0  0  0  0  0  0  0  0  0  0
    0.0692  -10.6265    0.6553 H   0  0  0  0  0  0  0  0  0  0  0  0
    0.8799   -8.5210    1.3752 H   0  0  0  0  0  0  0  0  0  0  0  0
    2.2133   -7.7189    3.3188 H   0  0  0  0  0  0  0  0  0  0  0  0
    4.6327   -7.5612    2.8961 H   0  0  0  0  0  0  0  0  0  0  0  0
    5.5673   -5.6883    1.6357 H   0  0  0  0  0  0  0  0  0  0  0  0
    5.9487   -1.9311    1.0676 H   0  0  0  0  0  0  0  0  0  0  0  0
    5.9169   -3.4215    2.0242 H   0  0  0  0  0  0  0  0  0  0  0  0
    7.9422   -3.3323    0.5358 H   0  0  0  0  0  0  0  0  0  0  0  0
    6.8904   -4.6648    0.0398 H   0  0  0  0  0  0  0  0  0  0  0  0
    6.8964   -3.1608   -0.8771 H   0  0  0  0  0  0  0  0  0  0  0  0
    1.6335   -4.1161    1.0922 H   0  0  0  0  0  0  0  0  0  0  0  0
   -4.4347   -6.4474    0.9559 H   0  0  0  0  0  0  0  0  0  0  0  0
   -6.8342   -5.9128    1.0433 H   0  0  0  0  0  0  0  0  0  0  0  0
   -7.7970   -4.8363    3.0450 H   0  0  0  0  0  0  0  0  0  0  0  0
   -6.2684   -4.3658    7.7946 H   0  0  0  0  0  0  0  0  0  0  0  0
   -4.7581   -4.5361    6.8855 H   0  0  0  0  0  0  0  0  0  0  0  0
   -5.5502   -6.7751    6.0360 H   0  0  0  0  0  0  0  0  0  0  0  0
   -5.5060   -6.7526    7.8033 H   0  0  0  0  0  0  0  0  0  0  0  0
   -7.0472   -6.5807    6.9530 H   0  0  0  0  0  0  0  0  0  0  0  0
   -3.9406   -4.8696    4.8889 H   0  0  0  0  0  0  0  0  0  0  0  0
   -3.2004   -3.0972    3.4081 H   0  0  0  0  0  0  0  0  0  0  0  0
   -4.7193   -1.8781   -0.4302 H   0  0  0  0  0  0  0  0  0  0  0  0
   -7.1222   -2.1149    0.0513 H   0  0  0  0  0  0  0  0  0  0  0  0
   -8.6979   -0.3433    4.2439 H   0  0  0  0  0  0  0  0  0  0  0  0
   -8.3780   -2.0470    4.7177 H   0  0  0  0  0  0  0  0  0  0  0  0
  -10.0142   -1.5373    4.2419 H   0  0  0  0  0  0  0  0  0  0  0  0
   -6.4229   -0.9198    4.0964 H   0  0  0  0  0  0  0  0  0  0  0  0
   -4.0488   -0.6987    3.6232 H   0  0  0  0  0  0  0  0  0  0  0  0
   -3.7455   -3.7662    0.7417 H   0  0  0  0  0  0  0  0  0  0  0  0
   -2.4609   -5.5289   -0.3654 H   0  0  0  0  0  0  0  0  0  0  0  0
    2.2851   -4.5842   -1.3862 H   0  0  0  0  0  0  0  0  0  0  0  0
    2.0697   -5.7973   -2.6652 H   0  0  0  0  0  0  0  0  0  0  0  0
    1.2664   -4.2180   -2.8165 H   0  0  0  0  0  0  0  0  0  0  0  0
    0.8352   -2.8498   -0.8382 H   0  0  0  0  0  0  0  0  0  0  0  0
   -0.4384   -1.0944    0.2378 H   0  0  0  0  0  0  0  0  0  0  0  0
    1.6167    0.8685    0.7983 H   0  0  0  0  0  0  0  0  0  0  0  0
    3.6544    0.0951   -0.2516 H   0  0  0  0  0  0  0  0  0  0  0  0
    5.4923   -0.7641   -1.2911 H   0  0  0  0  0  0  0  0  0  0  0  0
    5.3375    0.8935   -1.9531 H   0  0  0  0  0  0  0  0  0  0  0  0
    6.9059    0.0514   -1.9944 H   0  0  0  0  0  0  0  0  0  0  0  0
    5.9238    2.8283    2.1270 H   0  0  0  0  0  0  0  0  0  0  0  0
    3.8574    3.6568    3.1532 H   0  0  0  0  0  0  0  0  0  0  0  0
    2.9743    1.9136    4.6905 H   0  0  0  0  0  0  0  0  0  0  0  0
    2.7874    2.5768    7.0195 H   0  0  0  0  0  0  0  0  0  0  0  0
    3.1819    4.0221    8.8432 H   0  0  0  0  0  0  0  0  0  0  0  0
    2.1637    2.6067    9.2685 H   0  0  0  0  0  0  0  0  0  0  0  0
    2.1484    4.0610   10.2888 H   0  0  0  0  0  0  0  0  0  0  0  0
   -0.5639    5.0547    6.0566 H   0  0  0  0  0  0  0  0  0  0  0  0
   -0.3544    4.4008    3.6891 H   0  0  0  0  0  0  0  0  0  0  0  0
    2.0741    3.9581    0.4374 H   0  0  0  0  0  0  0  0  0  0  0  0
    4.4926    4.5755   -3.0186 H   0  0  0  0  0  0  0  0  0  0  0  0
    6.7006    3.9551   -2.1087 H   0  0  0  0  0  0  0  0  0  0  0  0
    7.2778    4.4582    0.2030 H   0  0  0  0  0  0  0  0  0  0  0  0
    7.6943    6.0837    3.5117 H   0  0  0  0  0  0  0  0  0  0  0  0
    7.9304    4.9411    2.1814 H   0  0  0  0  0  0  0  0  0  0  0  0
    7.6733    7.9902    1.9224 H   0  0  0  0  0  0  0  0  0  0  0  0
    7.8722    6.8894    0.5577 H   0  0  0  0  0  0  0  0  0  0  0  0
    9.1742    7.0736    1.7394 H   0  0  0  0  0  0  0  0  0  0  0  0
    3.4207    6.2206    0.7799 H   0  0  0  0  0  0  0  0  0  0  0  0
   -2.0768    4.7109   -3.6133 H   0  0  0  0  0  0  0  0  0  0  0  0
   -4.2649    5.3302   -4.5525 H   0  0  0  0  0  0  0  0  0  0  0  0
   -4.8763    7.6863   -4.8393 H   0  0  0  0  0  0  0  0  0  0  0  0
   -4.4495   11.3013   -5.9349 H   0  0  0  0  0  0  0  0  0  0  0  0
   -5.1508    9.6829   -5.7750 H   0  0  0  0  0  0  0  0  0  0  0  0
   -3.1069    8.6952   -6.8391 H   0  0  0  0  0  0  0  0  0  0  0  0
   -3.7994    9.9275   -7.9048 H   0  0  0  0  0  0  0  0  0  0  0  0
   -2.3700   10.2908   -6.9183 H   0  0  0  0  0  0  0  0  0  0  0  0
   -1.1112    8.8601   -3.2005 H   0  0  0  0  0  0  0  0  0  0  0  0
    0.3081    8.0997   -5.0566 H   0  0  0  0  0  0  0  0  0  0  0  0
    4.0722    8.9721   -5.7821 H   0  0  0  0  0  0  0  0  0  0  0  0
   -1.1109   10.1845   -9.1339 H   0  0  0  0  0  0  0  0  0  0  0  0
    3.4076   11.8448  -10.4069 H   0  0  0  0  0  0  0  0  0  0  0  0
  1  2  2  0  0  0  0
  2  3  1  0  0  0  0
  3  4  2  0  0  0  0
  3  5  1  0  0  0  0
  5  6  2  0  0  0  0
  6  7  1  0  0  0  0
  6  8  1  0  0  0  0
  8  9  1  0  0  0  0
  8 10  2  0  0  0  0
 10 11  1  0  0  0  0
 10 12  1  0  0  0  0
 12 13  1  0  0  0  0
 12 14  2  0  0  0  0
 14 15  1  0  0  0  0
 15 16  2  0  0  0  0
 16 17  1  0  0  0  0
 17 18  3  0  0  0  0
 16 19  1  0  0  0  0
 19 20  3  0  0  0  0
  1 21  1  0  0  0  0
 21 22  2  0  0  0  0
 22 23  1  0  0  0  0
 23 24  2  0  0  0  0
 24 25  1  0  0  0  0
 25 26  2  0  0  0  0
 26 27  1  0  0  0  0
 27 28  2  0  0  0  0
 28 29  1  0  0  0  0
 29 30  1  0  0  0  0
 30 31  1  0  0  0  0
 31 32  1  0  0  0  0
 29 33  2  0  0  0  0
 24 34  1  0  0  0  0
 34 35  2  0  0  0  0
 35 36  1  0  0  0  0
 36 37  1  0  0  0  0
 37 38  2  0  0  0  0
 38 39  1  0  0  0  0
 39 40  2  0  0  0  0
 40 41  1  0  0  0  0
 41 42  1  0  0  0  0
 42 43  1  0  0  0  0
 43 44  1  0  0  0  0
 41 45  2  0  0  0  0
 36 46  2  0  0  0  0
 46 47  1  0  0  0  0
 35 48  1  0  0  0  0
 48 49  2  0  0  0  0
 49 50  1  0  0  0  0
 49 51  1  0  0  0  0
 51 52  2  0  0  0  0
 52 53  1  0  0  0  0
 53 54  1  0  0  0  0
 54 55  2  0  0  0  0
 55 56  1  0  0  0  0
 56 57  2  0  0  0  0
 57 58  1  0  0  0  0
 58 59  1  0  0  0  0
 57 60  1  0  0  0  0
 60 61  2  0  0  0  0
 53 62  1  0  0  0  0
 62 63  2  0  0  0  0
 63 64  1  0  0  0  0
 64 65  2  0  0  0  0
 65 66  1  0  0  0  0
 66 67  1  0  0  0  0
 65 68  1  0  0  0  0
 68 69  2  0  0  0  0
 52 70  1  0  0  0  0
 70 71  1  0  0  0  0
 71 72  1  0  0  0  0
 72 73  2  0  0  0  0
 73 74  1  0  0  0  0
 74 75  1  0  0  0  0
 75 76  2  0  0  0  0
 76 77  1  0  0  0  0
 77 78  2  0  0  0  0
 78 79  1  0  0  0  0
 79 80  1  0  0  0  0
 78 81  1  0  0  0  0
 81 82  2  0  0  0  0
 74 83  1  0  0  0  0
 83 84  2  0  0  0  0
 84 85  1  0  0  0  0
 85 86  2  0  0  0  0
 86 87  1  0  0  0  0
 87 88  1  0  0  0  0
 86 89  1  0  0  0  0
 89 90  2  0  0  0  0
 73 91  1  0  0  0  0
 91 92  1  0  0  0  0
 72 93  1  0  0  0  0
 93 94  2  0  0  0  0
 94 95  1  0  0  0  0
 95 96  2  0  0  0  0
 96 97  1  0  0  0  0
 97 98  2  0  0  0  0
 98 99  1  0  0  0  0
 99100  2  0  0  0  0
100101  1  0  0  0  0
101102  1  0  0  0  0
102103  1  0  0  0  0
103104  1  0  0  0  0
101105  2  0  0  0  0
 96106  1  0  0  0  0
106107  2  0  0  0  0
107108  1  0  0  0  0
108109  1  0  0  0  0
109110  2  0  0  0  0
110111  1  0  0  0  0
111112  2  0  0  0  0
112113  1  0  0  0  0
113114  1  0  0  0  0
114115  1  0  0  0  0
115116  1  0  0  0  0
113117  2  0  0  0  0
108118  2  0  0  0  0
118119  1  0  0  0  0
107120  1  0  0  0  0
120121  2  0  0  0  0
121122  1  0  0  0  0
121123  1  0  0  0  0
123124  2  0  0  0  0
124125  1  0  0  0  0
125126  2  0  0  0  0
125127  1  0  0  0  0
127128  2  0  0  0  0
128129  1  0  0  0  0
129130  1  0  0  0  0
129131  2  0  0  0  0
131132  1  0  0  0  0
131133  1  0  0  0  0
133134  2  0  0  0  0
134135  1  0  0  0  0
135136  2  0  0  0  0
136137  1  0  0  0  0
137138  3  0  0  0  0
136139  1  0  0  0  0
139140  3  0  0  0  0
 15  2  1  0  0  0  0
 47 21  1  0  0  0  0
 92 51  1  0  0  0  0
119 93  1  0  0  0  0
135124  1  0  0  0  0
 14  5  1  0  0  0  0
 46 23  1  0  0  0  0
 61 54  1  0  0  0  0
 69 62  1  0  0  0  0
 91 70  2  0  0  0  0
118 95  1  0  0  0  0
134127  1  0  0  0  0
 33 25  1  0  0  0  0
 50 34  1  0  0  0  0
 82 75  1  0  0  0  0
 90 83  1  0  0  0  0
105 97  1  0  0  0  0
122106  1  0  0  0  0
 45 37  1  0  0  0  0
117109  1  0  0  0  0
  1141  1  0  0  0  0
 22142  1  0  0  0  0
 26143  1  0  0  0  0
 27144  1  0  0  0  0
 28145  1  0  0  0  0
 31146  1  0  0  0  0
 31147  1  0  0  0  0
 32148  1  0  0  0  0
 32149  1  0  0  0  0
 32150  1  0  0  0  0
 33151  1  0  0  0  0
 38152  1  0  0  0  0
 39153  1  0  0  0  0
 40154  1  0  0  0  0
 43155  1  0  0  0  0
 43156  1  0  0  0  0
 44157  1  0  0  0  0
 44158  1  0  0  0  0
 44159  1  0  0  0  0
 45160  1  0  0  0  0
 48161  1  0  0  0  0
 55162  1  0  0  0  0
 56163  1  0  0  0  0
 59164  1  0  0  0  0
 59165  1  0  0  0  0
 59166  1  0  0  0  0
 60167  1  0  0  0  0
 61168  1  0  0  0  0
 63169  1  0  0  0  0
 64170  1  0  0  0  0
 67171  1  0  0  0  0
 67172  1  0  0  0  0
 67173  1  0  0  0  0
 68174  1  0  0  0  0
 69175  1  0  0  0  0
 76176  1  0  0  0  0
 77177  1  0  0  0  0
 80178  1  0  0  0  0
 80179  1  0  0  0  0
 80180  1  0  0  0  0
 81181  1  0  0  0  0
 82182  1  0  0  0  0
 84183  1  0  0  0  0
 85184  1  0  0  0  0
 88185  1  0  0  0  0
 88186  1  0  0  0  0
 88187  1  0  0  0  0
 89188  1  0  0  0  0
 90189  1  0  0  0  0
 94190  1  0  0  0  0
 98191  1  0  0  0  0
 99192  1  0  0  0  0
100193  1  0  0  0  0
103194  1  0  0  0  0
103195  1  0  0  0  0
104196  1  0  0  0  0
104197  1  0  0  0  0
104198  1  0  0  0  0
105199  1  0  0  0  0
110200  1  0  0  0  0
111201  1  0  0  0  0
112202  1  0  0  0  0
115203  1  0  0  0  0
115204  1  0  0  0  0
116205  1  0  0  0  0
116206  1  0  0  0  0
116207  1  0  0  0  0
117208  1  0  0  0  0
120209  1  0  0  0  0
123210  1  0  0  0  0
128211  1  0  0  0  0
133212  1  0  0  0  0
M  END
