193

C          5.47510        0.92920        6.55790
C          5.56200        2.27520        6.66020
C          6.42530        2.91100        7.68560
O          7.35320        2.41020        8.27050
C          5.79900        4.23500        7.92450
C          6.08310        5.15620        8.91890
Cl         7.41820        4.95240        9.96220
C          5.23550        6.26430        9.05910
Cl         5.56480        7.44180       10.25350
C          4.10060        6.38650        8.25670
Cl         3.02900        7.69300        8.51480
C          3.81380        5.44890        7.25240
Cl         2.32190        5.55870        6.41690
C          4.70610        4.40480        7.04670
C          4.71930        3.31320        6.07780
C          4.26700        3.34670        4.78980
C          4.52260        2.33520        3.84260
N          4.71790        1.57800        3.00200
C          3.64850        4.43170        4.12650
N          3.19560        5.24920        3.46180
C          4.34910        0.25890        5.90570
C          3.02930        0.48440        6.31180
S          2.67500        1.54840        7.69170
C          3.75900        0.91580        9.03660
C          2.96530        0.81780       10.32530
C          1.96410        0.04710        5.51620
S          0.28710        0.42300        5.91280
C          0.07280       -0.23540        7.61540
C          0.90950       -1.46270        7.90510
C          2.21810       -0.60330        4.29500
C          3.53160       -1.00870        4.00080
C          4.59310       -0.52900        4.77620
C          5.98290       -0.50380        4.29170
O          6.84890        0.08500        4.92120
C          6.18610       -1.08790        2.97510
C          5.13250       -1.74840        2.27670
C          3.79600       -1.91590        2.85470
O          3.00600       -2.75350        2.46590
C          5.51680       -2.15910        1.03480
S          7.14390       -1.73670        0.69270
C          7.33460       -1.02150        2.23520
C          1.28610       -0.59260        3.18020
C         -0.03480       -0.91790        2.94800
N         -0.95330       -1.49830        3.80530
C         -2.28590       -1.05880        3.65760
C         -2.55210        0.30950        3.61470
C         -3.84200        0.75830        3.44530
C         -4.89430       -0.14730        3.31950
S         -6.50100        0.54710        3.10890
C         -7.61560       -0.88100        3.22270
C         -4.63240       -1.51090        3.35890
C         -3.33640       -1.96030        3.52260
C         -0.64710       -2.54000        4.67640
C         -1.48030       -2.80160        5.76850
C         -1.22140       -3.86130        6.60870
C         -0.11270       -4.67820        6.39700
S          0.14400       -5.99100        7.55470
C          1.34190       -7.06660        6.71530
C          0.73180       -4.40850        5.32890
C          0.46230       -3.35820        4.47230
C         -0.39420       -0.60620        1.60530
S         -1.81140       -0.88090        0.65750
C         -0.99350       -0.27040       -0.78160
C          0.32610        0.09450       -0.53560
N          1.29050        0.48330       -1.43780
C          1.40470       -0.05730       -2.72310
C          0.90490       -1.31790       -3.04050
C          0.99610       -1.81250       -4.32770
C          1.60540       -1.05970       -5.32380
S          1.71750       -1.54950       -7.01280
C          0.62920       -2.99460       -7.12420
C          2.15790        0.18120       -4.99620
C          2.04910        0.68130       -3.71980
C          2.36100        1.25570       -0.92950
C          2.10000        2.44710       -0.25360
C          3.13620        3.18760        0.27200
C          4.45200        2.75010        0.13660
S          5.71070        3.78070        0.81400
C          7.11360        2.64210        1.00940
C          4.71530        1.56640       -0.54210
C          3.67720        0.82680       -1.07120
C          0.62440       -0.06990        0.84160
S          2.06780        0.11110        1.75820
C         -1.75310       -0.32060       -1.98150
C         -1.62640        0.26600       -3.21870
C         -2.66980       -0.25560       -4.02440
C         -3.04400       -0.09630       -5.37030
C         -2.39360        0.78600       -6.34210
C         -3.16840        1.45110       -7.29190
C         -2.56070        2.25470       -8.23340
F         -3.34960        2.88750       -9.12830
C         -1.18530        2.44230       -8.30270
C         -0.53960        3.33620       -9.31860
C         -0.29630        4.72950       -8.73410
C         -0.44750        1.77360       -7.33140
F          0.88980        1.93190       -7.32840
C         -1.01330        0.96110       -6.36930
C         -4.11300       -0.89390       -5.75620
C         -4.82170       -1.79050       -4.91080
C         -4.47180       -1.92050       -3.55380
C         -5.13030       -2.84330       -2.62860
C         -5.49200       -4.12360       -3.04120
C         -6.10150       -4.98200       -2.14840
C         -6.39010       -4.63540       -0.83330
C         -7.02350       -5.58790        0.13690
C         -5.95670       -6.25330        1.00980
C         -6.00130       -3.35340       -0.46010
C         -5.38440       -2.46270       -1.31220
F         -6.25790       -2.95630        0.80580
F         -6.43710       -6.21540       -2.57870
C         -3.39950       -1.13260       -3.16920
O         -2.83890       -1.14400       -1.94180
C         -5.78550       -2.40450       -5.74310
C         -5.57400       -1.92220       -7.01680
O         -4.58200       -0.98600       -7.01820
C         -6.16680       -2.27720       -8.25280
C         -5.64430       -1.99780       -9.47850
C         -6.48090       -2.06600      -10.70160
O         -7.56280       -2.58840      -10.81210
C         -5.72360       -1.29720      -11.72050
C         -6.12250       -0.90830      -12.98770
Cl        -7.61040       -1.42000      -13.64620
C         -5.27140       -0.07030      -13.72390
Cl        -5.71470        0.41770      -15.30080
C         -4.08100        0.39060      -13.16320
Cl        -3.10020        1.47410      -14.04860
C         -3.67680       -0.01300      -11.88020
Cl        -2.26880        0.68420      -11.20130
C         -4.48200       -0.89980      -11.17980
C         -4.32620       -1.53350       -9.87280
C         -3.15020       -1.92960       -9.29630
C         -1.85090       -1.78580       -9.82860
N         -0.75820       -1.81120      -10.17920
C         -3.07250       -2.74750       -8.14660
N         -2.91120       -3.44330       -7.24740
H          6.17270        0.34260        7.14360
H          4.13120       -0.05750        8.72340
H          4.59380        1.60710        9.14970
H          3.61950        0.48500       11.12810
H          2.14640        0.10950       10.22600
H          2.55520        1.78890       10.59250
H          0.27030        0.56960        8.32170
H         -0.98880       -0.47950        7.63430
H          1.96190       -1.21280        8.01230
H          0.56920       -1.91830        8.83290
H          0.81140       -2.19500        7.10890
H          4.91870       -2.66470        0.30290
H          8.26900       -0.58290        2.52580
H         -1.73920        1.01130        3.72640
H         -4.05300        1.81620        3.41510
H         -7.44300       -1.55550        2.39100
H         -7.47240       -1.38140        4.17580
H         -8.61960       -0.47220        3.16640
H         -5.42370       -2.23210        3.24290
H         -3.13510       -3.02110        3.53910
H         -2.33630       -2.16990        5.95060
H         -1.87120       -4.06440        7.44600
H          2.32020       -6.59510        6.68860
H          0.98710       -7.29380        5.71460
H          1.38860       -7.97440        7.30870
H          1.60290       -5.01500        5.13980
H          1.11780       -3.18890        3.63330
H          0.45260       -1.92680       -2.27290
H          0.58930       -2.78780       -4.54010
H          0.54370       -3.20660       -8.18570
H          1.07330       -3.84320       -6.61180
H         -0.35140       -2.75830       -6.72040
H          2.64210        0.75670       -5.76870
H          2.45360        1.65410       -3.48450
H          1.07920        2.78130       -0.14000
H          2.94000        4.10850        0.79930
H          6.77330        1.76050        1.54480
H          7.84760        3.17840        1.60270
H          7.53870        2.38930        0.04250
H          5.72570        1.21070       -0.66370
H          3.88240       -0.09420       -1.59710
H         -0.89510        0.99350       -3.49910
H         -4.24250        1.36520       -7.29700
H          0.41340        2.90050       -9.62420
H         -1.18580        3.41770      -10.19370
H          0.35980        4.66880       -7.86890
H         -1.23690        5.18210       -8.42760
H          0.17010        5.36880       -9.47900
H         -0.37440        0.45290       -5.66790
H         -5.26820       -4.46950       -4.03700
H         -7.57510       -6.35230       -0.41150
H         -7.72230       -5.04240        0.77460
H         -6.42410       -6.93860        1.71220
H         -5.25700       -6.81210        0.39240
H         -5.40240       -5.50430        1.57080
H         -5.11410       -1.48430       -0.95060
H         -6.52600       -3.12590       -5.46580
H         -7.13720       -2.75420       -8.22090
