
  xtb     02042204253D
 energy: -331.454798681783 gnorm: 0.000450365996 xtb: 6.4.1 (unknown)
174189  0     0  0            999 V2000
    0.5511    1.5679   -8.1759 C   0  0  0  0  0  0  0  0  0  0  0  0
   -0.1733    2.5642   -8.7365 C   0  0  0  0  0  0  0  0  0  0  0  0
   -0.6991    3.6942   -7.9419 C   0  0  0  0  0  0  0  0  0  0  0  0
   -0.6943    3.8095   -6.7368 O   0  0  0  0  0  0  0  0  0  0  0  0
   -1.1582    4.6856   -8.9395 C   0  0  0  0  0  0  0  0  0  0  0  0
   -1.6555    5.9583   -8.7184 C   0  0  0  0  0  0  0  0  0  0  0  0
   -1.9742    6.5217   -7.1407 Cl  0  0  0  0  0  0  0  0  0  0  0  0
   -1.8893    6.7832   -9.8269 C   0  0  0  0  0  0  0  0  0  0  0  0
   -2.5321    8.3511   -9.6041 Cl  0  0  0  0  0  0  0  0  0  0  0  0
   -1.5591    6.3409  -11.1078 C   0  0  0  0  0  0  0  0  0  0  0  0
   -1.7608    7.4001  -12.4346 Cl  0  0  0  0  0  0  0  0  0  0  0  0
   -1.0531    5.0496  -11.3273 C   0  0  0  0  0  0  0  0  0  0  0  0
   -0.5228    4.6386  -12.9044 Cl  0  0  0  0  0  0  0  0  0  0  0  0
   -0.9155    4.1935  -10.2407 C   0  0  0  0  0  0  0  0  0  0  0  0
   -0.4802    2.8046  -10.1371 C   0  0  0  0  0  0  0  0  0  0  0  0
   -0.5703    1.8175  -11.0784 C   0  0  0  0  0  0  0  0  0  0  0  0
   -1.1676    1.9038  -12.3550 C   0  0  0  0  0  0  0  0  0  0  0  0
   -1.7018    1.8327  -13.3678 N   0  0  0  0  0  0  0  0  0  0  0  0
   -0.2181    0.4764  -10.8023 C   0  0  0  0  0  0  0  0  0  0  0  0
    0.0322   -0.6294  -10.6242 N   0  0  0  0  0  0  0  0  0  0  0  0
    0.5884    1.3949   -6.7230 C   0  0  0  0  0  0  0  0  0  0  0  0
   -0.5341    0.9436   -6.0313 C   0  0  0  0  0  0  0  0  0  0  0  0
   -1.9857    0.4589   -6.9500 S   0  0  0  0  0  0  0  0  0  0  0  0
   -1.4137   -1.1877   -7.5100 C   0  0  0  0  0  0  0  0  0  0  0  0
   -1.4171   -2.1946   -6.3782 C   0  0  0  0  0  0  0  0  0  0  0  0
   -0.4876    0.8238   -4.6471 C   0  0  0  0  0  0  0  0  0  0  0  0
   -1.9232    0.3920   -3.7061 S   0  0  0  0  0  0  0  0  0  0  0  0
   -3.0372    1.7898   -4.0999 C   0  0  0  0  0  0  0  0  0  0  0  0
   -2.3993    3.1258   -3.7839 C   0  0  0  0  0  0  0  0  0  0  0  0
    0.7191    1.0319   -3.9596 C   0  0  0  0  0  0  0  0  0  0  0  0
    1.8331    1.5314   -4.6349 C   0  0  0  0  0  0  0  0  0  0  0  0
    1.7545    1.7163   -6.0234 C   0  0  0  0  0  0  0  0  0  0  0  0
    2.8470    2.2334   -6.8505 C   0  0  0  0  0  0  0  0  0  0  0  0
    2.7046    2.3636   -8.0599 O   0  0  0  0  0  0  0  0  0  0  0  0
    4.0627    2.5569   -6.1237 C   0  0  0  0  0  0  0  0  0  0  0  0
    4.1430    2.4249   -4.7043 C   0  0  0  0  0  0  0  0  0  0  0  0
    3.0432    1.9234   -3.8741 C   0  0  0  0  0  0  0  0  0  0  0  0
    3.1182    1.8582   -2.6622 O   0  0  0  0  0  0  0  0  0  0  0  0
    5.3667    2.8012   -4.2280 C   0  0  0  0  0  0  0  0  0  0  0  0
    6.4250    3.3002   -5.4811 S   0  0  0  0  0  0  0  0  0  0  0  0
    5.2295    3.0163   -6.6695 C   0  0  0  0  0  0  0  0  0  0  0  0
    0.7752    0.6306   -2.5549 C   0  0  0  0  0  0  0  0  0  0  0  0
    1.1352   -0.6262   -2.1332 C   0  0  0  0  0  0  0  0  0  0  0  0
    1.5454   -1.6497   -2.9982 N   0  0  0  0  0  0  0  0  0  0  0  0
    2.6272   -1.3825   -3.8490 C   0  0  0  0  0  0  0  0  0  0  0  0
    2.5325   -1.5445   -5.2319 C   0  0  0  0  0  0  0  0  0  0  0  0
    3.6022   -1.2339   -6.0418 C   0  0  0  0  0  0  0  0  0  0  0  0
    4.7931   -0.7674   -5.4894 C   0  0  0  0  0  0  0  0  0  0  0  0
    6.0936   -0.3675   -6.6185 S   0  0  0  0  0  0  0  0  0  0  0  0
    7.5753   -0.3479   -5.5665 C   0  0  0  0  0  0  0  0  0  0  0  0
    4.8961   -0.6136   -4.1136 C   0  0  0  0  0  0  0  0  0  0  0  0
    3.8208   -0.9184   -3.3029 C   0  0  0  0  0  0  0  0  0  0  0  0
    0.7275   -2.7637   -3.1778 C   0  0  0  0  0  0  0  0  0  0  0  0
   -0.6065   -2.7530   -2.7649 C   0  0  0  0  0  0  0  0  0  0  0  0
   -1.4002   -3.8624   -2.9480 C   0  0  0  0  0  0  0  0  0  0  0  0
   -0.8905   -5.0109   -3.5483 C   0  0  0  0  0  0  0  0  0  0  0  0
   -2.0178   -6.3548   -3.7582 S   0  0  0  0  0  0  0  0  0  0  0  0
   -0.9916   -7.6880   -4.4395 C   0  0  0  0  0  0  0  0  0  0  0  0
    0.4388   -5.0333   -3.9472 C   0  0  0  0  0  0  0  0  0  0  0  0
    1.2393   -3.9248   -3.7550 C   0  0  0  0  0  0  0  0  0  0  0  0
    0.9635   -0.7564   -0.7336 C   0  0  0  0  0  0  0  0  0  0  0  0
    1.2921   -1.9919    0.4230 S   0  0  0  0  0  0  0  0  0  0  0  0
    0.7097   -0.9636    1.7250 C   0  0  0  0  0  0  0  0  0  0  0  0
    0.2286    0.2458    1.2646 C   0  0  0  0  0  0  0  0  0  0  0  0
   -0.4254    1.2348    1.9882 N   0  0  0  0  0  0  0  0  0  0  0  0
   -0.2470    1.4191    3.3624 C   0  0  0  0  0  0  0  0  0  0  0  0
   -1.3531    1.6119    4.1927 C   0  0  0  0  0  0  0  0  0  0  0  0
   -1.1904    1.7018    5.5554 C   0  0  0  0  0  0  0  0  0  0  0  0
    0.0771    1.6060    6.1267 C   0  0  0  0  0  0  0  0  0  0  0  0
    0.1346    1.6134    7.8923 S   0  0  0  0  0  0  0  0  0  0  0  0
    1.9005    1.5078    8.2924 C   0  0  0  0  0  0  0  0  0  0  0  0
    1.1857    1.4841    5.3014 C   0  0  0  0  0  0  0  0  0  0  0  0
    1.0221    1.3981    3.9326 C   0  0  0  0  0  0  0  0  0  0  0  0
   -1.4801    1.8979    1.3313 C   0  0  0  0  0  0  0  0  0  0  0  0
   -1.6615    3.2660    1.5016 C   0  0  0  0  0  0  0  0  0  0  0  0
   -2.6551    3.9361    0.8137 C   0  0  0  0  0  0  0  0  0  0  0  0
   -3.4828    3.2458   -0.0620 C   0  0  0  0  0  0  0  0  0  0  0  0
   -4.7574    3.9928   -1.0286 S   0  0  0  0  0  0  0  0  0  0  0  0
   -4.5682    5.7683   -0.7071 C   0  0  0  0  0  0  0  0  0  0  0  0
   -3.3262    1.8692   -0.2090 C   0  0  0  0  0  0  0  0  0  0  0  0
   -2.3420    1.2017    0.4824 C   0  0  0  0  0  0  0  0  0  0  0  0
    0.4358    0.3723   -0.1360 C   0  0  0  0  0  0  0  0  0  0  0  0
    0.2107    1.6553   -1.2717 S   0  0  0  0  0  0  0  0  0  0  0  0
    0.6754   -1.4043    3.1168 C   0  0  0  0  0  0  0  0  0  0  0  0
   -0.5902   -1.4624    3.7227 C   0  0  0  0  0  0  0  0  0  0  0  0
   -0.7583   -1.6308    5.0739 C   0  0  0  0  0  0  0  0  0  0  0  0
    0.3500   -1.7823    5.9190 C   0  0  0  0  0  0  0  0  0  0  0  0
    1.6141   -1.8460    5.3195 C   0  0  0  0  0  0  0  0  0  0  0  0
    2.9263   -1.9479    5.9134 C   0  0  0  0  0  0  0  0  0  0  0  0
    3.4188   -2.3476    7.1085 C   0  0  0  0  0  0  0  0  0  0  0  0
    2.7542   -3.0406    8.1802 C   0  0  0  0  0  0  0  0  0  0  0  0
    1.7007   -3.9887    8.0053 C   0  0  0  0  0  0  0  0  0  0  0  0
    1.3010   -4.5400    9.1737 C   0  0  0  0  0  0  0  0  0  0  0  0
    2.1636   -3.9091   10.5250 S   0  0  0  0  0  0  0  0  0  0  0  0
    3.1119   -2.9275    9.5001 C   0  0  0  0  0  0  0  0  0  0  0  0
    3.8790   -1.6311    4.8213 C   0  0  0  0  0  0  0  0  0  0  0  0
    5.0860   -1.5391    4.8856 O   0  0  0  0  0  0  0  0  0  0  0  0
    3.1450   -1.5350    3.6582 N   0  0  0  0  0  0  0  0  0  0  0  0
    3.8509   -1.4277    2.4010 C   0  0  0  0  0  0  0  0  0  0  0  0
    3.9184   -0.0090    1.8462 C   0  0  0  0  0  0  0  0  0  0  0  0
    1.7870   -1.6229    3.9318 C   0  0  0  0  0  0  0  0  0  0  0  0
    0.2373   -1.6835    7.3434 C   0  0  0  0  0  0  0  0  0  0  0  0
   -0.8126   -1.8857    8.1727 C   0  0  0  0  0  0  0  0  0  0  0  0
   -0.7264   -1.3650    9.5629 C   0  0  0  0  0  0  0  0  0  0  0  0
    0.2736   -0.9961   10.1286 O   0  0  0  0  0  0  0  0  0  0  0  0
   -2.1193   -1.3724   10.0621 C   0  0  0  0  0  0  0  0  0  0  0  0
   -2.6299   -0.8247   11.2264 C   0  0  0  0  0  0  0  0  0  0  0  0
   -1.6070   -0.1302   12.3995 Cl  0  0  0  0  0  0  0  0  0  0  0  0
   -4.0194   -0.8447   11.4153 C   0  0  0  0  0  0  0  0  0  0  0  0
   -4.6925   -0.2040   12.8495 Cl  0  0  0  0  0  0  0  0  0  0  0  0
   -4.8563   -1.3525   10.4212 C   0  0  0  0  0  0  0  0  0  0  0  0
   -6.5509   -1.2862   10.6376 Cl  0  0  0  0  0  0  0  0  0  0  0  0
   -4.3332   -1.9056    9.2418 C   0  0  0  0  0  0  0  0  0  0  0  0
   -5.4149   -2.3700    7.9941 Cl  0  0  0  0  0  0  0  0  0  0  0  0
   -2.9547   -1.9668    9.0929 C   0  0  0  0  0  0  0  0  0  0  0  0
   -2.1140   -2.5102    8.0278 C   0  0  0  0  0  0  0  0  0  0  0  0
   -2.3756   -3.6179    7.2697 C   0  0  0  0  0  0  0  0  0  0  0  0
   -3.5019   -4.4590    7.4040 C   0  0  0  0  0  0  0  0  0  0  0  0
   -4.3340   -5.2422    7.5032 N   0  0  0  0  0  0  0  0  0  0  0  0
   -1.4334   -4.1755    6.3777 C   0  0  0  0  0  0  0  0  0  0  0  0
   -0.6986   -4.6873    5.6607 N   0  0  0  0  0  0  0  0  0  0  0  0
    1.0275    0.8080   -8.7800 H   0  0  0  0  0  0  0  0  0  0  0  0
   -0.4271   -1.0678   -7.9561 H   0  0  0  0  0  0  0  0  0  0  0  0
   -2.1216   -1.4646   -8.2901 H   0  0  0  0  0  0  0  0  0  0  0  0
   -2.4172   -2.3055   -5.9669 H   0  0  0  0  0  0  0  0  0  0  0  0
   -0.7570   -1.8834   -5.5702 H   0  0  0  0  0  0  0  0  0  0  0  0
   -1.0822   -3.1626   -6.7449 H   0  0  0  0  0  0  0  0  0  0  0  0
   -3.3331    1.7166   -5.1445 H   0  0  0  0  0  0  0  0  0  0  0  0
   -3.9011    1.6041   -3.4622 H   0  0  0  0  0  0  0  0  0  0  0  0
   -1.9806    3.1242   -2.7787 H   0  0  0  0  0  0  0  0  0  0  0  0
   -1.6128    3.3606   -4.4986 H   0  0  0  0  0  0  0  0  0  0  0  0
   -3.1589    3.9024   -3.8416 H   0  0  0  0  0  0  0  0  0  0  0  0
    5.6879    2.8032   -3.2049 H   0  0  0  0  0  0  0  0  0  0  0  0
    5.4355    3.1901   -7.7070 H   0  0  0  0  0  0  0  0  0  0  0  0
    1.6138   -1.9097   -5.6658 H   0  0  0  0  0  0  0  0  0  0  0  0
    3.5290   -1.3469   -7.1128 H   0  0  0  0  0  0  0  0  0  0  0  0
    7.6125   -1.2590   -4.9776 H   0  0  0  0  0  0  0  0  0  0  0  0
    7.5827    0.5337   -4.9314 H   0  0  0  0  0  0  0  0  0  0  0  0
    8.4181   -0.3124   -6.2495 H   0  0  0  0  0  0  0  0  0  0  0  0
    5.8074   -0.2568   -3.6613 H   0  0  0  0  0  0  0  0  0  0  0  0
    3.8967   -0.7843   -2.2347 H   0  0  0  0  0  0  0  0  0  0  0  0
   -1.0281   -1.8655   -2.3198 H   0  0  0  0  0  0  0  0  0  0  0  0
   -2.4327   -3.8466   -2.6355 H   0  0  0  0  0  0  0  0  0  0  0  0
   -0.1825   -7.9194   -3.7530 H   0  0  0  0  0  0  0  0  0  0  0  0
   -0.6129   -7.4065   -5.4179 H   0  0  0  0  0  0  0  0  0  0  0  0
   -1.6516   -8.5446   -4.5338 H   0  0  0  0  0  0  0  0  0  0  0  0
    0.8703   -5.9089   -4.4046 H   0  0  0  0  0  0  0  0  0  0  0  0
    2.2754   -3.9598   -4.0571 H   0  0  0  0  0  0  0  0  0  0  0  0
   -2.3415    1.6641    3.7613 H   0  0  0  0  0  0  0  0  0  0  0  0
   -2.0468    1.8262    6.2006 H   0  0  0  0  0  0  0  0  0  0  0  0
    1.9393    1.3714    9.3688 H   0  0  0  0  0  0  0  0  0  0  0  0
    2.3515    0.6517    7.7990 H   0  0  0  0  0  0  0  0  0  0  0  0
    2.3998    2.4303    8.0105 H   0  0  0  0  0  0  0  0  0  0  0  0
    2.1838    1.4526    5.7084 H   0  0  0  0  0  0  0  0  0  0  0  0
    1.8895    1.3051    3.2994 H   0  0  0  0  0  0  0  0  0  0  0  0
   -1.0121    3.8077    2.1732 H   0  0  0  0  0  0  0  0  0  0  0  0
   -2.7636    4.9981    0.9628 H   0  0  0  0  0  0  0  0  0  0  0  0
   -3.5675    6.0882   -0.9828 H   0  0  0  0  0  0  0  0  0  0  0  0
   -5.3006    6.2596   -1.3403 H   0  0  0  0  0  0  0  0  0  0  0  0
   -4.7811    5.9852    0.3357 H   0  0  0  0  0  0  0  0  0  0  0  0
   -3.9871    1.3296   -0.8694 H   0  0  0  0  0  0  0  0  0  0  0  0
   -2.2333    0.1344    0.3598 H   0  0  0  0  0  0  0  0  0  0  0  0
   -1.4574   -1.3203    3.0954 H   0  0  0  0  0  0  0  0  0  0  0  0
   -1.7470   -1.5615    5.4990 H   0  0  0  0  0  0  0  0  0  0  0  0
    4.4831   -2.1791    7.2445 H   0  0  0  0  0  0  0  0  0  0  0  0
    1.3130   -4.2699    7.0434 H   0  0  0  0  0  0  0  0  0  0  0  0
    0.5498   -5.2885    9.3302 H   0  0  0  0  0  0  0  0  0  0  0  0
    3.8572   -2.2818    9.9209 H   0  0  0  0  0  0  0  0  0  0  0  0
    4.8698   -1.7637    2.6201 H   0  0  0  0  0  0  0  0  0  0  0  0
    3.4052   -2.1109    1.6766 H   0  0  0  0  0  0  0  0  0  0  0  0
    2.9389    0.3529    1.5455 H   0  0  0  0  0  0  0  0  0  0  0  0
    4.3353    0.6634    2.5927 H   0  0  0  0  0  0  0  0  0  0  0  0
    4.5657    0.0040    0.9733 H   0  0  0  0  0  0  0  0  0  0  0  0
    1.1070   -1.2710    7.8416 H   0  0  0  0  0  0  0  0  0  0  0  0
  1  2  2  0  0  0  0
  2  3  1  0  0  0  0
  3  4  2  0  0  0  0
  3  5  1  0  0  0  0
  5  6  2  0  0  0  0
  6  7  1  0  0  0  0
  6  8  1  0  0  0  0
  8  9  1  0  0  0  0
  8 10  2  0  0  0  0
 10 11  1  0  0  0  0
 10 12  1  0  0  0  0
 12 13  1  0  0  0  0
 12 14  2  0  0  0  0
 14 15  1  0  0  0  0
 15 16  2  0  0  0  0
 16 17  1  0  0  0  0
 17 18  3  0  0  0  0
 16 19  1  0  0  0  0
 19 20  3  0  0  0  0
  1 21  1  0  0  0  0
 21 22  2  0  0  0  0
 22 23  1  0  0  0  0
 23 24  1  0  0  0  0
 24 25  1  0  0  0  0
 22 26  1  0  0  0  0
 26 27  1  0  0  0  0
 27 28  1  0  0  0  0
 28 29  1  0  0  0  0
 26 30  2  0  0  0  0
 30 31  1  0  0  0  0
 31 32  2  0  0  0  0
 32 33  1  0  0  0  0
 33 34  2  0  0  0  0
 33 35  1  0  0  0  0
 35 36  1  0  0  0  0
 36 37  1  0  0  0  0
 37 38  2  0  0  0  0
 36 39  2  0  0  0  0
 39 40  1  0  0  0  0
 40 41  1  0  0  0  0
 30 42  1  0  0  0  0
 42 43  2  0  0  0  0
 43 44  1  0  0  0  0
 44 45  1  0  0  0  0
 45 46  2  0  0  0  0
 46 47  1  0  0  0  0
 47 48  2  0  0  0  0
 48 49  1  0  0  0  0
 49 50  1  0  0  0  0
 48 51  1  0  0  0  0
 51 52  2  0  0  0  0
 44 53  1  0  0  0  0
 53 54  2  0  0  0  0
 54 55  1  0  0  0  0
 55 56  2  0  0  0  0
 56 57  1  0  0  0  0
 57 58  1  0  0  0  0
 56 59  1  0  0  0  0
 59 60  2  0  0  0  0
 43 61  1  0  0  0  0
 61 62  1  0  0  0  0
 62 63  1  0  0  0  0
 63 64  2  0  0  0  0
 64 65  1  0  0  0  0
 65 66  1  0  0  0  0
 66 67  2  0  0  0  0
 67 68  1  0  0  0  0
 68 69  2  0  0  0  0
 69 70  1  0  0  0  0
 70 71  1  0  0  0  0
 69 72  1  0  0  0  0
 72 73  2  0  0  0  0
 65 74  1  0  0  0  0
 74 75  2  0  0  0  0
 75 76  1  0  0  0  0
 76 77  2  0  0  0  0
 77 78  1  0  0  0  0
 78 79  1  0  0  0  0
 77 80  1  0  0  0  0
 80 81  2  0  0  0  0
 64 82  1  0  0  0  0
 82 83  1  0  0  0  0
 63 84  1  0  0  0  0
 84 85  2  0  0  0  0
 85 86  1  0  0  0  0
 86 87  2  0  0  0  0
 87 88  1  0  0  0  0
 88 89  1  0  0  0  0
 89 90  2  0  0  0  0
 90 91  1  0  0  0  0
 91 92  1  0  0  0  0
 92 93  2  0  0  0  0
 93 94  1  0  0  0  0
 94 95  1  0  0  0  0
 89 96  1  0  0  0  0
 96 97  2  0  0  0  0
 96 98  1  0  0  0  0
 98 99  1  0  0  0  0
 99100  1  0  0  0  0
 98101  1  0  0  0  0
 87102  1  0  0  0  0
102103  2  0  0  0  0
103104  1  0  0  0  0
104105  2  0  0  0  0
104106  1  0  0  0  0
106107  2  0  0  0  0
107108  1  0  0  0  0
107109  1  0  0  0  0
109110  1  0  0  0  0
109111  2  0  0  0  0
111112  1  0  0  0  0
111113  1  0  0  0  0
113114  1  0  0  0  0
113115  2  0  0  0  0
115116  1  0  0  0  0
116117  2  0  0  0  0
117118  1  0  0  0  0
118119  3  0  0  0  0
117120  1  0  0  0  0
120121  3  0  0  0  0
 15  2  1  0  0  0  0
 32 21  1  0  0  0  0
 41 35  2  0  0  0  0
 83 42  1  0  0  0  0
101 84  1  0  0  0  0
116103  1  0  0  0  0
 14  5  1  0  0  0  0
 37 31  1  0  0  0  0
 52 45  1  0  0  0  0
 60 53  1  0  0  0  0
 82 61  2  0  0  0  0
101 88  2  0  0  0  0
115106  1  0  0  0  0
 73 66  1  0  0  0  0
 81 74  1  0  0  0  0
 95 91  2  0  0  0  0
  1122  1  0  0  0  0
 24123  1  0  0  0  0
 24124  1  0  0  0  0
 25125  1  0  0  0  0
 25126  1  0  0  0  0
 25127  1  0  0  0  0
 28128  1  0  0  0  0
 28129  1  0  0  0  0
 29130  1  0  0  0  0
 29131  1  0  0  0  0
 29132  1  0  0  0  0
 39133  1  0  0  0  0
 41134  1  0  0  0  0
 46135  1  0  0  0  0
 47136  1  0  0  0  0
 50137  1  0  0  0  0
 50138  1  0  0  0  0
 50139  1  0  0  0  0
 51140  1  0  0  0  0
 52141  1  0  0  0  0
 54142  1  0  0  0  0
 55143  1  0  0  0  0
 58144  1  0  0  0  0
 58145  1  0  0  0  0
 58146  1  0  0  0  0
 59147  1  0  0  0  0
 60148  1  0  0  0  0
 67149  1  0  0  0  0
 68150  1  0  0  0  0
 71151  1  0  0  0  0
 71152  1  0  0  0  0
 71153  1  0  0  0  0
 72154  1  0  0  0  0
 73155  1  0  0  0  0
 75156  1  0  0  0  0
 76157  1  0  0  0  0
 79158  1  0  0  0  0
 79159  1  0  0  0  0
 79160  1  0  0  0  0
 80161  1  0  0  0  0
 81162  1  0  0  0  0
 85163  1  0  0  0  0
 86164  1  0  0  0  0
 90165  1  0  0  0  0
 92166  1  0  0  0  0
 93167  1  0  0  0  0
 95168  1  0  0  0  0
 99169  1  0  0  0  0
 99170  1  0  0  0  0
100171  1  0  0  0  0
100172  1  0  0  0  0
100173  1  0  0  0  0
102174  1  0  0  0  0
M  END
