181

C         -4.27520       -0.02220       -7.47050
C         -4.32730        1.02460       -8.31860
C         -5.15090        0.93490       -9.55510
O         -5.51710       -0.06800      -10.11120
C         -5.46760        2.34270       -9.89340
C         -6.36160        2.82240      -10.83580
Cl        -7.16120        1.77200      -11.91420
C         -6.60290        4.20310      -10.88000
Cl        -7.67830        4.84310      -12.04280
C         -5.99280        5.05130       -9.95560
Cl        -6.36910        6.71900       -9.97410
C         -5.08450        4.56010       -9.00560
Cl        -4.47740        5.63930       -7.82040
C         -4.78140        3.20480       -9.01090
C         -3.87080        2.40440       -8.19820
C         -2.67140        2.79550       -7.67560
C         -2.06910        4.06580       -7.81420
N         -1.46690        5.03550       -7.92590
C         -1.76580        1.90340       -7.05890
N         -0.96100        1.24380       -6.57620
C         -3.73420       -0.03270       -6.13060
C         -3.03360       -1.15950       -5.67140
S         -2.82160       -2.53920       -6.76230
C         -1.02450       -2.86980       -6.62730
C         -0.21630       -1.82660       -7.36640
C         -2.54090       -1.17010       -4.36890
S         -2.23940       -2.69870       -3.52090
C         -3.80090       -3.62550       -3.86090
C         -3.52080       -5.01400       -4.39700
C         -2.36900        0.04350       -3.66630
C         -3.02970        1.19290       -4.14850
C         -3.86260        1.07890       -5.27850
C         -4.95820        2.04230       -5.52130
O         -5.96740        1.73550       -6.13780
C         -4.77110        3.33910       -4.89040
C         -3.67230        3.58760       -4.01930
C         -2.75200        2.53260       -3.58450
O         -1.79720        2.77290       -2.86760
C         -3.66490        4.87410       -3.56260
S         -4.98940        5.78030       -4.16480
C         -5.57140        4.43620       -5.04740
C         -1.58520        0.02210       -2.45960
C         -1.74720        0.63710       -1.22440
N         -2.80120        1.39950       -0.77910
C         -2.56570        2.20650        0.36650
C         -3.25420        1.93900        1.54240
C         -2.95300        2.63380        2.69720
C         -1.96150        3.60650        2.67960
S         -1.44110        4.47900        4.11970
C         -2.08480        3.45710        5.47700
C         -1.32730        3.92810        1.48070
C         -1.62390        3.23150        0.32920
C         -4.06770        1.46480       -1.35020
C         -4.67870        0.37250       -1.96610
C         -5.91810        0.49550       -2.56350
C         -6.59220        1.71050       -2.53660
S         -8.16290        1.99970       -3.27580
C         -8.41210        0.57300       -4.36770
C         -6.02040        2.78550       -1.85600
C         -4.77900        2.66840       -1.27810
C         -0.63910        0.35120       -0.38230
S         -0.23570        0.77180        1.23840
C          1.26270       -0.14960        1.15620
C          1.37980       -0.82560       -0.05980
N          2.33750       -1.74710       -0.41510
C          3.13530       -2.41270        0.51550
C          2.61460       -2.88980        1.71850
C          3.43010       -3.47590        2.66170
C          4.79510       -3.61250        2.42060
S          5.94750       -4.26110        3.57530
C          4.93460       -4.72480        5.00510
C          5.30340       -3.21840        1.18230
C          4.48850       -2.63270        0.24070
C          2.57010       -2.01600       -1.78260
C          2.56800       -3.33440       -2.22320
C          2.76680       -3.62700       -3.55810
C          2.96890       -2.59790       -4.46820
S          3.22030       -2.85540       -6.19610
C          2.78360       -4.60180       -6.44400
C          3.00230       -1.27780       -4.02320
C          2.80750       -0.98600       -2.69090
C          0.30600       -0.50020       -0.92580
S         -0.11180       -0.94110       -2.53800
C          2.19040       -0.07400        2.25760
C          1.74400        0.01560        3.59300
S          0.02090        0.20460        4.01010
C         -0.59730       -1.47800        3.65490
C          0.01240       -2.50380        4.58750
C          2.62560       -0.04680        4.66580
S          2.05970        0.16340        6.33680
C          1.57850        1.93680        6.27410
C          1.78320        2.56860        7.63510
C          3.97580       -0.31490        4.44440
C          4.45070       -0.30820        3.13380
C          3.59510       -0.09950        2.03950
C          4.17840        0.25470        0.73080
O          3.53510        0.68770       -0.21030
C          5.63850        0.11420        0.63660
C          6.46970       -0.27450        1.72680
C          5.90610       -0.47760        3.04540
O          6.55680       -0.74940        4.04670
C          7.78670       -0.37670        1.37070
S          8.02920       -0.00710       -0.28120
C          6.35660        0.29900       -0.50930
C          4.90200       -0.55130        5.55310
C          5.31680        0.45210        6.36500
C          5.06310        1.87690        6.05120
O          4.48220        2.31810        5.07880
C          5.67010        2.63580        7.15610
C          5.68350        4.00090        7.37550
C          6.32590        4.47990        8.50440
C          6.95020        3.61650        9.40500
C          7.63900        4.17370       10.61030
C          6.93130        2.24270        9.17770
C          6.29070        1.74760        8.05330
C          6.10010        0.37760        7.58210
C          6.55500       -0.75620        8.19760
C          6.30010       -2.06900        7.75210
N          6.11560       -3.16660        7.46860
C          7.32720       -0.76630        9.37810
N          7.95990       -0.84210       10.33320
H         -4.67520       -0.95660       -7.84770
H         -0.75820       -2.92020       -5.57270
H         -0.91360       -3.85670       -7.07830
H          0.84150       -2.07270       -7.30490
H         -0.50620       -1.78910       -8.41470
H         -0.36370       -0.84170       -6.92920
H         -4.30910       -3.67860       -2.89710
H         -4.39780       -3.03760       -4.55370
H         -4.45440       -5.56530       -4.48740
H         -2.86020       -5.55470       -3.72320
H         -3.05520       -4.95940       -5.37720
H         -2.95730        5.32100       -2.89270
H         -6.46170        4.51020       -5.63980
H         -4.00940        1.16650        1.55450
H         -3.48510        2.39740        3.60390
H         -3.16080        3.57680        5.56500
H         -1.60270        3.82470        6.37750
H         -1.81360        2.41970        5.30240
H         -0.58300        4.70920        1.47260
H         -1.12140        3.44420       -0.60230
H         -4.18520       -0.58740       -1.96550
H         -6.35220       -0.36640       -3.04520
H         -9.34050        0.77120       -4.89390
H         -7.59230        0.51920       -5.07780
H         -8.50830       -0.33800       -3.78430
H         -6.55990        3.71900       -1.80590
H         -4.33560        3.51550       -0.77730
H          1.55640       -2.80120        1.91070
H          2.99410       -3.83420        3.58030
H          5.63810       -5.03340        5.77150
H          4.27640       -5.54750        4.74210
H          4.37430       -3.86740        5.36440
H          6.35210       -3.37030        0.97720
H          4.89090       -2.32960       -0.71410
H          2.40330       -4.13340       -1.51490
H          2.75700       -4.65790       -3.87310
H          3.52840       -5.24620       -5.98590
H          1.79340       -4.79150       -6.04030
H          2.78160       -4.75290       -7.51900
H          3.17760       -0.48680       -4.73580
H          2.84280        0.03140       -2.33370
H         -1.67430       -1.39960        3.79830
H         -0.39480       -1.69770        2.60660
H          1.09410       -2.53080        4.47210
H         -0.38900       -3.49130        4.36700
H         -0.21070       -2.25490        5.62180
H          0.53780        1.98990        5.95960
H          2.21640        2.39930        5.52250
H          1.17600        2.06940        8.38710
H          2.82750        2.50350        7.93530
H          1.49960        3.61830        7.59320
H          8.61010       -0.65030        2.00040
H          5.98130        0.58890       -1.47090
H          5.10960       -1.58350        5.79920
H          5.19840        4.66580        6.67710
H          6.34850        5.54270        8.69760
H          8.45560        4.82820       10.30760
H          6.94400        4.76620       11.20380
H          8.04220        3.37930       11.23230
H          7.41540        1.58300        9.87990
