
  xtb     02042202553D
 energy: -384.845089347710 gnorm: 0.000810558370 xtb: 6.4.1 (unknown)
225247  0     0  0            999 V2000
    7.4780   -8.5526    5.0744 C   0  0  0  0  0  0  0  0  0  0  0  0
    7.2451   -9.8943    5.2026 C   0  0  0  0  0  0  0  0  0  0  0  0
    5.9502  -10.5767    5.0657 C   0  0  0  0  0  0  0  0  0  0  0  0
    4.9001  -10.1131    4.6778 O   0  0  0  0  0  0  0  0  0  0  0  0
    6.1771  -11.9610    5.5441 C   0  0  0  0  0  0  0  0  0  0  0  0
    5.2505  -12.9730    5.7230 C   0  0  0  0  0  0  0  0  0  0  0  0
    3.6270  -12.7907    5.2321 Cl  0  0  0  0  0  0  0  0  0  0  0  0
    5.6783  -14.1616    6.3320 C   0  0  0  0  0  0  0  0  0  0  0  0
    4.5801  -15.4543    6.5431 Cl  0  0  0  0  0  0  0  0  0  0  0  0
    6.9844  -14.2736    6.8064 C   0  0  0  0  0  0  0  0  0  0  0  0
    7.4530  -15.6919    7.6391 Cl  0  0  0  0  0  0  0  0  0  0  0  0
    7.9179  -13.2396    6.6271 C   0  0  0  0  0  0  0  0  0  0  0  0
    9.4451  -13.3786    7.3950 Cl  0  0  0  0  0  0  0  0  0  0  0  0
    7.5271  -12.1069    5.9241 C   0  0  0  0  0  0  0  0  0  0  0  0
    8.2452  -10.8972    5.5309 C   0  0  0  0  0  0  0  0  0  0  0  0
    9.5884  -10.7892    5.2836 C   0  0  0  0  0  0  0  0  0  0  0  0
   10.2294   -9.6038    4.8585 C   0  0  0  0  0  0  0  0  0  0  0  0
   10.8280   -8.6836    4.5216 N   0  0  0  0  0  0  0  0  0  0  0  0
   10.5100  -11.8581    5.2341 C   0  0  0  0  0  0  0  0  0  0  0  0
   11.3142  -12.6599    5.0692 N   0  0  0  0  0  0  0  0  0  0  0  0
    6.6179   -7.5013    4.7039 C   0  0  0  0  0  0  0  0  0  0  0  0
    7.0593   -6.1898    4.6493 C   0  0  0  0  0  0  0  0  0  0  0  0
    6.0897   -5.2773    4.2124 C   0  0  0  0  0  0  0  0  0  0  0  0
    6.2431   -3.8840    4.0252 C   0  0  0  0  0  0  0  0  0  0  0  0
    7.4838   -3.1970    4.4081 C   0  0  0  0  0  0  0  0  0  0  0  0
    8.1470   -2.3549    3.5217 C   0  0  0  0  0  0  0  0  0  0  0  0
    9.3188   -1.7282    3.9101 C   0  0  0  0  0  0  0  0  0  0  0  0
    9.8257   -1.9165    5.1794 C   0  0  0  0  0  0  0  0  0  0  0  0
    9.1583   -2.7442    6.0804 C   0  0  0  0  0  0  0  0  0  0  0  0
    9.9030   -2.9326    7.6721 S   0  0  0  0  0  0  0  0  0  0  0  0
    8.5703   -3.5874    8.7366 C   0  0  0  0  0  0  0  0  0  0  0  0
    7.4662   -2.5731    8.9646 C   0  0  0  0  0  0  0  0  0  0  0  0
    7.9969   -3.3892    5.6888 C   0  0  0  0  0  0  0  0  0  0  0  0
    5.1671   -3.2210    3.4717 C   0  0  0  0  0  0  0  0  0  0  0  0
    3.9384   -3.8656    3.1596 C   0  0  0  0  0  0  0  0  0  0  0  0
    3.7677   -5.2448    3.3840 C   0  0  0  0  0  0  0  0  0  0  0  0
    2.5198   -5.9031    2.9746 C   0  0  0  0  0  0  0  0  0  0  0  0
    2.5499   -7.0983    2.2549 C   0  0  0  0  0  0  0  0  0  0  0  0
    1.3837   -7.6193    1.7303 C   0  0  0  0  0  0  0  0  0  0  0  0
    0.1753   -6.9584    1.8740 C   0  0  0  0  0  0  0  0  0  0  0  0
    0.1284   -5.7879    2.6167 C   0  0  0  0  0  0  0  0  0  0  0  0
   -1.3180   -4.7945    2.8462 S   0  0  0  0  0  0  0  0  0  0  0  0
   -2.6009   -5.5546    1.7932 C   0  0  0  0  0  0  0  0  0  0  0  0
   -3.2954   -6.7233    2.4667 C   0  0  0  0  0  0  0  0  0  0  0  0
    1.2909   -5.2932    3.1983 C   0  0  0  0  0  0  0  0  0  0  0  0
    4.8666   -5.9291    3.8876 C   0  0  0  0  0  0  0  0  0  0  0  0
    4.9460   -7.6398    4.2009 S   0  0  0  0  0  0  0  0  0  0  0  0
    3.0340   -2.9700    2.5490 C   0  0  0  0  0  0  0  0  0  0  0  0
    3.5223   -1.7070    2.3757 C   0  0  0  0  0  0  0  0  0  0  0  0
    5.1270   -1.5232    3.0489 S   0  0  0  0  0  0  0  0  0  0  0  0
    2.8646   -0.6925    1.6190 C   0  0  0  0  0  0  0  0  0  0  0  0
    2.0462   -0.9344    0.5220 C   0  0  0  0  0  0  0  0  0  0  0  0
    1.8486   -2.1529   -0.1136 N   0  0  0  0  0  0  0  0  0  0  0  0
    2.8927   -3.0779   -0.2241 C   0  0  0  0  0  0  0  0  0  0  0  0
    2.6469   -4.4511   -0.1755 C   0  0  0  0  0  0  0  0  0  0  0  0
    3.6933   -5.3431   -0.1259 C   0  0  0  0  0  0  0  0  0  0  0  0
    5.0088   -4.8931   -0.0753 C   0  0  0  0  0  0  0  0  0  0  0  0
    6.2551   -6.1149    0.1934 S   0  0  0  0  0  0  0  0  0  0  0  0
    7.6898   -5.1385    0.7240 C   0  0  0  0  0  0  0  0  0  0  0  0
    5.2633   -3.5355   -0.2181 C   0  0  0  0  0  0  0  0  0  0  0  0
    4.2148   -2.6433   -0.3137 C   0  0  0  0  0  0  0  0  0  0  0  0
    0.5317   -2.4927   -0.4618 C   0  0  0  0  0  0  0  0  0  0  0  0
    0.2612   -3.2236   -1.6178 C   0  0  0  0  0  0  0  0  0  0  0  0
   -1.0377   -3.5455   -1.9436 C   0  0  0  0  0  0  0  0  0  0  0  0
   -2.0941   -3.1259   -1.1384 C   0  0  0  0  0  0  0  0  0  0  0  0
   -3.7324   -3.5728   -1.6359 S   0  0  0  0  0  0  0  0  0  0  0  0
   -4.7336   -2.2194   -0.9537 C   0  0  0  0  0  0  0  0  0  0  0  0
   -1.8293   -2.4011    0.0147 C   0  0  0  0  0  0  0  0  0  0  0  0
   -0.5270   -2.0954    0.3520 C   0  0  0  0  0  0  0  0  0  0  0  0
    1.4347    0.2631    0.0858 C   0  0  0  0  0  0  0  0  0  0  0  0
    0.2765    0.6355   -1.1353 S   0  0  0  0  0  0  0  0  0  0  0  0
    0.2969    2.3306   -0.6700 C   0  0  0  0  0  0  0  0  0  0  0  0
    1.1977    2.5904    0.3495 C   0  0  0  0  0  0  0  0  0  0  0  0
    1.4003    3.8167    0.9778 N   0  0  0  0  0  0  0  0  0  0  0  0
    1.4106    3.7944    2.3826 C   0  0  0  0  0  0  0  0  0  0  0  0
    2.3679    4.4849    3.1192 C   0  0  0  0  0  0  0  0  0  0  0  0
    2.3730    4.4277    4.4992 C   0  0  0  0  0  0  0  0  0  0  0  0
    1.4263    3.6652    5.1693 C   0  0  0  0  0  0  0  0  0  0  0  0
    1.3390    3.5060    6.9250 S   0  0  0  0  0  0  0  0  0  0  0  0
    2.7225    4.5146    7.5281 C   0  0  0  0  0  0  0  0  0  0  0  0
    0.4687    2.9673    4.4359 C   0  0  0  0  0  0  0  0  0  0  0  0
    0.4569    3.0339    3.0614 C   0  0  0  0  0  0  0  0  0  0  0  0
    1.8943    4.9256    0.2860 C   0  0  0  0  0  0  0  0  0  0  0  0
    2.6835    4.7767   -0.8524 C   0  0  0  0  0  0  0  0  0  0  0  0
    3.2444    5.8784   -1.4704 C   0  0  0  0  0  0  0  0  0  0  0  0
    3.0347    7.1480   -0.9515 C   0  0  0  0  0  0  0  0  0  0  0  0
    3.8147    8.6016   -1.5791 S   0  0  0  0  0  0  0  0  0  0  0  0
    5.2016    7.9427   -2.5485 C   0  0  0  0  0  0  0  0  0  0  0  0
    2.1832    7.3100    0.1394 C   0  0  0  0  0  0  0  0  0  0  0  0
    1.6152    6.2145    0.7481 C   0  0  0  0  0  0  0  0  0  0  0  0
    1.8233    1.3933    0.7846 C   0  0  0  0  0  0  0  0  0  0  0  0
    2.9740    1.0130    2.0210 S   0  0  0  0  0  0  0  0  0  0  0  0
   -0.6945    3.1666   -1.2708 C   0  0  0  0  0  0  0  0  0  0  0  0
   -0.7036    4.4925   -1.5791 C   0  0  0  0  0  0  0  0  0  0  0  0
   -1.9299    4.9329   -2.1416 C   0  0  0  0  0  0  0  0  0  0  0  0
   -2.2559    6.2241   -2.5805 C   0  0  0  0  0  0  0  0  0  0  0  0
   -1.2450    7.2908   -2.6231 C   0  0  0  0  0  0  0  0  0  0  0  0
   -1.4347    8.4993   -1.9610 C   0  0  0  0  0  0  0  0  0  0  0  0
   -0.4684    9.4844   -2.0444 C   0  0  0  0  0  0  0  0  0  0  0  0
    0.6714    9.2995   -2.8066 C   0  0  0  0  0  0  0  0  0  0  0  0
    0.8455    8.1080   -3.4969 C   0  0  0  0  0  0  0  0  0  0  0  0
    2.2359    7.7631   -4.5331 S   0  0  0  0  0  0  0  0  0  0  0  0
    2.8324    9.4147   -5.0386 C   0  0  0  0  0  0  0  0  0  0  0  0
    1.8114   10.1585   -5.8762 C   0  0  0  0  0  0  0  0  0  0  0  0
   -0.1003    7.0989   -3.3838 C   0  0  0  0  0  0  0  0  0  0  0  0
   -3.5464    6.4195   -3.0439 C   0  0  0  0  0  0  0  0  0  0  0  0
   -4.5112    5.3802   -3.0960 C   0  0  0  0  0  0  0  0  0  0  0  0
   -4.1788    4.0792   -2.6825 C   0  0  0  0  0  0  0  0  0  0  0  0
   -5.1409    2.9720   -2.7598 C   0  0  0  0  0  0  0  0  0  0  0  0
   -6.3957    3.0701   -2.1683 C   0  0  0  0  0  0  0  0  0  0  0  0
   -7.2720    1.9996   -2.2363 C   0  0  0  0  0  0  0  0  0  0  0  0
   -6.9068    0.8365   -2.8824 C   0  0  0  0  0  0  0  0  0  0  0  0
   -5.6512    0.7317   -3.4803 C   0  0  0  0  0  0  0  0  0  0  0  0
   -5.2956   -0.8011   -4.2770 S   0  0  0  0  0  0  0  0  0  0  0  0
   -3.6310   -0.6002   -4.9976 C   0  0  0  0  0  0  0  0  0  0  0  0
   -2.5220   -0.7868   -3.9794 C   0  0  0  0  0  0  0  0  0  0  0  0
   -4.7749    1.8028   -3.4195 C   0  0  0  0  0  0  0  0  0  0  0  0
   -2.8868    3.8912   -2.2292 C   0  0  0  0  0  0  0  0  0  0  0  0
   -2.2217    2.3851   -1.6650 S   0  0  0  0  0  0  0  0  0  0  0  0
   -5.7079    5.8009   -3.7096 C   0  0  0  0  0  0  0  0  0  0  0  0
   -5.6842    7.1033   -4.1337 C   0  0  0  0  0  0  0  0  0  0  0  0
   -4.1752    7.8974   -3.7145 S   0  0  0  0  0  0  0  0  0  0  0  0
   -6.7036    7.8213   -4.8118 C   0  0  0  0  0  0  0  0  0  0  0  0
   -7.7253    7.3131   -5.5479 C   0  0  0  0  0  0  0  0  0  0  0  0
   -8.9120    8.1651   -5.8438 C   0  0  0  0  0  0  0  0  0  0  0  0
   -8.9851    9.3668   -5.7264 O   0  0  0  0  0  0  0  0  0  0  0  0
   -9.9755    7.2257   -6.2460 C   0  0  0  0  0  0  0  0  0  0  0  0
  -11.3131    7.5248   -6.5008 C   0  0  0  0  0  0  0  0  0  0  0  0
  -12.0791    6.4321   -6.8285 C   0  0  0  0  0  0  0  0  0  0  0  0
  -11.5586    5.1319   -6.8956 C   0  0  0  0  0  0  0  0  0  0  0  0
  -10.2417    4.8217   -6.6553 C   0  0  0  0  0  0  0  0  0  0  0  0
   -9.4433    5.9213   -6.3265 C   0  0  0  0  0  0  0  0  0  0  0  0
   -8.0095    5.9839   -6.0552 C   0  0  0  0  0  0  0  0  0  0  0  0
   -7.0945    5.0436   -6.4488 C   0  0  0  0  0  0  0  0  0  0  0  0
   -5.6966    5.2320   -6.4258 C   0  0  0  0  0  0  0  0  0  0  0  0
   -4.5545    5.3296   -6.4886 N   0  0  0  0  0  0  0  0  0  0  0  0
   -7.4269    3.7890   -6.9998 C   0  0  0  0  0  0  0  0  0  0  0  0
   -7.6311    2.7422   -7.4245 N   0  0  0  0  0  0  0  0  0  0  0  0
  -12.8910    4.5308   -7.2666 C   0  0  0  0  0  0  0  0  0  0  0  0
  -13.6561    3.7978   -6.1445 C   0  0  0  0  0  0  0  0  0  0  0  0
  -15.0799    3.7492   -6.6501 C   0  0  0  0  0  0  0  0  0  0  0  0
  -15.5727    4.9795   -6.5871 C   0  0  0  0  0  0  0  0  0  0  0  0
  -14.4903    5.8808   -6.0379 C   0  0  0  0  0  0  0  0  0  0  0  0
  -13.7894    4.9016   -5.0873 C   0  0  0  0  0  0  0  0  0  0  0  0
  -13.4714    5.9796   -7.1934 C   0  0  0  0  0  0  0  0  0  0  0  0
    8.4806   -8.2123    5.3061 H   0  0  0  0  0  0  0  0  0  0  0  0
    8.0717   -5.9150    4.8899 H   0  0  0  0  0  0  0  0  0  0  0  0
    7.7586   -2.2044    2.5260 H   0  0  0  0  0  0  0  0  0  0  0  0
    9.8380   -1.0844    3.2165 H   0  0  0  0  0  0  0  0  0  0  0  0
   10.7362   -1.4286    5.4909 H   0  0  0  0  0  0  0  0  0  0  0  0
    8.1997   -4.5160    8.3032 H   0  0  0  0  0  0  0  0  0  0  0  0
    9.0818   -3.8222    9.6701 H   0  0  0  0  0  0  0  0  0  0  0  0
    6.9883   -2.2972    8.0267 H   0  0  0  0  0  0  0  0  0  0  0  0
    7.8729   -1.6729    9.4194 H   0  0  0  0  0  0  0  0  0  0  0  0
    6.7120   -2.9900    9.6296 H   0  0  0  0  0  0  0  0  0  0  0  0
    7.4590   -4.0338    6.3661 H   0  0  0  0  0  0  0  0  0  0  0  0
    3.4870   -7.6000    2.0766 H   0  0  0  0  0  0  0  0  0  0  0  0
    1.4147   -8.5438    1.1730 H   0  0  0  0  0  0  0  0  0  0  0  0
   -0.7069   -7.3672    1.4092 H   0  0  0  0  0  0  0  0  0  0  0  0
   -2.1394   -5.8260    0.8444 H   0  0  0  0  0  0  0  0  0  0  0  0
   -3.3055   -4.7435    1.6111 H   0  0  0  0  0  0  0  0  0  0  0  0
   -4.0560   -7.1307    1.8033 H   0  0  0  0  0  0  0  0  0  0  0  0
   -3.7739   -6.3947    3.3865 H   0  0  0  0  0  0  0  0  0  0  0  0
   -2.5897   -7.5127    2.7156 H   0  0  0  0  0  0  0  0  0  0  0  0
    1.2203   -4.4201    3.8292 H   0  0  0  0  0  0  0  0  0  0  0  0
    2.0489   -3.2474    2.2289 H   0  0  0  0  0  0  0  0  0  0  0  0
    1.6339   -4.8205   -0.1317 H   0  0  0  0  0  0  0  0  0  0  0  0
    3.4977   -6.4017   -0.0811 H   0  0  0  0  0  0  0  0  0  0  0  0
    8.1049   -4.5871   -0.1146 H   0  0  0  0  0  0  0  0  0  0  0  0
    8.4191   -5.8566    1.0860 H   0  0  0  0  0  0  0  0  0  0  0  0
    7.3950   -4.4736    1.5304 H   0  0  0  0  0  0  0  0  0  0  0  0
    6.2734   -3.1595   -0.2519 H   0  0  0  0  0  0  0  0  0  0  0  0
    4.4259   -1.5896   -0.4200 H   0  0  0  0  0  0  0  0  0  0  0  0
    1.0737   -3.5286   -2.2598 H   0  0  0  0  0  0  0  0  0  0  0  0
   -1.2498   -4.1155   -2.8353 H   0  0  0  0  0  0  0  0  0  0  0  0
   -4.9304   -2.3829    0.1021 H   0  0  0  0  0  0  0  0  0  0  0  0
   -4.2201   -1.2770   -1.1161 H   0  0  0  0  0  0  0  0  0  0  0  0
   -5.6648   -2.2316   -1.5112 H   0  0  0  0  0  0  0  0  0  0  0  0
   -2.6279   -2.0850    0.6666 H   0  0  0  0  0  0  0  0  0  0  0  0
   -0.3281   -1.5560    1.2664 H   0  0  0  0  0  0  0  0  0  0  0  0
    3.1220    5.0648    2.6087 H   0  0  0  0  0  0  0  0  0  0  0  0
    3.1316    4.9739    5.0358 H   0  0  0  0  0  0  0  0  0  0  0  0
    3.6617    4.1198    7.1515 H   0  0  0  0  0  0  0  0  0  0  0  0
    2.5824    5.5515    7.2369 H   0  0  0  0  0  0  0  0  0  0  0  0
    2.6947    4.4295    8.6100 H   0  0  0  0  0  0  0  0  0  0  0  0
   -0.2669    2.3771    4.9604 H   0  0  0  0  0  0  0  0  0  0  0  0
   -0.2939    2.4963    2.5009 H   0  0  0  0  0  0  0  0  0  0  0  0
    2.8738    3.7889   -1.2458 H   0  0  0  0  0  0  0  0  0  0  0  0
    3.8523    5.7313   -2.3480 H   0  0  0  0  0  0  0  0  0  0  0  0
    5.8263    8.7967   -2.7911 H   0  0  0  0  0  0  0  0  0  0  0  0
    5.7590    7.2340   -1.9436 H   0  0  0  0  0  0  0  0  0  0  0  0
    4.8329    7.4819   -3.4608 H   0  0  0  0  0  0  0  0  0  0  0  0
    1.9849    8.3041    0.5094 H   0  0  0  0  0  0  0  0  0  0  0  0
    0.9654    6.3429    1.6005 H   0  0  0  0  0  0  0  0  0  0  0  0
    0.1357    5.1460   -1.4339 H   0  0  0  0  0  0  0  0  0  0  0  0
   -2.3269    8.6556   -1.3736 H   0  0  0  0  0  0  0  0  0  0  0  0
   -0.6022   10.4151   -1.5132 H   0  0  0  0  0  0  0  0  0  0  0  0
    1.4135   10.0801   -2.8466 H   0  0  0  0  0  0  0  0  0  0  0  0
    3.1184    9.9658   -4.1431 H   0  0  0  0  0  0  0  0  0  0  0  0
    3.7302    9.2003   -5.6189 H   0  0  0  0  0  0  0  0  0  0  0  0
    1.5628    9.5845   -6.7661 H   0  0  0  0  0  0  0  0  0  0  0  0
    2.2167   11.1209   -6.1830 H   0  0  0  0  0  0  0  0  0  0  0  0
    0.8968   10.3305   -5.3119 H   0  0  0  0  0  0  0  0  0  0  0  0
    0.0445    6.1732   -3.9208 H   0  0  0  0  0  0  0  0  0  0  0  0
   -6.6701    3.9694   -1.6368 H   0  0  0  0  0  0  0  0  0  0  0  0
   -8.2464    2.0729   -1.7763 H   0  0  0  0  0  0  0  0  0  0  0  0
   -7.5854   -0.0009   -2.9380 H   0  0  0  0  0  0  0  0  0  0  0  0
   -3.5854   -1.3785   -5.7597 H   0  0  0  0  0  0  0  0  0  0  0  0
   -3.5938    0.3704   -5.4909 H   0  0  0  0  0  0  0  0  0  0  0  0
   -1.5533   -0.6587   -4.4586 H   0  0  0  0  0  0  0  0  0  0  0  0
   -2.5680   -1.7873   -3.5590 H   0  0  0  0  0  0  0  0  0  0  0  0
   -2.5982   -0.0686   -3.1656 H   0  0  0  0  0  0  0  0  0  0  0  0
   -3.8092    1.7655   -3.8961 H   0  0  0  0  0  0  0  0  0  0  0  0
   -6.5632    5.1584   -3.8210 H   0  0  0  0  0  0  0  0  0  0  0  0
   -6.7043    8.8995   -4.6898 H   0  0  0  0  0  0  0  0  0  0  0  0
  -11.6749    8.5392   -6.4406 H   0  0  0  0  0  0  0  0  0  0  0  0
   -9.8523    3.8181   -6.7049 H   0  0  0  0  0  0  0  0  0  0  0  0
  -12.9226    4.0036   -8.2180 H   0  0  0  0  0  0  0  0  0  0  0  0
  -13.2146    2.8550   -5.8334 H   0  0  0  0  0  0  0  0  0  0  0  0
  -15.5476    2.8647   -7.0409 H   0  0  0  0  0  0  0  0  0  0  0  0
  -16.5345    5.3282   -6.9146 H   0  0  0  0  0  0  0  0  0  0  0  0
  -14.8093    6.8354   -5.6284 H   0  0  0  0  0  0  0  0  0  0  0  0
  -12.8384    5.2627   -4.7000 H   0  0  0  0  0  0  0  0  0  0  0  0
  -14.4300    4.6029   -4.2591 H   0  0  0  0  0  0  0  0  0  0  0  0
  -13.8925    6.4184   -8.0959 H   0  0  0  0  0  0  0  0  0  0  0  0
  1  2  2  0  0  0  0
  2  3  1  0  0  0  0
  3  4  2  0  0  0  0
  3  5  1  0  0  0  0
  5  6  2  0  0  0  0
  6  7  1  0  0  0  0
  6  8  1  0  0  0  0
  8  9  1  0  0  0  0
  8 10  2  0  0  0  0
 10 11  1  0  0  0  0
 10 12  1  0  0  0  0
 12 13  1  0  0  0  0
 12 14  2  0  0  0  0
 14 15  1  0  0  0  0
 15 16  2  0  0  0  0
 16 17  1  0  0  0  0
 17 18  3  0  0  0  0
 16 19  1  0  0  0  0
 19 20  3  0  0  0  0
  1 21  1  0  0  0  0
 21 22  2  0  0  0  0
 22 23  1  0  0  0  0
 23 24  2  0  0  0  0
 24 25  1  0  0  0  0
 25 26  2  0  0  0  0
 26 27  1  0  0  0  0
 27 28  2  0  0  0  0
 28 29  1  0  0  0  0
 29 30  1  0  0  0  0
 30 31  1  0  0  0  0
 31 32  1  0  0  0  0
 29 33  2  0  0  0  0
 24 34  1  0  0  0  0
 34 35  2  0  0  0  0
 35 36  1  0  0  0  0
 36 37  1  0  0  0  0
 37 38  2  0  0  0  0
 38 39  1  0  0  0  0
 39 40  2  0  0  0  0
 40 41  1  0  0  0  0
 41 42  1  0  0  0  0
 42 43  1  0  0  0  0
 43 44  1  0  0  0  0
 41 45  2  0  0  0  0
 36 46  2  0  0  0  0
 46 47  1  0  0  0  0
 35 48  1  0  0  0  0
 48 49  2  0  0  0  0
 49 50  1  0  0  0  0
 49 51  1  0  0  0  0
 51 52  2  0  0  0  0
 52 53  1  0  0  0  0
 53 54  1  0  0  0  0
 54 55  2  0  0  0  0
 55 56  1  0  0  0  0
 56 57  2  0  0  0  0
 57 58  1  0  0  0  0
 58 59  1  0  0  0  0
 57 60  1  0  0  0  0
 60 61  2  0  0  0  0
 53 62  1  0  0  0  0
 62 63  2  0  0  0  0
 63 64  1  0  0  0  0
 64 65  2  0  0  0  0
 65 66  1  0  0  0  0
 66 67  1  0  0  0  0
 65 68  1  0  0  0  0
 68 69  2  0  0  0  0
 52 70  1  0  0  0  0
 70 71  1  0  0  0  0
 71 72  1  0  0  0  0
 72 73  2  0  0  0  0
 73 74  1  0  0  0  0
 74 75  1  0  0  0  0
 75 76  2  0  0  0  0
 76 77  1  0  0  0  0
 77 78  2  0  0  0  0
 78 79  1  0  0  0  0
 79 80  1  0  0  0  0
 78 81  1  0  0  0  0
 81 82  2  0  0  0  0
 74 83  1  0  0  0  0
 83 84  2  0  0  0  0
 84 85  1  0  0  0  0
 85 86  2  0  0  0  0
 86 87  1  0  0  0  0
 87 88  1  0  0  0  0
 86 89  1  0  0  0  0
 89 90  2  0  0  0  0
 73 91  1  0  0  0  0
 91 92  1  0  0  0  0
 72 93  1  0  0  0  0
 93 94  2  0  0  0  0
 94 95  1  0  0  0  0
 95 96  2  0  0  0  0
 96 97  1  0  0  0  0
 97 98  2  0  0  0  0
 98 99  1  0  0  0  0
 99100  2  0  0  0  0
100101  1  0  0  0  0
101102  1  0  0  0  0
102103  1  0  0  0  0
103104  1  0  0  0  0
101105  2  0  0  0  0
 96106  1  0  0  0  0
106107  2  0  0  0  0
107108  1  0  0  0  0
108109  1  0  0  0  0
109110  2  0  0  0  0
110111  1  0  0  0  0
111112  2  0  0  0  0
112113  1  0  0  0  0
113114  1  0  0  0  0
114115  1  0  0  0  0
115116  1  0  0  0  0
113117  2  0  0  0  0
108118  2  0  0  0  0
118119  1  0  0  0  0
107120  1  0  0  0  0
120121  2  0  0  0  0
121122  1  0  0  0  0
121123  1  0  0  0  0
123124  2  0  0  0  0
124125  1  0  0  0  0
125126  2  0  0  0  0
125127  1  0  0  0  0
127128  2  0  0  0  0
128129  1  0  0  0  0
129130  2  0  0  0  0
130131  1  0  0  0  0
131132  2  0  0  0  0
132133  1  0  0  0  0
133134  2  0  0  0  0
134135  1  0  0  0  0
135136  3  0  0  0  0
134137  1  0  0  0  0
137138  3  0  0  0  0
130139  1  0  0  0  0
139140  1  0  0  0  0
140141  1  0  0  0  0
141142  2  0  0  0  0
142143  1  0  0  0  0
143144  1  0  0  0  0
143145  1  0  0  0  0
 15  2  1  0  0  0  0
 47 21  1  0  0  0  0
 92 51  1  0  0  0  0
119 93  1  0  0  0  0
133124  1  0  0  0  0
145139  1  0  0  0  0
 14  5  1  0  0  0  0
 46 23  1  0  0  0  0
 61 54  1  0  0  0  0
 69 62  1  0  0  0  0
 91 70  2  0  0  0  0
118 95  1  0  0  0  0
132127  1  0  0  0  0
144140  1  0  0  0  0
 33 25  1  0  0  0  0
 50 34  1  0  0  0  0
 82 75  1  0  0  0  0
 90 83  1  0  0  0  0
105 97  1  0  0  0  0
122106  1  0  0  0  0
145129  1  0  0  0  0
 45 37  1  0  0  0  0
117109  1  0  0  0  0
  1146  1  0  0  0  0
 22147  1  0  0  0  0
 26148  1  0  0  0  0
 27149  1  0  0  0  0
 28150  1  0  0  0  0
 31151  1  0  0  0  0
 31152  1  0  0  0  0
 32153  1  0  0  0  0
 32154  1  0  0  0  0
 32155  1  0  0  0  0
 33156  1  0  0  0  0
 38157  1  0  0  0  0
 39158  1  0  0  0  0
 40159  1  0  0  0  0
 43160  1  0  0  0  0
 43161  1  0  0  0  0
 44162  1  0  0  0  0
 44163  1  0  0  0  0
 44164  1  0  0  0  0
 45165  1  0  0  0  0
 48166  1  0  0  0  0
 55167  1  0  0  0  0
 56168  1  0  0  0  0
 59169  1  0  0  0  0
 59170  1  0  0  0  0
 59171  1  0  0  0  0
 60172  1  0  0  0  0
 61173  1  0  0  0  0
 63174  1  0  0  0  0
 64175  1  0  0  0  0
 67176  1  0  0  0  0
 67177  1  0  0  0  0
 67178  1  0  0  0  0
 68179  1  0  0  0  0
 69180  1  0  0  0  0
 76181  1  0  0  0  0
 77182  1  0  0  0  0
 80183  1  0  0  0  0
 80184  1  0  0  0  0
 80185  1  0  0  0  0
 81186  1  0  0  0  0
 82187  1  0  0  0  0
 84188  1  0  0  0  0
 85189  1  0  0  0  0
 88190  1  0  0  0  0
 88191  1  0  0  0  0
 88192  1  0  0  0  0
 89193  1  0  0  0  0
 90194  1  0  0  0  0
 94195  1  0  0  0  0
 98196  1  0  0  0  0
 99197  1  0  0  0  0
100198  1  0  0  0  0
103199  1  0  0  0  0
103200  1  0  0  0  0
104201  1  0  0  0  0
104202  1  0  0  0  0
104203  1  0  0  0  0
105204  1  0  0  0  0
110205  1  0  0  0  0
111206  1  0  0  0  0
112207  1  0  0  0  0
115208  1  0  0  0  0
115209  1  0  0  0  0
116210  1  0  0  0  0
116211  1  0  0  0  0
116212  1  0  0  0  0
117213  1  0  0  0  0
120214  1  0  0  0  0
123215  1  0  0  0  0
128216  1  0  0  0  0
131217  1  0  0  0  0
139218  1  0  0  0  0
140219  1  0  0  0  0
141220  1  0  0  0  0
142221  1  0  0  0  0
143222  1  0  0  0  0
144223  1  0  0  0  0
144224  1  0  0  0  0
145225  1  0  0  0  0
M  END
