
  xtb     02042204483D
 energy: -285.307196293171 gnorm: 0.000786795483 xtb: 6.4.1 (unknown)
133145  0     0  0            999 V2000
   -4.1387   -7.9836    0.6289 C   0  0  0  0  0  0  0  0  0  0  0  0
   -5.4804   -7.9359    0.4208 C   0  0  0  0  0  0  0  0  0  0  0  0
   -6.1949   -6.6555    0.2498 C   0  0  0  0  0  0  0  0  0  0  0  0
   -5.7022   -5.5574    0.1153 O   0  0  0  0  0  0  0  0  0  0  0  0
   -7.6325   -7.0015    0.3226 C   0  0  0  0  0  0  0  0  0  0  0  0
   -8.7211   -6.1471    0.3164 C   0  0  0  0  0  0  0  0  0  0  0  0
   -8.5341   -4.4727    0.0472 Cl  0  0  0  0  0  0  0  0  0  0  0  0
   -9.9926   -6.6911    0.5481 C   0  0  0  0  0  0  0  0  0  0  0  0
  -11.3708   -5.6817    0.5170 Cl  0  0  0  0  0  0  0  0  0  0  0  0
  -10.1277   -8.0462    0.8479 C   0  0  0  0  0  0  0  0  0  0  0  0
  -11.6757   -8.6674    1.2249 Cl  0  0  0  0  0  0  0  0  0  0  0  0
   -9.0176   -8.9068    0.8627 C   0  0  0  0  0  0  0  0  0  0  0  0
   -9.2459  -10.5140    1.4108 Cl  0  0  0  0  0  0  0  0  0  0  0  0
   -7.7702   -8.3918    0.5268 C   0  0  0  0  0  0  0  0  0  0  0  0
   -6.4537   -9.0145    0.4238 C   0  0  0  0  0  0  0  0  0  0  0  0
   -6.1680  -10.3289    0.1761 C   0  0  0  0  0  0  0  0  0  0  0  0
   -4.8516  -10.8376    0.1074 C   0  0  0  0  0  0  0  0  0  0  0  0
   -3.8094  -11.3137    0.0395 N   0  0  0  0  0  0  0  0  0  0  0  0
   -7.0814  -11.3315   -0.2178 C   0  0  0  0  0  0  0  0  0  0  0  0
   -7.7056  -12.1873   -0.6585 N   0  0  0  0  0  0  0  0  0  0  0  0
   -3.3113   -6.7702    0.5316 C   0  0  0  0  0  0  0  0  0  0  0  0
   -2.7697   -6.2605   -0.6569 C   0  0  0  0  0  0  0  0  0  0  0  0
   -2.8130   -6.9262   -2.2804 S   0  0  0  0  0  0  0  0  0  0  0  0
   -3.7904   -8.4701   -2.3363 C   0  0  0  0  0  0  0  0  0  0  0  0
   -5.2094   -8.2086   -2.8019 C   0  0  0  0  0  0  0  0  0  0  0  0
   -2.0020   -5.0826   -0.5912 C   0  0  0  0  0  0  0  0  0  0  0  0
   -1.2810   -4.4998   -2.1122 S   0  0  0  0  0  0  0  0  0  0  0  0
    0.4985   -4.7906   -1.7836 C   0  0  0  0  0  0  0  0  0  0  0  0
    0.7874   -6.2305   -1.4148 C   0  0  0  0  0  0  0  0  0  0  0  0
   -1.8190   -4.3761    0.5887 C   0  0  0  0  0  0  0  0  0  0  0  0
   -2.3658   -4.8745    1.7790 C   0  0  0  0  0  0  0  0  0  0  0  0
   -3.0574   -6.0937    1.7360 C   0  0  0  0  0  0  0  0  0  0  0  0
   -3.5489   -6.7692    2.9450 C   0  0  0  0  0  0  0  0  0  0  0  0
   -4.1214   -7.8492    2.8688 O   0  0  0  0  0  0  0  0  0  0  0  0
   -3.2623   -6.0989    4.2001 C   0  0  0  0  0  0  0  0  0  0  0  0
   -2.6528   -4.8106    4.2381 C   0  0  0  0  0  0  0  0  0  0  0  0
   -2.2846   -4.0756    3.0230 C   0  0  0  0  0  0  0  0  0  0  0  0
   -1.9767   -2.8993    3.0440 O   0  0  0  0  0  0  0  0  0  0  0  0
   -2.4895   -4.3592    5.5153 C   0  0  0  0  0  0  0  0  0  0  0  0
   -3.0556   -5.4878    6.6761 S   0  0  0  0  0  0  0  0  0  0  0  0
   -3.5385   -6.5787    5.4529 C   0  0  0  0  0  0  0  0  0  0  0  0
   -1.0185   -3.1377    0.5921 C   0  0  0  0  0  0  0  0  0  0  0  0
   -1.3892   -2.0223   -0.1501 C   0  0  0  0  0  0  0  0  0  0  0  0
   -0.6202   -0.8784   -0.1332 C   0  0  0  0  0  0  0  0  0  0  0  0
    0.5448   -0.7970    0.6333 C   0  0  0  0  0  0  0  0  0  0  0  0
    0.9240   -1.9238    1.3691 C   0  0  0  0  0  0  0  0  0  0  0  0
    2.0537   -1.9158    2.0965 F   0  0  0  0  0  0  0  0  0  0  0  0
    0.1582   -3.0745    1.3368 C   0  0  0  0  0  0  0  0  0  0  0  0
    0.5617   -4.1570    2.0293 F   0  0  0  0  0  0  0  0  0  0  0  0
    1.3174    0.4278    0.6566 C   0  0  0  0  0  0  0  0  0  0  0  0
    2.2717    0.8842    1.5228 C   0  0  0  0  0  0  0  0  0  0  0  0
    2.6562    2.1735    1.0638 C   0  0  0  0  0  0  0  0  0  0  0  0
    3.5439    3.1429    1.5557 C   0  0  0  0  0  0  0  0  0  0  0  0
    4.3821    2.9447    2.7395 C   0  0  0  0  0  0  0  0  0  0  0  0
    5.0128    1.7248    2.9717 C   0  0  0  0  0  0  0  0  0  0  0  0
    5.8041    1.5706    4.0921 C   0  0  0  0  0  0  0  0  0  0  0  0
    6.4057    0.3798    4.2861 F   0  0  0  0  0  0  0  0  0  0  0  0
    6.0068    2.5770    5.0303 C   0  0  0  0  0  0  0  0  0  0  0  0
    6.8967    2.3957    6.2232 C   0  0  0  0  0  0  0  0  0  0  0  0
    8.3320    2.8092    5.8876 C   0  0  0  0  0  0  0  0  0  0  0  0
    5.3666    3.7813    4.7573 C   0  0  0  0  0  0  0  0  0  0  0  0
    5.5175    4.8014    5.6260 F   0  0  0  0  0  0  0  0  0  0  0  0
    4.5732    3.9837    3.6469 C   0  0  0  0  0  0  0  0  0  0  0  0
    3.5658    4.3189    0.8152 C   0  0  0  0  0  0  0  0  0  0  0  0
    2.7897    4.5398   -0.3585 C   0  0  0  0  0  0  0  0  0  0  0  0
    1.8933    3.5704   -0.8466 C   0  0  0  0  0  0  0  0  0  0  0  0
    1.0558    3.7721   -2.0284 C   0  0  0  0  0  0  0  0  0  0  0  0
    0.8208    2.7183   -2.9097 C   0  0  0  0  0  0  0  0  0  0  0  0
    0.0322    2.9238   -4.0227 C   0  0  0  0  0  0  0  0  0  0  0  0
   -0.5628    4.1445   -4.3240 C   0  0  0  0  0  0  0  0  0  0  0  0
   -1.4440    4.3304   -5.5226 C   0  0  0  0  0  0  0  0  0  0  0  0
   -2.8871    3.9387   -5.1946 C   0  0  0  0  0  0  0  0  0  0  0  0
   -0.3211    5.1649   -3.4099 C   0  0  0  0  0  0  0  0  0  0  0  0
    0.4678    5.0085   -2.2881 C   0  0  0  0  0  0  0  0  0  0  0  0
   -0.8853    6.3686   -3.6277 F   0  0  0  0  0  0  0  0  0  0  0  0
   -0.1644    1.8875   -4.8631 F   0  0  0  0  0  0  0  0  0  0  0  0
    1.8671    2.4030   -0.0972 C   0  0  0  0  0  0  0  0  0  0  0  0
    1.0664    1.3383   -0.3251 O   0  0  0  0  0  0  0  0  0  0  0  0
    3.1756    5.8144   -0.8281 C   0  0  0  0  0  0  0  0  0  0  0  0
    4.1103    6.3032    0.0610 C   0  0  0  0  0  0  0  0  0  0  0  0
    4.3463    5.3900    1.0560 O   0  0  0  0  0  0  0  0  0  0  0  0
    4.8678    7.4959    0.1502 C   0  0  0  0  0  0  0  0  0  0  0  0
    4.7894    8.6495   -0.5707 C   0  0  0  0  0  0  0  0  0  0  0  0
    3.7887    9.0261   -1.5965 C   0  0  0  0  0  0  0  0  0  0  0  0
    2.9964    8.3174   -2.1721 O   0  0  0  0  0  0  0  0  0  0  0  0
    3.9299   10.4914   -1.7606 C   0  0  0  0  0  0  0  0  0  0  0  0
    3.1337   11.3516   -2.4983 C   0  0  0  0  0  0  0  0  0  0  0  0
    1.8765   10.7712   -3.4935 Cl  0  0  0  0  0  0  0  0  0  0  0  0
    3.3803   12.7289   -2.3984 C   0  0  0  0  0  0  0  0  0  0  0  0
    2.4468   13.8288   -3.3136 Cl  0  0  0  0  0  0  0  0  0  0  0  0
    4.3559   13.2049   -1.5226 C   0  0  0  0  0  0  0  0  0  0  0  0
    4.5692   14.8916   -1.3452 Cl  0  0  0  0  0  0  0  0  0  0  0  0
    5.1564   12.3267   -0.7736 C   0  0  0  0  0  0  0  0  0  0  0  0
    6.2104   12.9859    0.4067 Cl  0  0  0  0  0  0  0  0  0  0  0  0
    4.9848   10.9594   -0.9510 C   0  0  0  0  0  0  0  0  0  0  0  0
    5.6634    9.8022   -0.3775 C   0  0  0  0  0  0  0  0  0  0  0  0
    6.9633    9.7393    0.0407 C   0  0  0  0  0  0  0  0  0  0  0  0
    7.9290   10.7603   -0.1103 C   0  0  0  0  0  0  0  0  0  0  0  0
    8.8051   11.4820   -0.2747 N   0  0  0  0  0  0  0  0  0  0  0  0
    7.5878    8.5665    0.5266 C   0  0  0  0  0  0  0  0  0  0  0  0
    8.1683    7.6626    0.9291 N   0  0  0  0  0  0  0  0  0  0  0  0
   -3.6291   -8.9158    0.8368 H   0  0  0  0  0  0  0  0  0  0  0  0
   -3.7415   -8.9592   -1.3691 H   0  0  0  0  0  0  0  0  0  0  0  0
   -3.2580   -9.0841   -3.0638 H   0  0  0  0  0  0  0  0  0  0  0  0
   -5.2002   -7.7700   -3.7970 H   0  0  0  0  0  0  0  0  0  0  0  0
   -5.7220   -7.5183   -2.1351 H   0  0  0  0  0  0  0  0  0  0  0  0
   -5.7685   -9.1419   -2.8398 H   0  0  0  0  0  0  0  0  0  0  0  0
    0.8242   -4.0992   -1.0081 H   0  0  0  0  0  0  0  0  0  0  0  0
    0.9724   -4.5200   -2.7260 H   0  0  0  0  0  0  0  0  0  0  0  0
    0.3962   -6.9038   -2.1737 H   0  0  0  0  0  0  0  0  0  0  0  0
    0.3365   -6.4830   -0.4568 H   0  0  0  0  0  0  0  0  0  0  0  0
    1.8625   -6.3772   -1.3359 H   0  0  0  0  0  0  0  0  0  0  0  0
   -2.0571   -3.4276    5.8224 H   0  0  0  0  0  0  0  0  0  0  0  0
   -3.9953   -7.5166    5.7006 H   0  0  0  0  0  0  0  0  0  0  0  0
   -2.2968   -2.0595   -0.7306 H   0  0  0  0  0  0  0  0  0  0  0  0
   -0.9187   -0.0166   -0.7082 H   0  0  0  0  0  0  0  0  0  0  0  0
    2.6297    0.3824    2.3964 H   0  0  0  0  0  0  0  0  0  0  0  0
    4.9197    0.9066    2.2766 H   0  0  0  0  0  0  0  0  0  0  0  0
    6.5268    3.0088    7.0467 H   0  0  0  0  0  0  0  0  0  0  0  0
    6.8830    1.3486    6.5296 H   0  0  0  0  0  0  0  0  0  0  0  0
    8.7225    2.1997    5.0759 H   0  0  0  0  0  0  0  0  0  0  0  0
    8.9696    2.6784    6.7580 H   0  0  0  0  0  0  0  0  0  0  0  0
    8.3654    3.8535    5.5860 H   0  0  0  0  0  0  0  0  0  0  0  0
    4.1013    4.9416    3.5039 H   0  0  0  0  0  0  0  0  0  0  0  0
    1.2583    1.7473   -2.7466 H   0  0  0  0  0  0  0  0  0  0  0  0
   -1.4134    5.3750   -5.8352 H   0  0  0  0  0  0  0  0  0  0  0  0
   -1.0779    3.7068   -6.3400 H   0  0  0  0  0  0  0  0  0  0  0  0
   -2.9388    2.8933   -4.8992 H   0  0  0  0  0  0  0  0  0  0  0  0
   -3.2712    4.5508   -4.3815 H   0  0  0  0  0  0  0  0  0  0  0  0
   -3.5188    4.0843   -6.0668 H   0  0  0  0  0  0  0  0  0  0  0  0
    0.5933    5.8414   -1.6163 H   0  0  0  0  0  0  0  0  0  0  0  0
    2.8412    6.3105   -1.7139 H   0  0  0  0  0  0  0  0  0  0  0  0
    5.5866    7.4614    0.9606 H   0  0  0  0  0  0  0  0  0  0  0  0
  1  2  2  0  0  0  0
  2  3  1  0  0  0  0
  3  4  2  0  0  0  0
  3  5  1  0  0  0  0
  5  6  2  0  0  0  0
  6  7  1  0  0  0  0
  6  8  1  0  0  0  0
  8  9  1  0  0  0  0
  8 10  2  0  0  0  0
 10 11  1  0  0  0  0
 10 12  1  0  0  0  0
 12 13  1  0  0  0  0
 12 14  2  0  0  0  0
 14 15  1  0  0  0  0
 15 16  2  0  0  0  0
 16 17  1  0  0  0  0
 17 18  3  0  0  0  0
 16 19  1  0  0  0  0
 19 20  3  0  0  0  0
  1 21  1  0  0  0  0
 21 22  2  0  0  0  0
 22 23  1  0  0  0  0
 23 24  1  0  0  0  0
 24 25  1  0  0  0  0
 22 26  1  0  0  0  0
 26 27  1  0  0  0  0
 27 28  1  0  0  0  0
 28 29  1  0  0  0  0
 26 30  2  0  0  0  0
 30 31  1  0  0  0  0
 31 32  2  0  0  0  0
 32 33  1  0  0  0  0
 33 34  2  0  0  0  0
 33 35  1  0  0  0  0
 35 36  1  0  0  0  0
 36 37  1  0  0  0  0
 37 38  2  0  0  0  0
 36 39  2  0  0  0  0
 39 40  1  0  0  0  0
 40 41  1  0  0  0  0
 30 42  1  0  0  0  0
 42 43  2  0  0  0  0
 43 44  1  0  0  0  0
 44 45  2  0  0  0  0
 45 46  1  0  0  0  0
 46 47  1  0  0  0  0
 46 48  2  0  0  0  0
 48 49  1  0  0  0  0
 45 50  1  0  0  0  0
 50 51  2  0  0  0  0
 51 52  1  0  0  0  0
 52 53  2  0  0  0  0
 53 54  1  0  0  0  0
 54 55  2  0  0  0  0
 55 56  1  0  0  0  0
 56 57  1  0  0  0  0
 56 58  2  0  0  0  0
 58 59  1  0  0  0  0
 59 60  1  0  0  0  0
 58 61  1  0  0  0  0
 61 62  1  0  0  0  0
 61 63  2  0  0  0  0
 53 64  1  0  0  0  0
 64 65  2  0  0  0  0
 65 66  1  0  0  0  0
 66 67  1  0  0  0  0
 67 68  2  0  0  0  0
 68 69  1  0  0  0  0
 69 70  2  0  0  0  0
 70 71  1  0  0  0  0
 71 72  1  0  0  0  0
 70 73  1  0  0  0  0
 73 74  2  0  0  0  0
 73 75  1  0  0  0  0
 69 76  1  0  0  0  0
 66 77  2  0  0  0  0
 77 78  1  0  0  0  0
 65 79  1  0  0  0  0
 79 80  2  0  0  0  0
 80 81  1  0  0  0  0
 80 82  1  0  0  0  0
 82 83  2  0  0  0  0
 83 84  1  0  0  0  0
 84 85  2  0  0  0  0
 84 86  1  0  0  0  0
 86 87  2  0  0  0  0
 87 88  1  0  0  0  0
 87 89  1  0  0  0  0
 89 90  1  0  0  0  0
 89 91  2  0  0  0  0
 91 92  1  0  0  0  0
 91 93  1  0  0  0  0
 93 94  1  0  0  0  0
 93 95  2  0  0  0  0
 95 96  1  0  0  0  0
 96 97  2  0  0  0  0
 97 98  1  0  0  0  0
 98 99  3  0  0  0  0
 97100  1  0  0  0  0
100101  3  0  0  0  0
 15  2  1  0  0  0  0
 32 21  1  0  0  0  0
 41 35  2  0  0  0  0
 48 42  1  0  0  0  0
 78 50  1  0  0  0  0
 96 83  1  0  0  0  0
 14  5  1  0  0  0  0
 37 31  1  0  0  0  0
 77 52  1  0  0  0  0
 95 86  1  0  0  0  0
 63 54  1  0  0  0  0
 81 64  1  0  0  0  0
 74 67  1  0  0  0  0
  1102  1  0  0  0  0
 24103  1  0  0  0  0
 24104  1  0  0  0  0
 25105  1  0  0  0  0
 25106  1  0  0  0  0
 25107  1  0  0  0  0
 28108  1  0  0  0  0
 28109  1  0  0  0  0
 29110  1  0  0  0  0
 29111  1  0  0  0  0
 29112  1  0  0  0  0
 39113  1  0  0  0  0
 41114  1  0  0  0  0
 43115  1  0  0  0  0
 44116  1  0  0  0  0
 51117  1  0  0  0  0
 55118  1  0  0  0  0
 59119  1  0  0  0  0
 59120  1  0  0  0  0
 60121  1  0  0  0  0
 60122  1  0  0  0  0
 60123  1  0  0  0  0
 63124  1  0  0  0  0
 68125  1  0  0  0  0
 71126  1  0  0  0  0
 71127  1  0  0  0  0
 72128  1  0  0  0  0
 72129  1  0  0  0  0
 72130  1  0  0  0  0
 74131  1  0  0  0  0
 79132  1  0  0  0  0
 82133  1  0  0  0  0
M  END
