157

C          0.75780        1.41790       -6.82770
C         -0.20350        0.82700       -7.58470
C         -1.40290        0.21220       -6.98610
O         -1.62440        0.00950       -5.80950
C         -2.30040       -0.08930       -8.12230
C         -3.58860       -0.59290       -8.08980
Cl        -4.29770       -1.11780       -6.62980
C         -4.30970       -0.65760       -9.28840
Cl        -5.89340       -1.30330       -9.30190
C         -3.75120       -0.15390      -10.46330
Cl        -4.68580       -0.14930      -11.89520
C         -2.44490        0.36190      -10.49100
Cl        -1.90100        1.11760      -11.92970
C         -1.68870        0.32570       -9.32440
C         -0.31660        0.73200       -9.03120
C          0.73340        0.79100       -9.90380
C          2.04110        1.17560       -9.53270
N          3.12870        1.47680       -9.32670
C          0.74080        0.32810      -11.23840
N          0.88210       -0.12180      -12.28430
C          0.73470        1.26170       -5.37080
C          1.06540        0.04440       -4.77690
S          1.75210       -1.21800       -5.81800
C          0.45330       -2.52120       -5.74680
C          0.17170       -3.03260       -7.14490
C          0.86150       -0.12950       -3.41360
S          1.10330       -1.73420       -2.69800
C         -0.62620       -2.11770       -2.18160
C         -0.66250       -2.75260       -0.80700
C          0.45840        0.94550       -2.59890
C          0.18680        2.19090       -3.18510
C          0.28560        2.31730       -4.57970
C         -0.05810        3.52350       -5.33590
O          0.00930        3.52290       -6.55920
C         -0.46090        4.65910       -4.52760
C         -0.47270        4.58220       -3.10200
C         -0.08960        3.38150       -2.34960
O          0.03010        3.39680       -1.13770
C         -0.86230        5.76130       -2.53320
S         -1.22130        6.95970       -3.70460
C         -0.84180        5.89190       -4.98440
C          0.37140        0.74160       -1.15990
C          1.39240        0.36150       -0.30340
N          2.70910        0.16380       -0.63910
C          3.24900        0.70940       -1.81490
C          3.03350        2.04810       -2.13910
C          3.41920        2.52640       -3.37050
C          4.03830        1.68340       -4.29360
S          4.33790        2.35760       -5.89320
C          4.97460        0.95140       -6.84220
C          4.35470        0.38200       -3.92500
C          3.96260       -0.09990       -2.69160
C          3.51720       -0.60860        0.21920
C          3.09300       -1.86380        0.64460
C          3.78950       -2.54520        1.62330
C          4.92060       -1.97310        2.18960
S          5.77840       -2.68450        3.55810
C          4.52050       -3.75390        4.31600
C          5.41140       -0.77210        1.67990
C          4.72000       -0.09560        0.69930
C          0.89830        0.21250        1.01760
S          1.65190       -0.17110        2.52290
C          0.08850       -0.15350        3.33200
C         -0.94140        0.32050        2.48550
N         -2.21040        0.69900        2.83280
C         -3.19450        0.65190        1.82290
C         -3.99340        1.76230        1.55520
C         -4.89790        1.72280        0.51860
C         -5.02280        0.57840       -0.27020
S         -6.17100        0.65880       -1.60250
C         -5.72620       -0.76410       -2.63960
C         -4.26220       -0.54560        0.02850
C         -3.35570       -0.50640        1.06900
C         -2.56730        1.13160        4.10670
C         -1.63500        1.72140        4.96310
C         -1.95040        1.97210        6.28010
C         -3.22240        1.67490        6.76520
S         -3.66950        1.81300        8.45620
C         -2.07240        1.71490        9.30990
C         -4.20080        1.23570        5.87030
C         -3.88150        0.96900        4.56050
C         -0.45410        0.46900        1.16250
S         -1.16400        0.95510       -0.34300
C          0.07990       -0.67360        4.64290
C         -1.04180       -1.16030        5.35660
C         -0.94780       -1.60240        6.73100
N         -2.11940       -2.02910        7.19310
S         -3.22080       -1.92580        6.02520
N         -2.27340       -1.32340        4.87130
C          0.27280       -1.66980        7.45090
C          1.40550       -1.23580        6.71860
N          2.65080       -1.12790        7.17580
S          3.61160       -0.59870        6.00670
N          2.48920       -0.42380        4.86510
C          1.30430       -0.78670        5.35450
C          0.30620       -2.11450        8.78040
C          1.39810       -2.68750        9.40090
C          2.41720       -3.46370        8.68640
O          2.50680       -3.68670        7.49670
C          3.25820       -4.06690        9.75200
C          4.40410       -4.82260        9.60070
Cl         4.98930       -5.25280        8.05690
C          5.10020       -5.21970       10.74980
Cl         6.50950       -6.17990       10.61140
C          4.66160       -4.79840       12.00160
Cl         5.56450       -5.23360       13.38960
C          3.50550       -4.01310       12.14900
Cl         3.13900       -3.42570       13.71850
C          2.75950       -3.69740       11.01880
C          1.54820       -2.90130       10.81650
C          0.67640       -2.40200       11.76090
C          0.46680       -2.86760       13.07330
N          0.11020       -3.23690       14.10120
C         -0.23650       -1.36230       11.48610
N         -0.93000       -0.45080       11.38160
H          1.62350        1.89670       -7.26530
H         -0.42820       -2.05170       -5.31430
H          0.81770       -3.31620       -5.09790
H         -0.19260       -2.22920       -7.78270
H          1.07380       -3.44450       -7.59070
H         -0.58590       -3.81270       -7.10390
H         -1.18840       -1.18680       -2.21060
H         -1.02070       -2.80140       -2.93430
H         -0.29690       -2.06170       -0.05150
H         -0.04900       -3.65070       -0.78710
H         -1.68590       -3.02790       -0.56020
H         -0.95770        5.97310       -1.48650
H         -0.91080        6.21080       -6.00580
H          2.53760        2.69380       -1.42980
H          3.23260        3.55460       -3.64300
H          5.04160        1.30150       -7.86730
H          4.27110        0.12510       -6.78270
H          5.95720        0.67030       -6.47450
H          4.87740       -0.27580       -4.59890
H          4.17390       -1.12250       -2.41790
H          2.19920       -2.29390        0.21850
H          3.43320       -3.50890        1.95000
H          3.57240       -3.22670        4.35810
H          4.42790       -4.68340        3.76110
H          4.86690       -3.96370        5.32310
H          6.31990       -0.36060        2.09130
H          5.07860        0.85380        0.33090
H         -3.88140        2.65660        2.14920
H         -5.50710        2.58380        0.29170
H         -6.00630       -1.69270       -2.15110
H         -4.66360       -0.73450       -2.86120
H         -6.29730       -0.64770       -3.55550
H         -4.36940       -1.45480       -0.54040
H         -2.76350       -1.37670        1.30840
H         -0.64810        1.96410        4.59950
H         -1.20120        2.39880        6.92780
H         -1.55900        2.67110        9.26750
H         -2.29370        1.45860       10.34100
H         -1.47470        0.92410        8.86720
H         -5.20240        1.06640        6.23360
H         -4.62870        0.56190        3.89780
H         -0.62850       -2.03220        9.32160
