
  xtb     02042205453D
 energy: -335.143788472040 gnorm: 0.000875541743 xtb: 6.4.1 (unknown)
174191  0     0  0            999 V2000
    5.2936   -5.9565    3.4523 C   0  0  0  0  0  0  0  0  0  0  0  0
    6.5637   -6.1248    2.9760 C   0  0  0  0  0  0  0  0  0  0  0  0
    7.2322   -5.2940    1.9639 C   0  0  0  0  0  0  0  0  0  0  0  0
    6.7550   -4.3973    1.3034 O   0  0  0  0  0  0  0  0  0  0  0  0
    8.6389   -5.7563    1.9342 C   0  0  0  0  0  0  0  0  0  0  0  0
    9.7028   -5.2246    1.2270 C   0  0  0  0  0  0  0  0  0  0  0  0
    9.4798   -3.9700    0.0935 Cl  0  0  0  0  0  0  0  0  0  0  0  0
   10.9842   -5.7381    1.4741 C   0  0  0  0  0  0  0  0  0  0  0  0
   12.3254   -5.1398    0.6004 Cl  0  0  0  0  0  0  0  0  0  0  0  0
   11.1713   -6.7016    2.4643 C   0  0  0  0  0  0  0  0  0  0  0  0
   12.7562   -7.2353    2.8214 Cl  0  0  0  0  0  0  0  0  0  0  0  0
   10.0874   -7.2298    3.1850 C   0  0  0  0  0  0  0  0  0  0  0  0
   10.4221   -8.2690    4.5072 Cl  0  0  0  0  0  0  0  0  0  0  0  0
    8.8038   -6.8061    2.8614 C   0  0  0  0  0  0  0  0  0  0  0  0
    7.4884   -7.1711    3.3817 C   0  0  0  0  0  0  0  0  0  0  0  0
    7.1418   -8.3661    3.9566 C   0  0  0  0  0  0  0  0  0  0  0  0
    5.8651   -8.6759    4.4752 C   0  0  0  0  0  0  0  0  0  0  0  0
    4.8727   -9.0079    4.9489 N   0  0  0  0  0  0  0  0  0  0  0  0
    7.9403   -9.5313    3.9822 C   0  0  0  0  0  0  0  0  0  0  0  0
    8.4559  -10.5558    3.9546 N   0  0  0  0  0  0  0  0  0  0  0  0
    4.2955   -5.0236    3.1111 C   0  0  0  0  0  0  0  0  0  0  0  0
    3.0553   -5.0499    3.7254 C   0  0  0  0  0  0  0  0  0  0  0  0
    2.1633   -4.0732    3.2612 C   0  0  0  0  0  0  0  0  0  0  0  0
    0.8379   -3.8366    3.6942 C   0  0  0  0  0  0  0  0  0  0  0  0
    0.1889   -4.7447    4.6439 C   0  0  0  0  0  0  0  0  0  0  0  0
   -0.5123   -4.2728    5.7504 C   0  0  0  0  0  0  0  0  0  0  0  0
   -1.1063   -5.1641    6.6265 C   0  0  0  0  0  0  0  0  0  0  0  0
   -1.0227   -6.5285    6.4121 C   0  0  0  0  0  0  0  0  0  0  0  0
   -0.3269   -7.0037    5.3089 C   0  0  0  0  0  0  0  0  0  0  0  0
   -0.2037   -8.7422    4.9466 S   0  0  0  0  0  0  0  0  0  0  0  0
    0.4803   -9.3731    6.5206 C   0  0  0  0  0  0  0  0  0  0  0  0
    1.8401   -8.7766    6.8226 C   0  0  0  0  0  0  0  0  0  0  0  0
    0.2727   -6.1178    4.4300 C   0  0  0  0  0  0  0  0  0  0  0  0
    0.1917   -2.7549    3.1279 C   0  0  0  0  0  0  0  0  0  0  0  0
    0.7985   -1.9421    2.1374 C   0  0  0  0  0  0  0  0  0  0  0  0
    2.1177   -2.1608    1.7196 C   0  0  0  0  0  0  0  0  0  0  0  0
    2.7321   -1.2395    0.7555 C   0  0  0  0  0  0  0  0  0  0  0  0
    3.4037   -1.6883   -0.3777 C   0  0  0  0  0  0  0  0  0  0  0  0
    3.9118   -0.7731   -1.2819 C   0  0  0  0  0  0  0  0  0  0  0  0
    3.7636    0.5890   -1.0825 C   0  0  0  0  0  0  0  0  0  0  0  0
    3.1258    1.0428    0.0641 C   0  0  0  0  0  0  0  0  0  0  0  0
    2.8420    2.7522    0.4333 S   0  0  0  0  0  0  0  0  0  0  0  0
    4.1826    3.6292   -0.4393 C   0  0  0  0  0  0  0  0  0  0  0  0
    5.5482    3.2727    0.1123 C   0  0  0  0  0  0  0  0  0  0  0  0
    2.6201    0.1287    0.9774 C   0  0  0  0  0  0  0  0  0  0  0  0
    2.7744   -3.2464    2.2785 C   0  0  0  0  0  0  0  0  0  0  0  0
    4.4019   -3.7432    1.9200 S   0  0  0  0  0  0  0  0  0  0  0  0
   -0.1154   -1.0027    1.6013 C   0  0  0  0  0  0  0  0  0  0  0  0
   -1.3515   -1.0575    2.1580 C   0  0  0  0  0  0  0  0  0  0  0  0
   -1.4585   -2.2555    3.4298 S   0  0  0  0  0  0  0  0  0  0  0  0
   -2.4625   -0.2967    1.6393 C   0  0  0  0  0  0  0  0  0  0  0  0
   -2.9218   -0.4127    0.3413 C   0  0  0  0  0  0  0  0  0  0  0  0
   -2.4176   -1.2351   -0.6583 N   0  0  0  0  0  0  0  0  0  0  0  0
   -1.8340   -2.4703   -0.3680 C   0  0  0  0  0  0  0  0  0  0  0  0
   -2.4505   -3.3371    0.5309 C   0  0  0  0  0  0  0  0  0  0  0  0
   -1.8428   -4.5215    0.8969 C   0  0  0  0  0  0  0  0  0  0  0  0
   -0.6112   -4.8652    0.3571 C   0  0  0  0  0  0  0  0  0  0  0  0
    0.2833   -6.3146    0.8299 S   0  0  0  0  0  0  0  0  0  0  0  0
   -1.0178   -7.4255    1.4419 C   0  0  0  0  0  0  0  0  0  0  0  0
   -0.0124   -4.0230   -0.5758 C   0  0  0  0  0  0  0  0  0  0  0  0
   -0.6160   -2.8397   -0.9394 C   0  0  0  0  0  0  0  0  0  0  0  0
   -2.1314   -0.5501   -1.8649 C   0  0  0  0  0  0  0  0  0  0  0  0
   -1.5706    0.7280   -1.8199 C   0  0  0  0  0  0  0  0  0  0  0  0
   -1.4608    1.4854   -2.9624 C   0  0  0  0  0  0  0  0  0  0  0  0
   -1.8827    0.9692   -4.1851 C   0  0  0  0  0  0  0  0  0  0  0  0
   -1.7434    2.0526   -5.5758 S   0  0  0  0  0  0  0  0  0  0  0  0
   -2.8128    1.2815   -6.8250 C   0  0  0  0  0  0  0  0  0  0  0  0
   -2.3661   -0.3309   -4.2494 C   0  0  0  0  0  0  0  0  0  0  0  0
   -2.4960   -1.0826   -3.0943 C   0  0  0  0  0  0  0  0  0  0  0  0
   -3.8384    0.6228    0.0387 C   0  0  0  0  0  0  0  0  0  0  0  0
   -4.7276    1.0372   -1.3823 S   0  0  0  0  0  0  0  0  0  0  0  0
   -4.9172    2.6865   -0.7774 C   0  0  0  0  0  0  0  0  0  0  0  0
   -4.5386    2.7971    0.5716 C   0  0  0  0  0  0  0  0  0  0  0  0
   -4.6196    3.9190    1.3582 N   0  0  0  0  0  0  0  0  0  0  0  0
   -3.4790    4.1949    2.1398 C   0  0  0  0  0  0  0  0  0  0  0  0
   -2.2211    4.0787    1.5521 C   0  0  0  0  0  0  0  0  0  0  0  0
   -1.0731    4.2766    2.2897 C   0  0  0  0  0  0  0  0  0  0  0  0
   -1.1688    4.6033    3.6377 C   0  0  0  0  0  0  0  0  0  0  0  0
    0.2225    4.8585    4.6839 S   0  0  0  0  0  0  0  0  0  0  0  0
    1.6509    4.5983    3.5948 C   0  0  0  0  0  0  0  0  0  0  0  0
   -2.4280    4.7430    4.2234 C   0  0  0  0  0  0  0  0  0  0  0  0
   -3.5738    4.5391    3.4861 C   0  0  0  0  0  0  0  0  0  0  0  0
   -5.7086    4.7818    1.3169 C   0  0  0  0  0  0  0  0  0  0  0  0
   -5.5813    6.1164    1.7141 C   0  0  0  0  0  0  0  0  0  0  0  0
   -6.6674    6.9575    1.6803 C   0  0  0  0  0  0  0  0  0  0  0  0
   -7.9127    6.4977    1.2496 C   0  0  0  0  0  0  0  0  0  0  0  0
   -9.2250    7.6716    1.2509 S   0  0  0  0  0  0  0  0  0  0  0  0
  -10.6275    6.7695    0.5339 C   0  0  0  0  0  0  0  0  0  0  0  0
   -8.0469    5.1702    0.8618 C   0  0  0  0  0  0  0  0  0  0  0  0
   -6.9577    4.3240    0.8994 C   0  0  0  0  0  0  0  0  0  0  0  0
   -3.9398    1.5932    1.0211 C   0  0  0  0  0  0  0  0  0  0  0  0
   -3.1266    1.0954    2.4735 S   0  0  0  0  0  0  0  0  0  0  0  0
   -5.0235    3.6736   -1.7836 C   0  0  0  0  0  0  0  0  0  0  0  0
   -5.4419    3.2886   -3.0841 C   0  0  0  0  0  0  0  0  0  0  0  0
   -5.0498    3.9827   -4.2888 C   0  0  0  0  0  0  0  0  0  0  0  0
   -5.4850    3.3569   -5.3802 N   0  0  0  0  0  0  0  0  0  0  0  0
   -6.3210    2.0506   -4.9425 S   0  0  0  0  0  4  0  0  0  0  0  0
   -6.1444    2.1908   -3.3498 N   0  0  0  0  0  0  0  0  0  0  0  0
   -4.1385    5.0601   -4.2363 C   0  0  0  0  0  0  0  0  0  0  0  0
   -3.9415    5.5995   -2.9449 C   0  0  0  0  0  0  0  0  0  0  0  0
   -3.2988    6.7306   -2.6784 N   0  0  0  0  0  0  0  0  0  0  0  0
   -3.2265    6.9357   -1.0879 S   0  0  0  0  0  0  0  0  0  0  0  0
   -4.0270    5.6135   -0.6470 N   0  0  0  0  0  0  0  0  0  0  0  0
   -4.4045    4.9459   -1.7327 C   0  0  0  0  0  0  0  0  0  0  0  0
   -3.3641    5.4087   -5.3671 C   0  0  0  0  0  0  0  0  0  0  0  0
   -2.0097    5.6169   -5.3211 C   0  0  0  0  0  0  0  0  0  0  0  0
   -1.1517    5.1537   -4.2216 C   0  0  0  0  0  0  0  0  0  0  0  0
   -1.4631    4.7771   -3.1099 O   0  0  0  0  0  0  0  0  0  0  0  0
    0.2137    5.0861   -4.7986 C   0  0  0  0  0  0  0  0  0  0  0  0
    1.3534    4.5530   -4.2262 C   0  0  0  0  0  0  0  0  0  0  0  0
    1.3746    4.0223   -2.6041 Cl  0  0  0  0  0  0  0  0  0  0  0  0
    2.5036    4.4420   -5.0167 C   0  0  0  0  0  0  0  0  0  0  0  0
    3.9422    3.8075   -4.3469 Cl  0  0  0  0  0  0  0  0  0  0  0  0
    2.4674    4.8056   -6.3592 C   0  0  0  0  0  0  0  0  0  0  0  0
    3.8626    4.5834   -7.3273 Cl  0  0  0  0  0  0  0  0  0  0  0  0
    1.3006    5.3317   -6.9397 C   0  0  0  0  0  0  0  0  0  0  0  0
    1.2860    5.5928   -8.6347 Cl  0  0  0  0  0  0  0  0  0  0  0  0
    0.1850    5.5264   -6.1368 C   0  0  0  0  0  0  0  0  0  0  0  0
   -1.1601    6.0242   -6.4185 C   0  0  0  0  0  0  0  0  0  0  0  0
   -1.5613    6.8861   -7.4051 C   0  0  0  0  0  0  0  0  0  0  0  0
   -0.7365    7.5964   -8.3013 C   0  0  0  0  0  0  0  0  0  0  0  0
   -0.1554    8.2867   -9.0113 N   0  0  0  0  0  0  0  0  0  0  0  0
   -2.9030    7.3134   -7.5360 C   0  0  0  0  0  0  0  0  0  0  0  0
   -3.9690    7.7005   -7.7110 N   0  0  0  0  0  0  0  0  0  0  0  0
    4.9787   -6.6331    4.2378 H   0  0  0  0  0  0  0  0  0  0  0  0
    2.8199   -5.7567    4.5010 H   0  0  0  0  0  0  0  0  0  0  0  0
   -0.5726   -3.2110    5.9349 H   0  0  0  0  0  0  0  0  0  0  0  0
   -1.6455   -4.7920    7.4849 H   0  0  0  0  0  0  0  0  0  0  0  0
   -1.5021   -7.2158    7.0924 H   0  0  0  0  0  0  0  0  0  0  0  0
   -0.2391   -9.1690    7.3134 H   0  0  0  0  0  0  0  0  0  0  0  0
    0.5458  -10.4498    6.3682 H   0  0  0  0  0  0  0  0  0  0  0  0
    2.2347   -9.2095    7.7396 H   0  0  0  0  0  0  0  0  0  0  0  0
    2.5387   -8.9825    6.0152 H   0  0  0  0  0  0  0  0  0  0  0  0
    1.7639   -7.6979    6.9553 H   0  0  0  0  0  0  0  0  0  0  0  0
    0.7902   -6.5003    3.5640 H   0  0  0  0  0  0  0  0  0  0  0  0
    3.5068   -2.7466   -0.5589 H   0  0  0  0  0  0  0  0  0  0  0  0
    4.4214   -1.1227   -2.1673 H   0  0  0  0  0  0  0  0  0  0  0  0
    4.1406    1.2790   -1.8210 H   0  0  0  0  0  0  0  0  0  0  0  0
    4.0976    3.4175   -1.5038 H   0  0  0  0  0  0  0  0  0  0  0  0
    3.9538    4.6824   -0.2763 H   0  0  0  0  0  0  0  0  0  0  0  0
    6.3155    3.8368   -0.4142 H   0  0  0  0  0  0  0  0  0  0  0  0
    5.6038    3.5117    1.1722 H   0  0  0  0  0  0  0  0  0  0  0  0
    5.7514    2.2106   -0.0121 H   0  0  0  0  0  0  0  0  0  0  0  0
    2.1444    0.4937    1.8757 H   0  0  0  0  0  0  0  0  0  0  0  0
    0.1300   -0.3318    0.7982 H   0  0  0  0  0  0  0  0  0  0  0  0
   -3.4025   -3.0656    0.9630 H   0  0  0  0  0  0  0  0  0  0  0  0
   -2.3301   -5.1597    1.6167 H   0  0  0  0  0  0  0  0  0  0  0  0
   -1.8037   -7.5007    0.6967 H   0  0  0  0  0  0  0  0  0  0  0  0
   -1.4062   -7.0746    2.3936 H   0  0  0  0  0  0  0  0  0  0  0  0
   -0.5414   -8.3905    1.5844 H   0  0  0  0  0  0  0  0  0  0  0  0
    0.9413   -4.2996   -0.9979 H   0  0  0  0  0  0  0  0  0  0  0  0
   -0.1362   -2.1810   -1.6480 H   0  0  0  0  0  0  0  0  0  0  0  0
   -1.2508    1.1422   -0.8743 H   0  0  0  0  0  0  0  0  0  0  0  0
   -1.0777    2.4920   -2.9137 H   0  0  0  0  0  0  0  0  0  0  0  0
   -2.9181    2.0187   -7.6146 H   0  0  0  0  0  0  0  0  0  0  0  0
   -3.7841    1.0687   -6.3892 H   0  0  0  0  0  0  0  0  0  0  0  0
   -2.3483    0.3823   -7.2189 H   0  0  0  0  0  0  0  0  0  0  0  0
   -2.6677   -0.7632   -5.1901 H   0  0  0  0  0  0  0  0  0  0  0  0
   -2.9040   -2.0809   -3.1419 H   0  0  0  0  0  0  0  0  0  0  0  0
   -2.1472    3.8398    0.5013 H   0  0  0  0  0  0  0  0  0  0  0  0
   -0.1168    4.1742    1.8030 H   0  0  0  0  0  0  0  0  0  0  0  0
    1.6403    3.5917    3.1880 H   0  0  0  0  0  0  0  0  0  0  0  0
    2.5240    4.7319    4.2260 H   0  0  0  0  0  0  0  0  0  0  0  0
    1.6535    5.3394    2.8013 H   0  0  0  0  0  0  0  0  0  0  0  0
   -2.4922    5.0008    5.2692 H   0  0  0  0  0  0  0  0  0  0  0  0
   -4.5442    4.6304    3.9499 H   0  0  0  0  0  0  0  0  0  0  0  0
   -4.6187    6.4911    2.0229 H   0  0  0  0  0  0  0  0  0  0  0  0
   -6.5663    7.9898    1.9783 H   0  0  0  0  0  0  0  0  0  0  0  0
  -10.3740    6.4241   -0.4639 H   0  0  0  0  0  0  0  0  0  0  0  0
  -10.9108    5.9438    1.1800 H   0  0  0  0  0  0  0  0  0  0  0  0
  -11.4391    7.4885    0.4800 H   0  0  0  0  0  0  0  0  0  0  0  0
   -8.9967    4.7776    0.5366 H   0  0  0  0  0  0  0  0  0  0  0  0
   -7.0832    3.2919    0.6081 H   0  0  0  0  0  0  0  0  0  0  0  0
   -3.8567    5.3360   -6.3287 H   0  0  0  0  0  0  0  0  0  0  0  0
  1  2  2  0  0  0  0
  2  3  1  0  0  0  0
  3  4  2  0  0  0  0
  3  5  1  0  0  0  0
  5  6  2  0  0  0  0
  6  7  1  0  0  0  0
  6  8  1  0  0  0  0
  8  9  1  0  0  0  0
  8 10  2  0  0  0  0
 10 11  1  0  0  0  0
 10 12  1  0  0  0  0
 12 13  1  0  0  0  0
 12 14  2  0  0  0  0
 14 15  1  0  0  0  0
 15 16  2  0  0  0  0
 16 17  1  0  0  0  0
 17 18  3  0  0  0  0
 16 19  1  0  0  0  0
 19 20  3  0  0  0  0
  1 21  1  0  0  0  0
 21 22  2  0  0  0  0
 22 23  1  0  0  0  0
 23 24  2  0  0  0  0
 24 25  1  0  0  0  0
 25 26  2  0  0  0  0
 26 27  1  0  0  0  0
 27 28  2  0  0  0  0
 28 29  1  0  0  0  0
 29 30  1  0  0  0  0
 30 31  1  0  0  0  0
 31 32  1  0  0  0  0
 29 33  2  0  0  0  0
 24 34  1  0  0  0  0
 34 35  2  0  0  0  0
 35 36  1  0  0  0  0
 36 37  1  0  0  0  0
 37 38  2  0  0  0  0
 38 39  1  0  0  0  0
 39 40  2  0  0  0  0
 40 41  1  0  0  0  0
 41 42  1  0  0  0  0
 42 43  1  0  0  0  0
 43 44  1  0  0  0  0
 41 45  2  0  0  0  0
 36 46  2  0  0  0  0
 46 47  1  0  0  0  0
 35 48  1  0  0  0  0
 48 49  2  0  0  0  0
 49 50  1  0  0  0  0
 49 51  1  0  0  0  0
 51 52  2  0  0  0  0
 52 53  1  0  0  0  0
 53 54  1  0  0  0  0
 54 55  2  0  0  0  0
 55 56  1  0  0  0  0
 56 57  2  0  0  0  0
 57 58  1  0  0  0  0
 58 59  1  0  0  0  0
 57 60  1  0  0  0  0
 60 61  2  0  0  0  0
 53 62  1  0  0  0  0
 62 63  2  0  0  0  0
 63 64  1  0  0  0  0
 64 65  2  0  0  0  0
 65 66  1  0  0  0  0
 66 67  1  0  0  0  0
 65 68  1  0  0  0  0
 68 69  2  0  0  0  0
 52 70  1  0  0  0  0
 70 71  1  0  0  0  0
 71 72  1  0  0  0  0
 72 73  2  0  0  0  0
 73 74  1  0  0  0  0
 74 75  1  0  0  0  0
 75 76  2  0  0  0  0
 76 77  1  0  0  0  0
 77 78  2  0  0  0  0
 78 79  1  0  0  0  0
 79 80  1  0  0  0  0
 78 81  1  0  0  0  0
 81 82  2  0  0  0  0
 74 83  1  0  0  0  0
 83 84  2  0  0  0  0
 84 85  1  0  0  0  0
 85 86  2  0  0  0  0
 86 87  1  0  0  0  0
 87 88  1  0  0  0  0
 86 89  1  0  0  0  0
 89 90  2  0  0  0  0
 73 91  1  0  0  0  0
 91 92  1  0  0  0  0
 72 93  1  0  0  0  0
 93 94  2  0  0  0  0
 94 95  1  0  0  0  0
 95 96  1  0  0  0  0
 96 97  2  0  0  0  0
 97 98  2  0  0  0  0
 95 99  2  0  0  0  0
 99100  1  0  0  0  0
100101  2  0  0  0  0
101102  1  0  0  0  0
102103  1  0  0  0  0
103104  2  0  0  0  0
 99105  1  0  0  0  0
105106  2  0  0  0  0
106107  1  0  0  0  0
107108  2  0  0  0  0
107109  1  0  0  0  0
109110  2  0  0  0  0
110111  1  0  0  0  0
110112  1  0  0  0  0
112113  1  0  0  0  0
112114  2  0  0  0  0
114115  1  0  0  0  0
114116  1  0  0  0  0
116117  1  0  0  0  0
116118  2  0  0  0  0
118119  1  0  0  0  0
119120  2  0  0  0  0
120121  1  0  0  0  0
121122  3  0  0  0  0
120123  1  0  0  0  0
123124  3  0  0  0  0
 15  2  1  0  0  0  0
 47 21  1  0  0  0  0
 92 51  1  0  0  0  0
104 93  1  0  0  0  0
119106  1  0  0  0  0
 14  5  1  0  0  0  0
 46 23  1  0  0  0  0
 61 54  1  0  0  0  0
 69 62  1  0  0  0  0
 91 70  2  0  0  0  0
 98 94  1  0  0  0  0
104100  1  0  0  0  0
118109  1  0  0  0  0
 33 25  1  0  0  0  0
 50 34  1  0  0  0  0
 82 75  1  0  0  0  0
 90 83  1  0  0  0  0
 45 37  1  0  0  0  0
  1125  1  0  0  0  0
 22126  1  0  0  0  0
 26127  1  0  0  0  0
 27128  1  0  0  0  0
 28129  1  0  0  0  0
 31130  1  0  0  0  0
 31131  1  0  0  0  0
 32132  1  0  0  0  0
 32133  1  0  0  0  0
 32134  1  0  0  0  0
 33135  1  0  0  0  0
 38136  1  0  0  0  0
 39137  1  0  0  0  0
 40138  1  0  0  0  0
 43139  1  0  0  0  0
 43140  1  0  0  0  0
 44141  1  0  0  0  0
 44142  1  0  0  0  0
 44143  1  0  0  0  0
 45144  1  0  0  0  0
 48145  1  0  0  0  0
 55146  1  0  0  0  0
 56147  1  0  0  0  0
 59148  1  0  0  0  0
 59149  1  0  0  0  0
 59150  1  0  0  0  0
 60151  1  0  0  0  0
 61152  1  0  0  0  0
 63153  1  0  0  0  0
 64154  1  0  0  0  0
 67155  1  0  0  0  0
 67156  1  0  0  0  0
 67157  1  0  0  0  0
 68158  1  0  0  0  0
 69159  1  0  0  0  0
 76160  1  0  0  0  0
 77161  1  0  0  0  0
 80162  1  0  0  0  0
 80163  1  0  0  0  0
 80164  1  0  0  0  0
 81165  1  0  0  0  0
 82166  1  0  0  0  0
 84167  1  0  0  0  0
 85168  1  0  0  0  0
 88169  1  0  0  0  0
 88170  1  0  0  0  0
 88171  1  0  0  0  0
 89172  1  0  0  0  0
 90173  1  0  0  0  0
105174  1  0  0  0  0
M  END
