170

C          7.76190        2.67130        2.11470
C          8.50200        3.56070        1.41190
C          9.62890        4.27810        2.05670
O         10.11740        4.04370        3.13360
C          9.93080        5.40940        1.14530
C         10.78720        6.47850        1.34590
Cl        11.83530        6.53590        2.69050
C         10.76810        7.52850        0.41650
Cl        11.83500        8.85080        0.60230
C          9.84710        7.52020       -0.63090
Cl         9.76440        8.86410       -1.68510
C          8.97650        6.43690       -0.82540
Cl         7.74670        6.57470       -2.00930
C          9.07660        5.34330        0.02490
C          8.35840        4.07220        0.05910
C          7.86610        3.39280       -1.01910
C          8.03550        3.75810       -2.37430
N          8.18570        3.91310       -3.50120
C          7.23280        2.13300       -0.96370
N          6.69200        1.12280       -1.03460
C          6.43570        2.20550        1.75760
C          5.41730        3.08860        1.36640
S          5.75070        4.83170        1.33200
C          4.41860        5.54990        2.38100
C          3.78770        6.74550        1.69990
C          4.16910        2.58660        1.01250
S          2.99860        3.69200        0.23890
C          3.42710        3.32900       -1.50630
C          4.29190        4.42320       -2.09600
C          3.83730        1.23700        1.22610
C          4.88050        0.33460        1.54120
C          6.16230        0.83160        1.78450
C          7.34610       -0.01720        2.01930
O          8.46630        0.46380        2.03500
C          7.05450       -1.42570        2.22210
C          5.76020       -1.95170        1.94400
C          4.65100       -1.12900        1.45170
O          3.64870       -1.63020        0.98070
C          5.69680       -3.29770        2.16520
S          7.18760       -3.92870        2.72980
C          7.92820       -2.38920        2.64480
C          2.46150        0.78910        1.19360
C          1.80270        0.02230        2.15240
N          2.34560       -0.45970        3.32790
C          3.41290        0.17980        3.95780
C          3.47010        1.57190        4.03060
C          4.57330        2.20660        4.56030
C          5.64750        1.46080        5.03330
S          7.14680        2.16030        5.64190
C          6.96760        3.94090        5.33590
C          5.56010        0.06970        5.03660
C          4.45600       -0.56480        4.51280
C          1.84440       -1.66490        3.85410
C          1.61030       -1.78890        5.22220
C          1.03770       -2.93810        5.72050
C          0.68560       -3.97920        4.86430
S         -0.10920       -5.38240        5.58070
C         -0.94760       -6.13190        4.15360
C          0.97630       -3.88230        3.51020
C          1.55370       -2.73270        3.01050
C          0.45180       -0.19040        1.78840
S         -0.87510       -1.06540        2.48220
C         -1.92530       -0.54360        1.17820
C         -1.24990        0.19460        0.20370
N         -1.74080        0.57450       -1.02700
C         -1.23220        1.75220       -1.59510
C         -0.86820        1.79960       -2.93690
C         -0.28360        2.93500       -3.46460
C         -0.05090        4.03920       -2.65410
S          0.75080        5.51600       -3.19360
C          1.31560        5.12270       -4.87320
C         -0.45870        4.01110       -1.32050
C         -1.04660        2.88300       -0.79730
C         -2.68920       -0.19630       -1.70390
C         -3.68160        0.41710       -2.46610
C         -4.70290       -0.32800       -3.02080
C         -4.74270       -1.70380       -2.83240
S         -6.06020       -2.71560       -3.43330
C         -7.46510       -1.56010       -3.42430
C         -3.69920       -2.33400       -2.15820
C         -2.68510       -1.58920       -1.60070
C          0.09490        0.40100        0.58620
S          1.40650        1.25950       -0.11680
C         -3.29230       -0.93240        1.17410
C         -4.32130       -0.12240        0.64750
C         -5.64460       -0.63820        0.37500
N         -6.43950        0.29690       -0.14770
S         -5.63700        1.68850       -0.21620
N         -4.22650        1.17550        0.35110
C         -5.98040       -1.99300        0.58480
C         -5.03730       -2.71580        1.34140
N         -5.21590       -3.92240        1.87590
S         -3.87360       -4.37060        2.62050
N         -2.98660       -3.05890        2.34130
C         -3.72180       -2.18810        1.64770
C         -7.17740       -2.52110        0.03270
C         -7.32800       -3.75930       -0.51710
C         -6.22550       -4.67090       -0.90760
O         -5.04370       -4.59200       -0.63850
C         -6.83550       -5.66400       -1.81200
C         -6.17000       -6.66880       -2.50850
C         -6.97830       -7.40060       -3.34380
C         -8.35040       -7.15160       -3.48080
C         -9.02150       -6.16880       -2.79350
C         -8.21550       -5.41200       -1.93820
C         -8.55610       -4.27630       -1.08960
C         -9.81900       -3.81110       -0.83130
C        -10.12420       -2.76530        0.06590
N        -10.46410       -1.93800        0.78630
C        -10.99520       -4.33890       -1.40190
N        -11.98880       -4.70830       -1.84390
C         -8.52230       -8.22700       -4.52430
C         -8.63760       -7.77680       -6.00240
C         -7.91350       -6.45740       -6.10640
C         -6.61570       -6.69520       -5.97210
C         -6.43900       -8.18100       -5.77620
C         -7.59500       -8.70830       -6.64070
C         -6.99450       -8.50760       -4.36760
H          8.12850        2.43090        3.10820
H          3.69050        4.76510        2.57040
H          4.90680        5.84200        3.31220
H          3.05020        7.19470        2.36120
H          4.54350        7.49010        1.46120
H          3.29360        6.43760        0.78250
H          3.93070        2.36300       -1.51420
H          2.47350        3.24450       -2.02660
H          3.74270        5.36130       -2.13340
H          4.59480        4.15120       -3.10550
H          5.18820        4.57160       -1.49790
H          4.84630       -3.93750        2.03540
H          8.95730       -2.25810        2.91540
H          2.64030        2.15710        3.66180
H          4.58410        3.28360        4.60750
H          6.21580        4.36090        5.99820
H          7.94050        4.36840        5.55900
H          6.72520        4.11870        4.29200
H          6.37820       -0.50520        5.44270
H          4.39720       -1.64290        4.51260
H          1.85810       -0.97160        5.88310
H          0.83340       -3.03310        6.77570
H         -1.68950       -6.80890        4.56500
H         -1.43240       -5.34980        3.57650
H         -0.23940       -6.69050        3.54820
H          0.75810       -4.69370        2.83550
H          1.79380       -2.65500        1.96080
H         -1.02560        0.93480       -3.56420
H          0.00040        2.93750       -4.50460
H          0.46400        4.97940       -5.53190
H          1.95370        4.24410       -4.85240
H          1.88830        5.98590       -5.19750
H         -0.29600        4.88080       -0.70330
H         -1.36610        2.86060        0.23320
H         -3.66960        1.49040       -2.58840
H         -5.47430        0.17450       -3.58240
H         -7.42280       -0.90400       -4.28880
H         -7.45490       -0.99250       -2.49800
H         -8.35850       -2.17470       -3.47950
H         -3.71050       -3.40610       -2.04590
H         -1.89070       -2.08440       -1.06330
H         -7.98800       -1.80630       -0.05160
H         -5.10940       -6.82130       -2.38330
H        -10.07560       -5.98120       -2.91510
H         -9.21700       -9.02780       -4.27900
H         -9.64670       -7.80420       -6.40470
H         -8.40710       -5.50830       -6.20330
H         -5.81230       -5.98330       -5.93020
H         -5.44590       -8.57680       -5.97300
H         -7.45000       -8.51380       -7.70240
H         -7.80530       -9.76570       -6.48580
H         -6.69040       -9.49220       -4.01770
