178

C         -1.86230        7.17150       -2.37120
C         -2.68170        7.31420       -3.61270
C         -3.88990        8.07320       -3.44790
O         -4.19770        8.76290       -2.48330
C         -4.68370        7.82310       -4.67720
C         -5.92980        8.29770       -5.02310
Cl        -6.85680        9.23920       -3.94000
C         -6.43210        7.98240       -6.29450
Cl        -8.00030        8.49930       -6.74900
C         -5.64080        7.27900       -7.19290
Cl        -6.23770        6.96950       -8.77000
C         -4.35920        6.81750       -6.83780
Cl        -3.40160        6.10140       -8.07270
C         -3.91270        7.02180       -5.54340
C         -2.68070        6.62730       -4.82790
C         -1.74950        5.67760       -5.26030
C         -0.48140        5.54400       -4.70310
N          0.59850        5.39630       -4.32000
C         -1.96380        4.62950       -6.16740
N         -2.04230        3.65980       -6.78360
C         -1.97480        5.84500       -1.68090
C         -3.01440        5.01590       -1.35940
S         -4.69160        5.39020       -1.81120
C         -5.13810        6.60800       -0.50950
C         -6.64010        6.79970       -0.51590
C         -2.73890        3.75440       -0.76140
S         -4.21890        2.87380       -0.46120
C         -3.86940        1.36960        0.52480
C         -5.20100        0.67980        0.75610
C         -1.41120        3.34390       -0.50920
C         -0.34880        4.21740       -0.79750
C         -0.66650        5.44200       -1.38960
C          0.21000        6.39460       -1.93680
O         -0.43900        7.39900       -2.49660
C          1.59520        6.13710       -1.84950
C          1.99540        4.92510       -1.17730
C          1.08200        3.93630       -0.57780
O          1.49800        2.96450        0.03500
C          3.35280        4.77410       -1.20000
S          4.14380        6.04460       -2.02950
C          2.66850        6.83500       -2.35220
C         -1.02490        1.98380       -0.11650
C         -0.64080        1.01710       -1.01720
N         -0.70100        1.21230       -2.41110
C         -1.98980        1.51150       -2.89700
C         -2.30230        2.74360       -3.46410
C         -3.58600        3.02370       -3.88190
C         -4.58780        2.07300       -3.73790
S         -6.24940        2.33920       -4.23280
C         -6.20920        3.95140       -5.06140
C         -4.28260        0.83910       -3.15920
C         -3.00120        0.56250       -2.73870
C          0.45490        1.58170       -3.08590
C          0.41180        2.01630       -4.41450
C          1.52920        2.55690       -5.01140
C          2.72670        2.63540       -4.31110
S          4.15100        3.46540       -4.93540
C          3.40480        4.73650       -5.99580
C          2.81950        2.03580       -3.05900
C          1.70220        1.51220       -2.45270
C         -0.12640       -0.12440       -0.35970
S          0.49320       -1.64630       -0.88600
C          0.85790       -2.07180        0.76140
C          0.49910       -1.10370        1.67140
N          0.72060       -1.22270        3.04180
C          1.30290       -0.18720        3.76710
C          1.99870        0.84470        3.13040
C          2.55350        1.86550        3.86810
C          2.44990        1.88030        5.25710
S          3.22690        3.23180        6.08920
C          2.79990        2.97760        7.83470
C          1.76830        0.85400        5.89570
C          1.19360       -0.16150        5.15670
C          0.45030       -2.47730        3.61930
C         -0.81320       -3.03620        3.46090
C         -1.08730       -4.30760        3.92760
C         -0.09480       -5.04010        4.56540
S         -0.30480       -6.70060        5.12420
C         -2.10950       -6.90420        5.18410
C          1.16230       -4.46890        4.75950
C          1.43060       -3.19880        4.30110
C         -0.08430        0.00950        1.01820
S         -0.71850        1.52870        1.53740
C          1.55270       -3.31820        1.09580
C          2.93750       -3.24950        1.34340
S          3.68950       -1.66390        1.11480
C          4.61890       -1.38670        2.67880
C          5.42500       -0.11030        2.55180
C          3.64930       -4.40230        1.67880
S          5.42510       -4.45870        1.80140
C          5.90630       -4.12570        0.05380
C          6.77450       -2.89430       -0.09260
C          2.95620       -5.59300        1.89660
C          1.58000       -5.65220        1.67050
C          0.86930       -4.52790        1.22530
C         -0.58250       -4.60960        0.94170
O         -1.24550       -3.66930        0.54650
C         -1.17270       -5.93500        1.16970
C         -0.42980       -7.06490        1.62840
C          0.99520       -6.97300        1.89350
O          1.69730       -7.90210        2.27300
C         -1.20920       -8.18010        1.76620
S         -2.83990       -7.87830        1.34130
C         -2.49010       -6.24010        0.97410
C          3.64060       -6.81530        2.32820
C          4.43230       -7.52290        1.48170
C          4.47450       -7.23230        0.03510
O          3.84180       -6.38340       -0.55750
C          5.44000       -8.19990       -0.52820
C          5.89600       -9.05730        0.49260
C          6.80670      -10.06000        0.19670
C          7.25160      -10.19050       -1.11000
C          6.80690       -9.33810       -2.11010
Br         7.46160       -9.56080       -3.86860
C          5.88760       -8.32060       -1.83410
Cl         5.34040       -7.25670       -3.06060
C          5.27420       -8.66830        1.75670
C          5.46730       -9.27080        2.96870
C          6.28400      -10.40320        3.17210
N          6.93120      -11.32440        3.39470
C          4.88420       -8.83410        4.17840
N          4.46640       -8.52040        5.20010
H         -2.24060        7.97810       -1.71440
H         -4.62860        7.54220       -0.74410
H         -4.78500        6.19970        0.43670
H         -7.15070        5.85300       -0.35370
H         -6.92040        7.49440        0.27250
H         -6.95940        7.21190       -1.46980
H         -3.19760        0.72990       -0.04160
H         -3.41120        1.67210        1.46430
H         -5.66410        0.42420       -0.19400
H         -5.04600       -0.23190        1.32830
H         -5.87890        1.32810        1.30600
H          3.91650        3.96700       -0.77650
H          2.64250        7.75300       -2.90400
H         -1.53220        3.49520       -3.55250
H         -3.80210        3.99400       -4.29520
H         -7.21190        4.10790       -5.44660
H         -5.49770        3.92280       -5.88160
H         -5.96180        4.73030       -4.34550
H         -5.06500        0.10340       -3.05320
H         -2.76320       -0.39620       -2.30100
H         -0.50360        1.95670       -4.98200
H          1.45130        2.92220       -6.02250
H          2.52380        5.13250       -5.49670
H          4.15660        5.51010       -6.11790
H          3.15010        4.31630       -6.96460
H          3.77240        2.00820       -2.55390
H          1.79430        1.09140       -1.46570
H          2.11450        0.84850        2.05820
H          3.08030        2.66550        3.37130
H          3.22830        3.82190        8.36570
H          3.24060        2.05350        8.19740
H          1.72050        2.97530        7.95500
H          1.66670        0.83260        6.96870
H          0.65120       -0.94530        5.66450
H         -1.57890       -2.47520        2.94670
H         -2.07640       -4.71390        3.78830
H         -2.27860       -7.84760        5.69340
H         -2.52520       -6.95070        4.18160
H         -2.54840       -6.09150        5.75430
H          1.92420       -5.03890        5.26860
H          2.40690       -2.76530        4.45870
H          3.87190       -1.29310        3.46620
H          5.25860       -2.24700        2.86450
H          6.18820       -0.20680        1.78320
H          5.91240        0.10250        3.50050
H          4.77860        0.72670        2.30060
H          4.98210       -4.05190       -0.51550
H          6.44630       -5.02040       -0.25840
H          7.12960       -2.82800       -1.11900
H          6.21110       -1.99410        0.13460
H          7.63530       -2.95230        0.57010
H         -0.89790       -9.15000        2.10050
H         -3.26260       -5.58040        0.63100
H          3.62660       -7.02160        3.39000
H          7.17350      -10.73390        0.95280
H          7.95960      -10.96540       -1.36090
