
  xtb     02042204013D
 energy: -298.854127184818 gnorm: 0.000706461389 xtb: 6.4.1 (unknown)
153166  0     0  0            999 V2000
   -3.6375   -4.9848   -3.0647 C   0  0  0  0  0  0  0  0  0  0  0  0
   -4.7211   -4.6074   -3.7595 C   0  0  0  0  0  0  0  0  0  0  0  0
   -5.6606   -5.6156   -4.3366 C   0  0  0  0  0  0  0  0  0  0  0  0
   -5.3975   -6.7265   -4.7098 O   0  0  0  0  0  0  0  0  0  0  0  0
   -6.9837   -4.9514   -4.2530 C   0  0  0  0  0  0  0  0  0  0  0  0
   -8.2424   -5.5068   -4.4113 C   0  0  0  0  0  0  0  0  0  0  0  0
   -8.4403   -7.1159   -4.9355 Cl  0  0  0  0  0  0  0  0  0  0  0  0
   -9.3612   -4.7149   -4.1120 C   0  0  0  0  0  0  0  0  0  0  0  0
  -10.9332   -5.3555   -4.3085 Cl  0  0  0  0  0  0  0  0  0  0  0  0
   -9.1968   -3.4199   -3.6165 C   0  0  0  0  0  0  0  0  0  0  0  0
  -10.5742   -2.5114   -3.1665 Cl  0  0  0  0  0  0  0  0  0  0  0  0
   -7.9217   -2.8581   -3.4677 C   0  0  0  0  0  0  0  0  0  0  0  0
   -7.7707   -1.3191   -2.7232 Cl  0  0  0  0  0  0  0  0  0  0  0  0
   -6.8156   -3.6109   -3.8391 C   0  0  0  0  0  0  0  0  0  0  0  0
   -5.3939   -3.3142   -3.8026 C   0  0  0  0  0  0  0  0  0  0  0  0
   -4.7672   -2.1202   -4.0202 C   0  0  0  0  0  0  0  0  0  0  0  0
   -3.3630   -2.0286   -4.1216 C   0  0  0  0  0  0  0  0  0  0  0  0
   -2.2274   -1.9036   -4.2342 N   0  0  0  0  0  0  0  0  0  0  0  0
   -5.3904   -0.8969   -4.3491 C   0  0  0  0  0  0  0  0  0  0  0  0
   -5.8008    0.1221   -4.6793 N   0  0  0  0  0  0  0  0  0  0  0  0
   -2.8552   -4.1292   -2.1728 C   0  0  0  0  0  0  0  0  0  0  0  0
   -1.4737   -4.0266   -2.4019 C   0  0  0  0  0  0  0  0  0  0  0  0
   -0.8374   -4.9145   -3.7872 S   0  0  0  0  0  0  0  0  0  0  0  0
    0.2691   -3.7032   -4.6185 C   0  0  0  0  0  0  0  0  0  0  0  0
   -0.0798   -3.6605   -6.0914 C   0  0  0  0  0  0  0  0  0  0  0  0
   -0.6915   -3.2321   -1.5637 C   0  0  0  0  0  0  0  0  0  0  0  0
    1.0836   -3.2691   -1.6114 S   0  0  0  0  0  0  0  0  0  0  0  0
    1.3672   -5.0360   -1.2225 C   0  0  0  0  0  0  0  0  0  0  0  0
    0.8627   -5.3930    0.1605 C   0  0  0  0  0  0  0  0  0  0  0  0
   -1.3071   -2.4019   -0.6205 C   0  0  0  0  0  0  0  0  0  0  0  0
   -2.6823   -2.4998   -0.3798 C   0  0  0  0  0  0  0  0  0  0  0  0
   -3.4528   -3.4128   -1.1281 C   0  0  0  0  0  0  0  0  0  0  0  0
   -4.8768   -3.6754   -0.7904 C   0  0  0  0  0  0  0  0  0  0  0  0
   -5.4691   -4.6822   -1.1353 O   0  0  0  0  0  0  0  0  0  0  0  0
   -5.4977   -2.6524    0.0449 C   0  0  0  0  0  0  0  0  0  0  0  0
   -4.7234   -1.7138    0.7838 C   0  0  0  0  0  0  0  0  0  0  0  0
   -3.2652   -1.6755    0.7074 C   0  0  0  0  0  0  0  0  0  0  0  0
   -2.5885   -1.0249    1.4836 O   0  0  0  0  0  0  0  0  0  0  0  0
   -5.5026   -0.9222    1.5803 C   0  0  0  0  0  0  0  0  0  0  0  0
   -7.1676   -1.2743    1.4084 S   0  0  0  0  0  0  0  0  0  0  0  0
   -6.8362   -2.5313    0.2976 C   0  0  0  0  0  0  0  0  0  0  0  0
   -0.4765   -1.4248    0.0877 C   0  0  0  0  0  0  0  0  0  0  0  0
   -0.3125   -0.1145   -0.2881 C   0  0  0  0  0  0  0  0  0  0  0  0
   -1.0573    0.4799   -1.3284 N   0  0  0  0  0  0  0  0  0  0  0  0
   -0.6019    0.4046   -2.6346 C   0  0  0  0  0  0  0  0  0  0  0  0
    0.6147   -0.2208   -2.9124 C   0  0  0  0  0  0  0  0  0  0  0  0
    1.0883   -0.3208   -4.2040 C   0  0  0  0  0  0  0  0  0  0  0  0
    0.3621    0.2186   -5.2552 C   0  0  0  0  0  0  0  0  0  0  0  0
    0.8546    0.0853   -6.9475 S   0  0  0  0  0  0  0  0  0  0  0  0
    2.6438   -0.2213   -6.8329 C   0  0  0  0  0  0  0  0  0  0  0  0
   -0.8264    0.8901   -4.9836 C   0  0  0  0  0  0  0  0  0  0  0  0
   -1.2976    0.9948   -3.6947 C   0  0  0  0  0  0  0  0  0  0  0  0
   -2.3551    0.8857   -0.9698 C   0  0  0  0  0  0  0  0  0  0  0  0
   -2.5319    1.7114    0.1360 C   0  0  0  0  0  0  0  0  0  0  0  0
   -3.7959    2.1071    0.5287 C   0  0  0  0  0  0  0  0  0  0  0  0
   -4.9094    1.6861   -0.1846 C   0  0  0  0  0  0  0  0  0  0  0  0
   -6.5742    2.1227    0.2137 S   0  0  0  0  0  0  0  0  0  0  0  0
   -6.3975    3.3763    1.5154 C   0  0  0  0  0  0  0  0  0  0  0  0
   -4.7408    0.8398   -1.2779 C   0  0  0  0  0  0  0  0  0  0  0  0
   -3.4811    0.4358   -1.6580 C   0  0  0  0  0  0  0  0  0  0  0  0
    0.6401    0.5388    0.5274 C   0  0  0  0  0  0  0  0  0  0  0  0
    1.3425    2.1147    0.5388 S   0  0  0  0  0  0  0  0  0  0  0  0
    2.3222    1.6746    1.9295 C   0  0  0  0  0  0  0  0  0  0  0  0
    2.1615    0.3437    2.3121 C   0  0  0  0  0  0  0  0  0  0  0  0
    2.8951   -0.3269    3.2671 N   0  0  0  0  0  0  0  0  0  0  0  0
    4.2666   -0.0711    3.4336 C   0  0  0  0  0  0  0  0  0  0  0  0
    4.8433   -0.1416    4.7030 C   0  0  0  0  0  0  0  0  0  0  0  0
    6.1697    0.1815    4.8788 C   0  0  0  0  0  0  0  0  0  0  0  0
    6.9508    0.5827    3.7953 C   0  0  0  0  0  0  0  0  0  0  0  0
    8.6137    1.0405    4.1470 S   0  0  0  0  0  0  0  0  0  0  0  0
    9.2329    1.6729    2.5634 C   0  0  0  0  0  0  0  0  0  0  0  0
    6.3928    0.6044    2.5231 C   0  0  0  0  0  0  0  0  0  0  0  0
    5.0632    0.2807    2.3483 C   0  0  0  0  0  0  0  0  0  0  0  0
    2.2836   -1.3770    3.9680 C   0  0  0  0  0  0  0  0  0  0  0  0
    2.9721   -2.5620    4.2292 C   0  0  0  0  0  0  0  0  0  0  0  0
    2.3498   -3.5869    4.9039 C   0  0  0  0  0  0  0  0  0  0  0  0
    1.0275   -3.4584    5.3294 C   0  0  0  0  0  0  0  0  0  0  0  0
    0.3363   -4.8465    6.1687 S   0  0  0  0  0  0  0  0  0  0  0  0
   -1.3995   -4.3825    6.4260 C   0  0  0  0  0  0  0  0  0  0  0  0
    0.3438   -2.2757    5.0827 C   0  0  0  0  0  0  0  0  0  0  0  0
    0.9699   -1.2445    4.4110 C   0  0  0  0  0  0  0  0  0  0  0  0
    1.1756   -0.2810    1.5100 C   0  0  0  0  0  0  0  0  0  0  0  0
    0.5145   -1.8780    1.4402 S   0  0  0  0  0  0  0  0  0  0  0  0
    3.1549    2.7091    2.4485 C   0  0  0  0  0  0  0  0  0  0  0  0
    3.6695    2.7579    3.7622 C   0  0  0  0  0  0  0  0  0  0  0  0
    4.5223    3.7858    4.0651 C   0  0  0  0  0  0  0  0  0  0  0  0
    4.7988    4.7371    3.0615 C   0  0  0  0  0  0  0  0  0  0  0  0
    4.1600    4.6862    1.8838 N   0  0  0  0  0  0  0  0  0  0  0  0
    3.3782    3.7208    1.5941 N   0  0  0  0  0  0  0  0  0  0  0  0
    5.6689    5.8513    3.3050 C   0  0  0  0  0  0  0  0  0  0  0  0
    6.1139    6.7549    2.4002 C   0  0  0  0  0  0  0  0  0  0  0  0
    6.6730    8.0585    2.8471 C   0  0  0  0  0  0  0  0  0  0  0  0
    7.0714    8.3365    3.9509 O   0  0  0  0  0  0  0  0  0  0  0  0
    6.5564    8.9420    1.6617 C   0  0  0  0  0  0  0  0  0  0  0  0
    6.7659   10.3082    1.5737 C   0  0  0  0  0  0  0  0  0  0  0  0
    7.3663   11.2012    2.8973 Cl  0  0  0  0  0  0  0  0  0  0  0  0
    6.4623   10.9498    0.3640 C   0  0  0  0  0  0  0  0  0  0  0  0
    6.7258   12.6309    0.2037 Cl  0  0  0  0  0  0  0  0  0  0  0  0
    5.9146   10.2283   -0.6970 C   0  0  0  0  0  0  0  0  0  0  0  0
    5.4764   11.0489   -2.1307 Cl  0  0  0  0  0  0  0  0  0  0  0  0
    5.7070    8.8427   -0.6054 C   0  0  0  0  0  0  0  0  0  0  0  0
    4.9032    8.0353   -1.8856 Cl  0  0  0  0  0  0  0  0  0  0  0  0
    6.0814    8.1931    0.5630 C   0  0  0  0  0  0  0  0  0  0  0  0
    6.0472    6.7858    0.9476 C   0  0  0  0  0  0  0  0  0  0  0  0
    6.2691    5.7045    0.1450 C   0  0  0  0  0  0  0  0  0  0  0  0
    6.5371    5.7240   -1.2405 C   0  0  0  0  0  0  0  0  0  0  0  0
    6.8383    5.6392   -2.3442 N   0  0  0  0  0  0  0  0  0  0  0  0
    6.4831    4.4126    0.6740 C   0  0  0  0  0  0  0  0  0  0  0  0
    6.7580    3.3617    1.0453 N   0  0  0  0  0  0  0  0  0  0  0  0
   -3.3282   -6.0201   -3.1446 H   0  0  0  0  0  0  0  0  0  0  0  0
    1.2979   -4.0225   -4.4544 H   0  0  0  0  0  0  0  0  0  0  0  0
    0.0910   -2.7371   -4.1540 H   0  0  0  0  0  0  0  0  0  0  0  0
    0.0346   -4.6394   -6.5518 H   0  0  0  0  0  0  0  0  0  0  0  0
    0.5734   -2.9545   -6.5988 H   0  0  0  0  0  0  0  0  0  0  0  0
   -1.1061   -3.3256   -6.2209 H   0  0  0  0  0  0  0  0  0  0  0  0
    2.4492   -5.1417   -1.2893 H   0  0  0  0  0  0  0  0  0  0  0  0
    0.8952   -5.6410   -1.9956 H   0  0  0  0  0  0  0  0  0  0  0  0
   -0.2186   -5.2794    0.2194 H   0  0  0  0  0  0  0  0  0  0  0  0
    1.3182   -4.7537    0.9141 H   0  0  0  0  0  0  0  0  0  0  0  0
    1.1115   -6.4284    0.3830 H   0  0  0  0  0  0  0  0  0  0  0  0
   -5.1686   -0.1484    2.2420 H   0  0  0  0  0  0  0  0  0  0  0  0
   -7.6300   -3.1176   -0.1214 H   0  0  0  0  0  0  0  0  0  0  0  0
    1.2001   -0.6436   -2.1107 H   0  0  0  0  0  0  0  0  0  0  0  0
    2.0238   -0.8300   -4.3726 H   0  0  0  0  0  0  0  0  0  0  0  0
    2.8372   -1.2357   -6.4953 H   0  0  0  0  0  0  0  0  0  0  0  0
    3.0922    0.5059   -6.1632 H   0  0  0  0  0  0  0  0  0  0  0  0
    3.0314   -0.0906   -7.8382 H   0  0  0  0  0  0  0  0  0  0  0  0
   -1.3795    1.3338   -5.7970 H   0  0  0  0  0  0  0  0  0  0  0  0
   -2.2051    1.5472   -3.5085 H   0  0  0  0  0  0  0  0  0  0  0  0
   -1.6713    2.0519    0.6902 H   0  0  0  0  0  0  0  0  0  0  0  0
   -3.8953    2.7501    1.3884 H   0  0  0  0  0  0  0  0  0  0  0  0
   -5.7802    4.1939    1.1558 H   0  0  0  0  0  0  0  0  0  0  0  0
   -7.4034    3.7321    1.7147 H   0  0  0  0  0  0  0  0  0  0  0  0
   -5.9808    2.9323    2.4148 H   0  0  0  0  0  0  0  0  0  0  0  0
   -5.6102    0.5047   -1.8228 H   0  0  0  0  0  0  0  0  0  0  0  0
   -3.3562   -0.2342   -2.4933 H   0  0  0  0  0  0  0  0  0  0  0  0
    4.2392   -0.4335    5.5498 H   0  0  0  0  0  0  0  0  0  0  0  0
    6.6139    0.1444    5.8616 H   0  0  0  0  0  0  0  0  0  0  0  0
    9.3570    0.8538    1.8607 H   0  0  0  0  0  0  0  0  0  0  0  0
    8.5520    2.4257    2.1769 H   0  0  0  0  0  0  0  0  0  0  0  0
   10.1983    2.1183    2.7835 H   0  0  0  0  0  0  0  0  0  0  0  0
    6.9742    0.8819    1.6615 H   0  0  0  0  0  0  0  0  0  0  0  0
    4.6392    0.3070    1.3558 H   0  0  0  0  0  0  0  0  0  0  0  0
    3.9908   -2.6740    3.8901 H   0  0  0  0  0  0  0  0  0  0  0  0
    2.8760   -4.5079    5.1018 H   0  0  0  0  0  0  0  0  0  0  0  0
   -1.8671   -4.1594    5.4716 H   0  0  0  0  0  0  0  0  0  0  0  0
   -1.4645   -3.5385    7.1067 H   0  0  0  0  0  0  0  0  0  0  0  0
   -1.8703   -5.2520    6.8742 H   0  0  0  0  0  0  0  0  0  0  0  0
   -0.6739   -2.1381    5.4090 H   0  0  0  0  0  0  0  0  0  0  0  0
    0.4328   -0.3254    4.2281 H   0  0  0  0  0  0  0  0  0  0  0  0
    3.3703    2.0366    4.5039 H   0  0  0  0  0  0  0  0  0  0  0  0
    4.9655    3.8824    5.0446 H   0  0  0  0  0  0  0  0  0  0  0  0
    5.9213    6.0475    4.3410 H   0  0  0  0  0  0  0  0  0  0  0  0
  1  2  2  0  0  0  0
  2  3  1  0  0  0  0
  3  4  2  0  0  0  0
  3  5  1  0  0  0  0
  5  6  2  0  0  0  0
  6  7  1  0  0  0  0
  6  8  1  0  0  0  0
  8  9  1  0  0  0  0
  8 10  2  0  0  0  0
 10 11  1  0  0  0  0
 10 12  1  0  0  0  0
 12 13  1  0  0  0  0
 12 14  2  0  0  0  0
 14 15  1  0  0  0  0
 15 16  2  0  0  0  0
 16 17  1  0  0  0  0
 17 18  3  0  0  0  0
 16 19  1  0  0  0  0
 19 20  3  0  0  0  0
  1 21  1  0  0  0  0
 21 22  2  0  0  0  0
 22 23  1  0  0  0  0
 23 24  1  0  0  0  0
 24 25  1  0  0  0  0
 22 26  1  0  0  0  0
 26 27  1  0  0  0  0
 27 28  1  0  0  0  0
 28 29  1  0  0  0  0
 26 30  2  0  0  0  0
 30 31  1  0  0  0  0
 31 32  2  0  0  0  0
 32 33  1  0  0  0  0
 33 34  2  0  0  0  0
 33 35  1  0  0  0  0
 35 36  1  0  0  0  0
 36 37  1  0  0  0  0
 37 38  2  0  0  0  0
 36 39  2  0  0  0  0
 39 40  1  0  0  0  0
 40 41  1  0  0  0  0
 30 42  1  0  0  0  0
 42 43  2  0  0  0  0
 43 44  1  0  0  0  0
 44 45  1  0  0  0  0
 45 46  2  0  0  0  0
 46 47  1  0  0  0  0
 47 48  2  0  0  0  0
 48 49  1  0  0  0  0
 49 50  1  0  0  0  0
 48 51  1  0  0  0  0
 51 52  2  0  0  0  0
 44 53  1  0  0  0  0
 53 54  2  0  0  0  0
 54 55  1  0  0  0  0
 55 56  2  0  0  0  0
 56 57  1  0  0  0  0
 57 58  1  0  0  0  0
 56 59  1  0  0  0  0
 59 60  2  0  0  0  0
 43 61  1  0  0  0  0
 61 62  1  0  0  0  0
 62 63  1  0  0  0  0
 63 64  2  0  0  0  0
 64 65  1  0  0  0  0
 65 66  1  0  0  0  0
 66 67  2  0  0  0  0
 67 68  1  0  0  0  0
 68 69  2  0  0  0  0
 69 70  1  0  0  0  0
 70 71  1  0  0  0  0
 69 72  1  0  0  0  0
 72 73  2  0  0  0  0
 65 74  1  0  0  0  0
 74 75  2  0  0  0  0
 75 76  1  0  0  0  0
 76 77  2  0  0  0  0
 77 78  1  0  0  0  0
 78 79  1  0  0  0  0
 77 80  1  0  0  0  0
 80 81  2  0  0  0  0
 64 82  1  0  0  0  0
 82 83  1  0  0  0  0
 63 84  1  0  0  0  0
 84 85  2  0  0  0  0
 85 86  1  0  0  0  0
 86 87  2  0  0  0  0
 87 88  1  0  0  0  0
 88 89  2  0  0  0  0
 87 90  1  0  0  0  0
 90 91  2  0  0  0  0
 91 92  1  0  0  0  0
 92 93  2  0  0  0  0
 92 94  1  0  0  0  0
 94 95  2  0  0  0  0
 95 96  1  0  0  0  0
 95 97  1  0  0  0  0
 97 98  1  0  0  0  0
 97 99  2  0  0  0  0
 99100  1  0  0  0  0
 99101  1  0  0  0  0
101102  1  0  0  0  0
101103  2  0  0  0  0
103104  1  0  0  0  0
104105  2  0  0  0  0
105106  1  0  0  0  0
106107  3  0  0  0  0
105108  1  0  0  0  0
108109  3  0  0  0  0
 15  2  1  0  0  0  0
 32 21  1  0  0  0  0
 41 35  2  0  0  0  0
 83 42  1  0  0  0  0
 89 84  1  0  0  0  0
104 91  1  0  0  0  0
 14  5  1  0  0  0  0
 37 31  1  0  0  0  0
 52 45  1  0  0  0  0
 60 53  1  0  0  0  0
 82 61  2  0  0  0  0
103 94  1  0  0  0  0
 73 66  1  0  0  0  0
 81 74  1  0  0  0  0
  1110  1  0  0  0  0
 24111  1  0  0  0  0
 24112  1  0  0  0  0
 25113  1  0  0  0  0
 25114  1  0  0  0  0
 25115  1  0  0  0  0
 28116  1  0  0  0  0
 28117  1  0  0  0  0
 29118  1  0  0  0  0
 29119  1  0  0  0  0
 29120  1  0  0  0  0
 39121  1  0  0  0  0
 41122  1  0  0  0  0
 46123  1  0  0  0  0
 47124  1  0  0  0  0
 50125  1  0  0  0  0
 50126  1  0  0  0  0
 50127  1  0  0  0  0
 51128  1  0  0  0  0
 52129  1  0  0  0  0
 54130  1  0  0  0  0
 55131  1  0  0  0  0
 58132  1  0  0  0  0
 58133  1  0  0  0  0
 58134  1  0  0  0  0
 59135  1  0  0  0  0
 60136  1  0  0  0  0
 67137  1  0  0  0  0
 68138  1  0  0  0  0
 71139  1  0  0  0  0
 71140  1  0  0  0  0
 71141  1  0  0  0  0
 72142  1  0  0  0  0
 73143  1  0  0  0  0
 75144  1  0  0  0  0
 76145  1  0  0  0  0
 79146  1  0  0  0  0
 79147  1  0  0  0  0
 79148  1  0  0  0  0
 80149  1  0  0  0  0
 81150  1  0  0  0  0
 85151  1  0  0  0  0
 86152  1  0  0  0  0
 90153  1  0  0  0  0
M  END
