225

C          7.47800       -8.55260        5.07440
C          7.24510       -9.89430        5.20260
C          5.95020      -10.57670        5.06570
O          4.90010      -10.11310        4.67780
C          6.17710      -11.96100        5.54410
C          5.25050      -12.97300        5.72300
Cl         3.62700      -12.79070        5.23210
C          5.67830      -14.16160        6.33200
Cl         4.58010      -15.45430        6.54310
C          6.98440      -14.27360        6.80640
Cl         7.45300      -15.69190        7.63910
C          7.91790      -13.23960        6.62710
Cl         9.44510      -13.37860        7.39500
C          7.52710      -12.10690        5.92410
C          8.24520      -10.89720        5.53090
C          9.58840      -10.78920        5.28360
C         10.22940       -9.60380        4.85850
N         10.82800       -8.68360        4.52160
C         10.51000      -11.85810        5.23410
N         11.31420      -12.65990        5.06920
C          6.61790       -7.50130        4.70390
C          7.05930       -6.18980        4.64930
C          6.08970       -5.27730        4.21240
C          6.24310       -3.88400        4.02520
C          7.48380       -3.19700        4.40810
C          8.14700       -2.35490        3.52170
C          9.31880       -1.72820        3.91010
C          9.82570       -1.91650        5.17940
C          9.15830       -2.74420        6.08040
S          9.90300       -2.93260        7.67210
C          8.57030       -3.58740        8.73660
C          7.46620       -2.57310        8.96460
C          7.99690       -3.38920        5.68880
C          5.16710       -3.22100        3.47170
C          3.93840       -3.86560        3.15960
C          3.76770       -5.24480        3.38400
C          2.51980       -5.90310        2.97460
C          2.54990       -7.09830        2.25490
C          1.38370       -7.61930        1.73030
C          0.17530       -6.95840        1.87400
C          0.12840       -5.78790        2.61670
S         -1.31800       -4.79450        2.84620
C         -2.60090       -5.55460        1.79320
C         -3.29540       -6.72330        2.46670
C          1.29090       -5.29320        3.19830
C          4.86660       -5.92910        3.88760
S          4.94600       -7.63980        4.20090
C          3.03400       -2.97000        2.54900
C          3.52230       -1.70700        2.37570
S          5.12700       -1.52320        3.04890
C          2.86460       -0.69250        1.61900
C          2.04620       -0.93440        0.52200
N          1.84860       -2.15290       -0.11360
C          2.89270       -3.07790       -0.22410
C          2.64690       -4.45110       -0.17550
C          3.69330       -5.34310       -0.12590
C          5.00880       -4.89310       -0.07530
S          6.25510       -6.11490        0.19340
C          7.68980       -5.13850        0.72400
C          5.26330       -3.53550       -0.21810
C          4.21480       -2.64330       -0.31370
C          0.53170       -2.49270       -0.46180
C          0.26120       -3.22360       -1.61780
C         -1.03770       -3.54550       -1.94360
C         -2.09410       -3.12590       -1.13840
S         -3.73240       -3.57280       -1.63590
C         -4.73360       -2.21940       -0.95370
C         -1.82930       -2.40110        0.01470
C         -0.52700       -2.09540        0.35200
C          1.43470        0.26310        0.08580
S          0.27650        0.63550       -1.13530
C          0.29690        2.33060       -0.67000
C          1.19770        2.59040        0.34950
N          1.40030        3.81670        0.97780
C          1.41060        3.79440        2.38260
C          2.36790        4.48490        3.11920
C          2.37300        4.42770        4.49920
C          1.42630        3.66520        5.16930
S          1.33900        3.50600        6.92500
C          2.72250        4.51460        7.52810
C          0.46870        2.96730        4.43590
C          0.45690        3.03390        3.06140
C          1.89430        4.92560        0.28600
C          2.68350        4.77670       -0.85240
C          3.24440        5.87840       -1.47040
C          3.03470        7.14800       -0.95150
S          3.81470        8.60160       -1.57910
C          5.20160        7.94270       -2.54850
C          2.18320        7.31000        0.13940
C          1.61520        6.21450        0.74810
C          1.82330        1.39330        0.78460
S          2.97400        1.01300        2.02100
C         -0.69450        3.16660       -1.27080
C         -0.70360        4.49250       -1.57910
C         -1.92990        4.93290       -2.14160
C         -2.25590        6.22410       -2.58050
C         -1.24500        7.29080       -2.62310
C         -1.43470        8.49930       -1.96100
C         -0.46840        9.48440       -2.04440
C          0.67140        9.29950       -2.80660
C          0.84550        8.10800       -3.49690
S          2.23590        7.76310       -4.53310
C          2.83240        9.41470       -5.03860
C          1.81140       10.15850       -5.87620
C         -0.10030        7.09890       -3.38380
C         -3.54640        6.41950       -3.04390
C         -4.51120        5.38020       -3.09600
C         -4.17880        4.07920       -2.68250
C         -5.14090        2.97200       -2.75980
C         -6.39570        3.07010       -2.16830
C         -7.27200        1.99960       -2.23630
C         -6.90680        0.83650       -2.88240
C         -5.65120        0.73170       -3.48030
S         -5.29560       -0.80110       -4.27700
C         -3.63100       -0.60020       -4.99760
C         -2.52200       -0.78680       -3.97940
C         -4.77490        1.80280       -3.41950
C         -2.88680        3.89120       -2.22920
S         -2.22170        2.38510       -1.66500
C         -5.70790        5.80090       -3.70960
C         -5.68420        7.10330       -4.13370
S         -4.17520        7.89740       -3.71450
C         -6.70360        7.82130       -4.81180
C         -7.72530        7.31310       -5.54790
C         -8.91200        8.16510       -5.84380
O         -8.98510        9.36680       -5.72640
C         -9.97550        7.22570       -6.24600
C        -11.31310        7.52480       -6.50080
C        -12.07910        6.43210       -6.82850
C        -11.55860        5.13190       -6.89560
C        -10.24170        4.82170       -6.65530
C         -9.44330        5.92130       -6.32650
C         -8.00950        5.98390       -6.05520
C         -7.09450        5.04360       -6.44880
C         -5.69660        5.23200       -6.42580
N         -4.55450        5.32960       -6.48860
C         -7.42690        3.78900       -6.99980
N         -7.63110        2.74220       -7.42450
C        -12.89100        4.53080       -7.26660
C        -13.65610        3.79780       -6.14450
C        -15.07990        3.74920       -6.65010
C        -15.57270        4.97950       -6.58710
C        -14.49030        5.88080       -6.03790
C        -13.78940        4.90160       -5.08730
C        -13.47140        5.97960       -7.19340
H          8.48060       -8.21230        5.30610
H          8.07170       -5.91500        4.88990
H          7.75860       -2.20440        2.52600
H          9.83800       -1.08440        3.21650
H         10.73620       -1.42860        5.49090
H          8.19970       -4.51600        8.30320
H          9.08180       -3.82220        9.67010
H          6.98830       -2.29720        8.02670
H          7.87290       -1.67290        9.41940
H          6.71200       -2.99000        9.62960
H          7.45900       -4.03380        6.36610
H          3.48700       -7.60000        2.07660
H          1.41470       -8.54380        1.17300
H         -0.70690       -7.36720        1.40920
H         -2.13940       -5.82600        0.84440
H         -3.30550       -4.74350        1.61110
H         -4.05600       -7.13070        1.80330
H         -3.77390       -6.39470        3.38650
H         -2.58970       -7.51270        2.71560
H          1.22030       -4.42010        3.82920
H          2.04890       -3.24740        2.22890
H          1.63390       -4.82050       -0.13170
H          3.49770       -6.40170       -0.08110
H          8.10490       -4.58710       -0.11460
H          8.41910       -5.85660        1.08600
H          7.39500       -4.47360        1.53040
H          6.27340       -3.15950       -0.25190
H          4.42590       -1.58960       -0.42000
H          1.07370       -3.52860       -2.25980
H         -1.24980       -4.11550       -2.83530
H         -4.93040       -2.38290        0.10210
H         -4.22010       -1.27700       -1.11610
H         -5.66480       -2.23160       -1.51120
H         -2.62790       -2.08500        0.66660
H         -0.32810       -1.55600        1.26640
H          3.12200        5.06480        2.60870
H          3.13160        4.97390        5.03580
H          3.66170        4.11980        7.15150
H          2.58240        5.55150        7.23690
H          2.69470        4.42950        8.61000
H         -0.26690        2.37710        4.96040
H         -0.29390        2.49630        2.50090
H          2.87380        3.78890       -1.24580
H          3.85230        5.73130       -2.34800
H          5.82630        8.79670       -2.79110
H          5.75900        7.23400       -1.94360
H          4.83290        7.48190       -3.46080
H          1.98490        8.30410        0.50940
H          0.96540        6.34290        1.60050
H          0.13570        5.14600       -1.43390
H         -2.32690        8.65560       -1.37360
H         -0.60220       10.41510       -1.51320
H          1.41350       10.08010       -2.84660
H          3.11840        9.96580       -4.14310
H          3.73020        9.20030       -5.61890
H          1.56280        9.58450       -6.76610
H          2.21670       11.12090       -6.18300
H          0.89680       10.33050       -5.31190
H          0.04450        6.17320       -3.92080
H         -6.67010        3.96940       -1.63680
H         -8.24640        2.07290       -1.77630
H         -7.58540       -0.00090       -2.93800
H         -3.58540       -1.37850       -5.75970
H         -3.59380        0.37040       -5.49090
H         -1.55330       -0.65870       -4.45860
H         -2.56800       -1.78730       -3.55900
H         -2.59820       -0.06860       -3.16560
H         -3.80920        1.76550       -3.89610
H         -6.56320        5.15840       -3.82100
H         -6.70430        8.89950       -4.68980
H        -11.67490        8.53920       -6.44060
H         -9.85230        3.81810       -6.70490
H        -12.92260        4.00360       -8.21800
H        -13.21460        2.85500       -5.83340
H        -15.54760        2.86470       -7.04090
H        -16.53450        5.32820       -6.91460
H        -14.80930        6.83540       -5.62840
H        -12.83840        5.26270       -4.70000
H        -14.43000        4.60290       -4.25910
H        -13.89250        6.41840       -8.09590
