
  xtb     02042203443D
 energy: -243.329645133112 gnorm: 0.000718841394 xtb: 6.4.1 (unknown)
128138  0     0  0            999 V2000
   -0.5631   -1.2414    7.2941 C   0  0  0  0  0  0  0  0  0  0  0  0
    0.2608   -0.5220    8.0904 C   0  0  0  0  0  0  0  0  0  0  0  0
    0.2388   -0.7174    9.5688 C   0  0  0  0  0  0  0  0  0  0  0  0
   -0.2791   -1.6253   10.1669 O   0  0  0  0  0  0  0  0  0  0  0  0
    0.9239    0.4756   10.1209 C   0  0  0  0  0  0  0  0  0  0  0  0
    1.0283    0.8876   11.4387 C   0  0  0  0  0  0  0  0  0  0  0  0
    0.4544   -0.0806   12.7196 Cl  0  0  0  0  0  0  0  0  0  0  0  0
    1.6145    2.1362   11.6982 C   0  0  0  0  0  0  0  0  0  0  0  0
    1.7891    2.6736   13.3110 Cl  0  0  0  0  0  0  0  0  0  0  0  0
    2.0198    2.9563   10.6449 C   0  0  0  0  0  0  0  0  0  0  0  0
    2.6455    4.5107   10.9841 Cl  0  0  0  0  0  0  0  0  0  0  0  0
    1.9122    2.5335    9.3105 C   0  0  0  0  0  0  0  0  0  0  0  0
    2.2695    3.6448    8.0546 Cl  0  0  0  0  0  0  0  0  0  0  0  0
    1.4175    1.2611    9.0580 C   0  0  0  0  0  0  0  0  0  0  0  0
    1.2279    0.5262    7.8108 C   0  0  0  0  0  0  0  0  0  0  0  0
    2.0503    0.5794    6.7172 C   0  0  0  0  0  0  0  0  0  0  0  0
    1.9290   -0.2514    5.5822 C   0  0  0  0  0  0  0  0  0  0  0  0
    1.9215   -0.8926    4.6302 N   0  0  0  0  0  0  0  0  0  0  0  0
    3.2423    1.3282    6.6388 C   0  0  0  0  0  0  0  0  0  0  0  0
    4.2664    1.8313    6.5132 N   0  0  0  0  0  0  0  0  0  0  0  0
   -0.8776   -0.9778    5.9168 C   0  0  0  0  0  0  0  0  0  0  0  0
   -0.8498    0.3108    5.3668 C   0  0  0  0  0  0  0  0  0  0  0  0
   -1.1079    0.5265    4.0363 C   0  0  0  0  0  0  0  0  0  0  0  0
   -1.3985   -0.5298    3.1693 C   0  0  0  0  0  0  0  0  0  0  0  0
   -1.5070   -1.8087    3.7281 C   0  0  0  0  0  0  0  0  0  0  0  0
   -1.8098   -2.8550    2.9432 F   0  0  0  0  0  0  0  0  0  0  0  0
   -1.2627   -2.0258    5.0710 C   0  0  0  0  0  0  0  0  0  0  0  0
   -1.3390   -3.2709    5.5605 F   0  0  0  0  0  0  0  0  0  0  0  0
   -1.5850   -0.3536    1.7392 C   0  0  0  0  0  0  0  0  0  0  0  0
   -0.6769    0.0961    0.7966 C   0  0  0  0  0  0  0  0  0  0  0  0
    0.6517    0.4518    0.9837 N   0  0  0  0  0  0  0  0  0  0  0  0
    1.5498   -0.0717    0.0321 C   0  0  0  0  0  0  0  0  0  0  0  0
    1.4494   -1.4141   -0.3284 C   0  0  0  0  0  0  0  0  0  0  0  0
    2.1834   -1.9139   -1.3843 C   0  0  0  0  0  0  0  0  0  0  0  0
    3.0329   -1.0750   -2.0941 C   0  0  0  0  0  0  0  0  0  0  0  0
    3.9289   -1.6105   -3.5186 S   0  0  0  0  0  0  0  0  0  0  0  0
    2.8680   -2.9430   -4.1631 C   0  0  0  0  0  0  0  0  0  0  0  0
    3.2023    0.2450   -1.6844 C   0  0  0  0  0  0  0  0  0  0  0  0
    2.4685    0.7430   -0.6292 C   0  0  0  0  0  0  0  0  0  0  0  0
    1.0627    1.4553    1.8599 C   0  0  0  0  0  0  0  0  0  0  0  0
    2.3080    1.3691    2.4777 C   0  0  0  0  0  0  0  0  0  0  0  0
    2.7375    2.3624    3.3339 C   0  0  0  0  0  0  0  0  0  0  0  0
    1.9265    3.4622    3.5869 C   0  0  0  0  0  0  0  0  0  0  0  0
    2.3648    4.7697    4.6878 S   0  0  0  0  0  0  0  0  0  0  0  0
    4.1698    4.6313    4.8266 C   0  0  0  0  0  0  0  0  0  0  0  0
    0.6860    3.5602    2.9591 C   0  0  0  0  0  0  0  0  0  0  0  0
    0.2602    2.5727    2.0979 C   0  0  0  0  0  0  0  0  0  0  0  0
   -1.2128   -0.0465   -0.5110 C   0  0  0  0  0  0  0  0  0  0  0  0
   -0.5590    0.2374   -2.0777 S   0  0  0  0  0  0  0  0  0  0  0  0
   -1.9905   -0.4657   -2.8292 C   0  0  0  0  0  0  0  0  0  0  0  0
   -2.9374   -0.8677   -1.8903 C   0  0  0  0  0  0  0  0  0  0  0  0
   -4.1305   -1.5164   -2.1413 N   0  0  0  0  0  0  0  0  0  0  0  0
   -4.2259   -2.5168   -3.1155 C   0  0  0  0  0  0  0  0  0  0  0  0
   -3.1369   -3.3294   -3.4164 C   0  0  0  0  0  0  0  0  0  0  0  0
   -3.2214   -4.2885   -4.4068 C   0  0  0  0  0  0  0  0  0  0  0  0
   -4.4047   -4.4587   -5.1119 C   0  0  0  0  0  0  0  0  0  0  0  0
   -4.6318   -5.6304   -6.4102 S   0  0  0  0  0  0  0  0  0  0  0  0
   -3.0324   -6.4793   -6.5244 C   0  0  0  0  0  0  0  0  0  0  0  0
   -5.5057   -3.6617   -4.7988 C   0  0  0  0  0  0  0  0  0  0  0  0
   -5.4195   -2.7015   -3.8173 C   0  0  0  0  0  0  0  0  0  0  0  0
   -5.2169   -1.2465   -1.2929 C   0  0  0  0  0  0  0  0  0  0  0  0
   -5.4671    0.0597   -0.8820 C   0  0  0  0  0  0  0  0  0  0  0  0
   -6.5223    0.3454   -0.0379 C   0  0  0  0  0  0  0  0  0  0  0  0
   -7.3532   -0.6751    0.4040 C   0  0  0  0  0  0  0  0  0  0  0  0
   -8.7359   -0.4390    1.4714 S   0  0  0  0  0  0  0  0  0  0  0  0
   -8.7012    1.3358    1.8519 C   0  0  0  0  0  0  0  0  0  0  0  0
   -7.1083   -1.9843   -0.0109 C   0  0  0  0  0  0  0  0  0  0  0  0
   -6.0523   -2.2702   -0.8451 C   0  0  0  0  0  0  0  0  0  0  0  0
   -2.4787   -0.5955   -0.5727 C   0  0  0  0  0  0  0  0  0  0  0  0
   -3.0851   -0.9174    1.0150 S   0  0  0  0  0  0  0  0  0  0  0  0
   -1.8981   -0.6105   -4.2399 C   0  0  0  0  0  0  0  0  0  0  0  0
   -2.8306   -0.8337   -5.2377 C   0  0  0  0  0  0  0  0  0  0  0  0
   -2.2659   -0.9401   -6.5044 C   0  0  0  0  0  0  0  0  0  0  0  0
   -0.8892   -0.7763   -6.5245 C   0  0  0  0  0  0  0  0  0  0  0  0
   -0.2954   -0.5077   -4.9090 S   0  0  0  0  0  0  0  0  0  0  0  0
   -0.0187   -0.8045   -7.6311 C   0  0  0  0  0  0  0  0  0  0  0  0
    1.3045   -0.4908   -7.6195 C   0  0  0  0  0  0  0  0  0  0  0  0
    2.2195    0.0932   -6.2478 S   0  0  0  0  0  0  0  0  0  0  0  0
    3.6513    0.2905   -7.2406 C   0  0  0  0  0  0  0  0  0  0  0  0
    4.7841    0.8379   -6.6935 C   0  0  0  0  0  0  0  0  0  0  0  0
    4.7587    1.2991   -5.3610 C   0  0  0  0  0  0  0  0  0  0  0  0
    4.7482    1.7133   -4.2911 N   0  0  0  0  0  0  0  0  0  0  0  0
    6.0168    1.0356   -7.3389 C   0  0  0  0  0  0  0  0  0  0  0  0
    7.0507    1.2194   -7.8044 N   0  0  0  0  0  0  0  0  0  0  0  0
    3.4369   -0.1263   -8.5148 N   0  0  0  0  0  0  0  0  0  0  0  0
    4.4432   -0.1609   -9.5599 C   0  0  0  0  0  0  0  0  0  0  0  0
    5.3251   -1.3985   -9.4446 C   0  0  0  0  0  0  0  0  0  0  0  0
    2.1497   -0.5677   -8.8046 C   0  0  0  0  0  0  0  0  0  0  0  0
    1.8112   -0.9506   -9.9023 O   0  0  0  0  0  0  0  0  0  0  0  0
   -1.0666   -2.0807    7.7616 H   0  0  0  0  0  0  0  0  0  0  0  0
   -0.6470    1.1511    6.0126 H   0  0  0  0  0  0  0  0  0  0  0  0
   -1.0878    1.5305    3.6481 H   0  0  0  0  0  0  0  0  0  0  0  0
    0.7729   -2.0612    0.2108 H   0  0  0  0  0  0  0  0  0  0  0  0
    2.0812   -2.9540   -1.6495 H   0  0  0  0  0  0  0  0  0  0  0  0
    1.8370   -2.6016   -4.1740 H   0  0  0  0  0  0  0  0  0  0  0  0
    3.2095   -3.1332   -5.1759 H   0  0  0  0  0  0  0  0  0  0  0  0
    2.9804   -3.8447   -3.5686 H   0  0  0  0  0  0  0  0  0  0  0  0
    3.8789    0.8821   -2.2326 H   0  0  0  0  0  0  0  0  0  0  0  0
    2.5691    1.7785   -0.3412 H   0  0  0  0  0  0  0  0  0  0  0  0
    2.9356    0.5123    2.2892 H   0  0  0  0  0  0  0  0  0  0  0  0
    3.7004    2.2649    3.8083 H   0  0  0  0  0  0  0  0  0  0  0  0
    4.4386    3.7620    5.4209 H   0  0  0  0  0  0  0  0  0  0  0  0
    4.6015    4.5828    3.8316 H   0  0  0  0  0  0  0  0  0  0  0  0
    4.4933    5.5374    5.3297 H   0  0  0  0  0  0  0  0  0  0  0  0
    0.0717    4.4282    3.1447 H   0  0  0  0  0  0  0  0  0  0  0  0
   -0.6873    2.6670    1.5854 H   0  0  0  0  0  0  0  0  0  0  0  0
   -2.2153   -3.2157   -2.8655 H   0  0  0  0  0  0  0  0  0  0  0  0
   -2.3566   -4.8980   -4.6128 H   0  0  0  0  0  0  0  0  0  0  0  0
   -2.2521   -5.7711   -6.7868 H   0  0  0  0  0  0  0  0  0  0  0  0
   -2.8118   -6.9843   -5.5889 H   0  0  0  0  0  0  0  0  0  0  0  0
   -3.1482   -7.2104   -7.3183 H   0  0  0  0  0  0  0  0  0  0  0  0
   -6.4255   -3.8009   -5.3455 H   0  0  0  0  0  0  0  0  0  0  0  0
   -6.2731   -2.0798   -3.5918 H   0  0  0  0  0  0  0  0  0  0  0  0
   -4.8323    0.8603   -1.2332 H   0  0  0  0  0  0  0  0  0  0  0  0
   -6.6875    1.3685    0.2583 H   0  0  0  0  0  0  0  0  0  0  0  0
   -9.5303    1.5032    2.5325 H   0  0  0  0  0  0  0  0  0  0  0  0
   -7.7657    1.5919    2.3405 H   0  0  0  0  0  0  0  0  0  0  0  0
   -8.8481    1.9156    0.9454 H   0  0  0  0  0  0  0  0  0  0  0  0
   -7.7542   -2.7741    0.3400 H   0  0  0  0  0  0  0  0  0  0  0  0
   -5.8620   -3.2880   -1.1494 H   0  0  0  0  0  0  0  0  0  0  0  0
   -3.8870   -0.8964   -5.0556 H   0  0  0  0  0  0  0  0  0  0  0  0
   -2.8387   -1.1138   -7.3980 H   0  0  0  0  0  0  0  0  0  0  0  0
   -0.4334   -1.0957   -8.5882 H   0  0  0  0  0  0  0  0  0  0  0  0
    5.0425    0.7499   -9.5151 H   0  0  0  0  0  0  0  0  0  0  0  0
    3.8904   -0.1862  -10.5032 H   0  0  0  0  0  0  0  0  0  0  0  0
    5.8621   -1.4097   -8.4989 H   0  0  0  0  0  0  0  0  0  0  0  0
    6.0533   -1.3960  -10.2499 H   0  0  0  0  0  0  0  0  0  0  0  0
    4.7200   -2.2991   -9.5221 H   0  0  0  0  0  0  0  0  0  0  0  0
  1  2  2  0  0  0  0
  2  3  1  0  0  0  0
  3  4  2  0  0  0  0
  3  5  1  0  0  0  0
  5  6  2  0  0  0  0
  6  7  1  0  0  0  0
  6  8  1  0  0  0  0
  8  9  1  0  0  0  0
  8 10  2  0  0  0  0
 10 11  1  0  0  0  0
 10 12  1  0  0  0  0
 12 13  1  0  0  0  0
 12 14  2  0  0  0  0
 14 15  1  0  0  0  0
 15 16  2  0  0  0  0
 16 17  1  0  0  0  0
 17 18  3  0  0  0  0
 16 19  1  0  0  0  0
 19 20  3  0  0  0  0
  1 21  1  0  0  0  0
 21 22  2  0  0  0  0
 22 23  1  0  0  0  0
 23 24  2  0  0  0  0
 24 25  1  0  0  0  0
 25 26  1  0  0  0  0
 25 27  2  0  0  0  0
 27 28  1  0  0  0  0
 24 29  1  0  0  0  0
 29 30  2  0  0  0  0
 30 31  1  0  0  0  0
 31 32  1  0  0  0  0
 32 33  2  0  0  0  0
 33 34  1  0  0  0  0
 34 35  2  0  0  0  0
 35 36  1  0  0  0  0
 36 37  1  0  0  0  0
 35 38  1  0  0  0  0
 38 39  2  0  0  0  0
 31 40  1  0  0  0  0
 40 41  2  0  0  0  0
 41 42  1  0  0  0  0
 42 43  2  0  0  0  0
 43 44  1  0  0  0  0
 44 45  1  0  0  0  0
 43 46  1  0  0  0  0
 46 47  2  0  0  0  0
 30 48  1  0  0  0  0
 48 49  1  0  0  0  0
 49 50  1  0  0  0  0
 50 51  2  0  0  0  0
 51 52  1  0  0  0  0
 52 53  1  0  0  0  0
 53 54  2  0  0  0  0
 54 55  1  0  0  0  0
 55 56  2  0  0  0  0
 56 57  1  0  0  0  0
 57 58  1  0  0  0  0
 56 59  1  0  0  0  0
 59 60  2  0  0  0  0
 52 61  1  0  0  0  0
 61 62  2  0  0  0  0
 62 63  1  0  0  0  0
 63 64  2  0  0  0  0
 64 65  1  0  0  0  0
 65 66  1  0  0  0  0
 64 67  1  0  0  0  0
 67 68  2  0  0  0  0
 51 69  1  0  0  0  0
 69 70  1  0  0  0  0
 50 71  1  0  0  0  0
 71 72  2  0  0  0  0
 72 73  1  0  0  0  0
 73 74  2  0  0  0  0
 74 75  1  0  0  0  0
 74 76  1  0  0  0  0
 76 77  2  0  0  0  0
 77 78  1  0  0  0  0
 78 79  1  0  0  0  0
 79 80  2  0  0  0  0
 80 81  1  0  0  0  0
 81 82  3  0  0  0  0
 80 83  1  0  0  0  0
 83 84  3  0  0  0  0
 79 85  1  0  0  0  0
 85 86  1  0  0  0  0
 86 87  1  0  0  0  0
 85 88  1  0  0  0  0
 88 89  2  0  0  0  0
 15  2  1  0  0  0  0
 27 21  1  0  0  0  0
 70 29  1  0  0  0  0
 75 71  1  0  0  0  0
 88 77  1  0  0  0  0
 14  5  1  0  0  0  0
 39 32  1  0  0  0  0
 47 40  1  0  0  0  0
 69 48  2  0  0  0  0
 60 53  1  0  0  0  0
 68 61  1  0  0  0  0
  1 90  1  0  0  0  0
 22 91  1  0  0  0  0
 23 92  1  0  0  0  0
 33 93  1  0  0  0  0
 34 94  1  0  0  0  0
 37 95  1  0  0  0  0
 37 96  1  0  0  0  0
 37 97  1  0  0  0  0
 38 98  1  0  0  0  0
 39 99  1  0  0  0  0
 41100  1  0  0  0  0
 42101  1  0  0  0  0
 45102  1  0  0  0  0
 45103  1  0  0  0  0
 45104  1  0  0  0  0
 46105  1  0  0  0  0
 47106  1  0  0  0  0
 54107  1  0  0  0  0
 55108  1  0  0  0  0
 58109  1  0  0  0  0
 58110  1  0  0  0  0
 58111  1  0  0  0  0
 59112  1  0  0  0  0
 60113  1  0  0  0  0
 62114  1  0  0  0  0
 63115  1  0  0  0  0
 66116  1  0  0  0  0
 66117  1  0  0  0  0
 66118  1  0  0  0  0
 67119  1  0  0  0  0
 68120  1  0  0  0  0
 72121  1  0  0  0  0
 73122  1  0  0  0  0
 76123  1  0  0  0  0
 86124  1  0  0  0  0
 86125  1  0  0  0  0
 87126  1  0  0  0  0
 87127  1  0  0  0  0
 87128  1  0  0  0  0
M  END
