138

C         -6.45780        3.37190       -4.80680
C         -7.48050        2.81510       -4.13870
C         -7.28350        1.72280       -3.13540
O         -6.23620        1.33480       -2.67540
C         -8.63730        1.22900       -2.83480
C         -8.99150        0.13160       -2.06700
Cl        -7.81020       -0.79120       -1.25080
C        -10.34520       -0.21900       -1.99450
Cl       -10.83440       -1.54090       -1.02810
C        -11.28850        0.48690       -2.74600
Cl       -12.92100       -0.01810       -2.71480
C        -10.92280        1.58530       -3.53820
Cl       -12.10660        2.27820       -4.56600
C         -9.59380        2.00510       -3.52980
C         -8.91530        3.10320       -4.19870
C         -9.44940        4.28810       -4.62830
C         -8.70230        5.28110       -5.30130
N         -8.16250        6.11380       -5.87730
C        -10.74740        4.76970       -4.34990
N        -11.73460        5.29660       -4.09700
C         -5.08510        2.90860       -4.55860
C         -4.60720        1.71510       -5.09020
C         -3.39400        1.19880       -4.69270
C         -2.61020        1.84430       -3.73440
C         -3.04190        3.09500       -3.28580
F         -2.31760        3.78960       -2.38830
C         -4.25970        3.61500       -3.69200
F         -4.67610        4.78770       -3.18420
C         -1.47960        1.18270       -3.10710
C         -1.47030       -0.12300       -2.65820
N         -2.49800       -1.06160       -2.86330
C         -2.50230       -1.81770       -4.03090
C         -1.32750       -2.00860       -4.75790
C         -1.32910       -2.73280       -5.93440
C         -2.50920       -3.28510       -6.41090
S         -2.63720       -4.23390       -7.89400
C         -0.91910       -4.40580       -8.45270
C         -3.69200       -3.08070       -5.69960
C         -3.69360       -2.35440       -4.53210
C         -3.37130       -1.30550       -1.79770
C         -3.77520       -0.25800       -0.97380
C         -4.63610       -0.47980        0.08250
C         -5.11130       -1.75900        0.33630
S         -6.22540       -2.16640        1.64380
C         -6.68330       -0.55720        2.34660
C         -4.69100       -2.81540       -0.47090
C         -3.82770       -2.59580       -1.51920
C         -0.32100       -0.38700       -1.87900
S          0.26630       -1.78020       -1.05070
C          1.65170       -0.86740       -0.47810
C          1.68820        0.43120       -0.97210
N          2.71710        1.33320       -0.79600
C          2.42130        2.70480       -0.79330
C          3.26960        3.61550       -1.42270
C          2.92680        4.94720       -1.48420
C          1.73090        5.39840       -0.92610
S          1.34570        7.10700       -1.12040
C         -0.43950        7.16550       -0.79000
C          0.91330        4.50400       -0.24850
C          1.26070        3.16990       -0.17970
C          4.03670        0.88850       -0.61600
C          4.52680       -0.19170       -1.34390
C          5.76710       -0.72670       -1.06240
C          6.54770       -0.17990       -0.05070
S          8.08440       -0.85320        0.48600
C          8.31490       -2.31260       -0.56380
C          6.09740        0.95980        0.61450
C          4.85760        1.48950        0.33780
C          0.54010        0.69340       -1.76380
S         -0.05720        2.06910       -2.62000
C          2.60140       -1.47000        0.42760
C          3.11360       -0.75320        1.51700
C          4.07360       -1.28160        2.34420
C          4.58020       -2.57090        2.13940
C          4.06500       -3.29200        1.04950
F          4.53530       -4.52550        0.79370
C          3.08390       -2.76890        0.23240
F          2.64100       -3.49850       -0.80740
C          5.62900       -3.16980        2.91860
C          5.92480       -2.98910        4.23220
C          5.05760       -2.35030        5.26180
O          4.04560       -1.70520        5.10380
C          5.64860       -2.72600        6.56080
C          5.18760       -2.43060        7.81170
C          5.90630       -2.89560        8.93460
C          5.47920       -2.61450       10.24700
C          6.19120       -3.08080       11.31630
F          5.78450       -2.81300       12.56410
C          7.35810       -3.84720       11.12050
F          8.03460       -4.29110       12.18740
C          7.79770       -4.13590        9.85920
C          7.08760       -3.66810        8.73490
C          7.53880       -3.95730        7.42730
C          6.83110       -3.48680        6.35140
C          7.04970       -3.61450        4.91580
C          8.15790       -4.16060        4.32720
C          8.41530       -4.20340        2.94040
N          8.71840       -4.26200        1.83470
C          9.22810       -4.73670        5.04570
N         10.12340       -5.22520        5.57160
H         -6.60130        4.16340       -5.52910
H         -5.21850        1.17110       -5.79300
H         -3.05250        0.26590       -5.10920
H         -0.39880       -1.59220       -4.39790
H         -0.39870       -2.86110       -6.46310
H         -0.96010       -5.04350       -9.33020
H         -0.51420       -3.43470       -8.72290
H         -0.32510       -4.88160       -7.67810
H         -4.61140       -3.49530       -6.08370
H         -4.61800       -2.18090       -4.00290
H         -3.42930        0.74480       -1.16870
H         -4.93490        0.35820        0.69070
H         -7.10450        0.07660        1.57170
H         -7.43590       -0.77100        3.09920
H         -5.81890       -0.09260        2.81220
H         -5.04640       -3.81200       -0.25760
H         -3.49480       -3.42510       -2.12460
H          4.18310        3.26520       -1.87900
H          3.56950        5.65290       -1.98720
H         -0.63040        7.07360        0.27540
H         -0.93750        6.37980       -1.35010
H         -0.77170        8.13890       -1.13730
H          0.00440        4.83140        0.22840
H          0.62310        2.47980        0.35370
H          3.92150       -0.63100       -2.12310
H          6.11020       -1.57300       -1.63460
H          9.22150       -2.78750       -0.20350
H          8.43460       -2.00930       -1.59990
H          7.48050       -2.99550       -0.43850
H          6.72460        1.40610        1.37030
H          4.50410        2.35570        0.87670
H          2.72990        0.23500        1.71230
H          4.46090       -0.68590        3.15140
H          6.22000       -3.89930        2.37590
H          4.28720       -1.84930        7.94020
H          4.58780       -2.03010       10.41300
H          8.69360       -4.72230        9.72750
H          8.43150       -4.54990        7.31000
