134

C         -2.28670        7.32800        0.70790
C         -3.07550        7.52770        1.79290
C         -3.57640        6.46840        2.71070
O         -3.45440        5.26940        2.61060
C         -4.30830        7.18470        3.77930
C         -5.01050        6.64800        4.84400
Cl        -4.96540        4.97970        5.18740
C         -5.77310        7.51440        5.63960
Cl        -6.63220        6.90350        6.98420
C         -5.87080        8.86520        5.30600
Cl        -6.89630        9.88110        6.22360
C         -5.15320        9.40360        4.22620
Cl        -5.46300       11.02800        3.77210
C         -4.30460        8.56690        3.50950
C         -3.39500        8.81780        2.39790
C         -2.78290       10.01160        2.12740
C         -1.94230       10.27860        1.02360
N         -1.27510       10.60720        0.14910
C         -2.74940       11.11400        3.01150
N         -2.54320       11.99290        3.71980
C         -1.86650        6.04790        0.19190
C         -2.69000        4.92160        0.07790
C         -2.16590        3.68910       -0.22470
C         -0.78970        3.51170       -0.40790
C          0.00180        4.66560       -0.48590
F          1.29520        4.56530       -0.84790
C         -0.52730        5.90570       -0.19690
F          0.28110        6.98020       -0.19420
C         -0.18660        2.20450       -0.41230
C          0.97980        1.82910        0.24540
N          1.74180        2.63350        1.06760
C          3.12320        2.40250        1.14210
C          3.79120        2.48290        2.36380
C          5.14140        2.22770        2.42910
C          5.85570        1.88420        1.28110
S          7.57550        1.56560        1.49790
C          8.16020        1.14600       -0.16850
C          5.19540        1.81680        0.06170
C          3.84120        2.07780       -0.00490
C          1.14860        3.62190        1.86410
C          1.77640        4.85360        2.03910
C          1.16010        5.86480        2.74930
C         -0.09430        5.65630        3.30720
S         -0.99550        6.89610        4.19020
C         -0.08400        8.42510        3.82600
C         -0.69870        4.40550        3.19300
C         -0.08780        3.40280        2.47490
C          1.23820        0.44770        0.06350
S          2.42820       -0.63010        0.70830
C          1.62040       -2.00070       -0.04870
C          0.41840       -1.62840       -0.67970
N         -0.57670       -2.45390       -1.13850
C         -1.35290       -1.99250       -2.21630
C         -0.72700       -1.43130       -3.32560
C         -1.47010       -0.95350       -4.38610
C         -2.85730       -1.03050       -4.35180
S         -3.91480       -0.45310       -5.63390
C         -2.78050        0.26720       -6.85410
C         -3.48560       -1.60230       -3.24390
C         -2.74520       -2.07840       -2.18720
C         -0.87950       -3.68020       -0.54630
C         -0.62640       -3.91760        0.80480
C         -0.87630       -5.15160        1.36890
C         -1.41290       -6.17750        0.59700
S         -1.75210       -7.79370        1.18640
C         -1.42680       -7.70790        2.96820
C         -1.71420       -5.92810       -0.74500
C         -1.45750       -4.70140       -1.30710
C          0.25840       -0.22160       -0.64850
S         -1.00940        0.84600       -1.15720
C          2.23330       -3.26670        0.08620
C          2.01190       -4.39570       -0.73740
C          2.52510       -5.71260       -0.41330
N          2.12440       -6.62130       -1.29680
S          1.30240       -5.90150       -2.46730
N          1.32940       -4.40340       -1.88430
C          3.30470       -5.96600        0.74160
C          3.62200       -4.81020        1.49640
N          4.40130       -4.77710        2.57560
S          4.53290       -3.26010        3.09270
N          3.59940       -2.56390        1.98110
C          3.14600       -3.49610        1.14570
C          3.65550       -7.24320        1.21210
C          3.81800       -8.38780        0.46740
C          4.25280       -8.43240       -0.93620
O          4.47100       -7.50850       -1.68730
C          4.55840       -9.86660       -1.19720
C          5.05950      -10.44230       -2.34970
Cl         5.24480       -9.53910       -3.78580
C          5.41370      -11.79910       -2.31860
Cl         5.99970      -12.56110       -3.73290
C          5.32590      -12.51600       -1.12800
Cl         5.85570      -14.14260       -1.08700
C          4.82190      -11.92500        0.04230
Cl         4.89080      -12.82000        1.50440
C          4.37590      -10.61210       -0.01410
C          3.76080       -9.73410        0.97830
C          2.99870      -10.07980        2.06780
C          2.30560       -9.11610        2.83100
N          1.67880       -8.40100        3.47650
C          2.61080      -11.37040        2.48090
N          2.16700      -12.35470        2.87120
H         -1.83680        8.18680        0.22560
H         -3.74710        5.02460        0.25320
H         -2.80580        2.82080       -0.25230
H          3.24180        2.73600        3.25800
H          5.66190        2.28130        3.37270
H          9.21910        0.93240       -0.06060
H          8.02240        1.99220       -0.83530
H          7.64170        0.26410       -0.53300
H          5.72160        1.57010       -0.84580
H          3.33520        2.04290       -0.95790
H          2.73990        5.02850        1.58490
H          1.66310        6.81300        2.84140
H         -0.67630        9.23330        4.24530
H          0.88800        8.40280        4.30940
H          0.01490        8.54890        2.75080
H         -1.65710        4.23380        3.65490
H         -0.56990        2.44180        2.38120
H          0.35130       -1.38610       -3.35660
H         -0.95580       -0.53160       -5.23390
H         -3.41410        0.66060       -7.64300
H         -2.12810       -0.50200       -7.25700
H         -2.21250        1.07410       -6.40100
H         -4.56290       -1.65790       -3.22490
H         -3.23650       -2.50950       -1.32820
H         -0.22700       -3.12860        1.42430
H         -0.64730       -5.30540        2.41080
H         -0.36390       -7.57660        3.15220
H         -2.02020       -6.91370        3.41090
H         -1.74350       -8.66840        3.36330
H         -2.14240       -6.72070       -1.33880
H         -1.66390       -4.53380       -2.35270
H          3.83880       -7.29460        2.27950
