139

C         -8.22380        0.55910       -0.49150
C         -8.81560        1.77850       -0.43830
C         -8.21080        3.13540       -0.53140
O         -7.18630        3.47030       -1.07770
C         -9.17290        4.02720        0.16020
C         -9.01320        5.35570        0.51520
Cl        -7.62490        6.23500        0.06710
C        -10.01490        5.96460        1.28130
Cl        -9.86730        7.60830        1.72620
C        -11.11210        5.22220        1.71950
Cl       -12.27180        5.96180        2.73620
C        -11.27210        3.87770        1.35420
Cl       -12.55220        2.97810        2.05840
C        -10.32750        3.30080        0.51440
C        -10.21750        1.97020       -0.06560
C        -11.23250        1.12970       -0.42420
C        -12.61280        1.42570       -0.36710
N        -13.74340        1.60420       -0.44090
C        -11.02660       -0.10350       -1.08790
N        -10.93920       -1.10700       -1.63660
C         -6.85370        0.20000       -0.73940
C         -5.93750        0.94360       -1.49510
C         -4.61620        0.57930       -1.56850
C         -4.12250       -0.55380       -0.90740
C         -5.05640       -1.37050       -0.26040
F         -4.64900       -2.48430        0.37280
C         -6.38240       -0.99860       -0.17540
F         -7.21980       -1.75920        0.55420
C         -2.70410       -0.80710       -0.82600
C         -1.72350        0.13990       -0.56080
N         -1.94790        1.45960       -0.21210
C         -3.10320        1.84570        0.47960
C         -3.66680        1.02210        1.45280
C         -4.87440        1.34560        2.03630
C         -5.52910        2.51430        1.67090
S         -7.12150        2.97570        2.28710
C         -7.78560        1.43000        2.97110
C         -4.92380        3.39080        0.77530
C         -3.72810        3.05650        0.17980
C         -0.97680        2.42120       -0.53710
C         -0.63140        3.40850        0.38040
C          0.34170        4.34040        0.07910
C          0.99260        4.29550       -1.14740
S          2.26360        5.41460       -1.63790
C          2.53060        6.44820       -0.16930
C          0.63740        3.31770       -2.07500
C         -0.33850        2.39350       -1.77730
C         -0.43640       -0.45340       -0.60020
S          1.16870        0.13630       -0.34850
C          1.82310       -1.46370       -0.65170
C          0.83920       -2.41890       -0.85020
N          1.04270       -3.78100       -0.92890
C          0.17740       -4.57300       -1.69540
C         -0.18100       -5.84640       -1.25140
C         -1.04670       -6.61770       -1.99140
C         -1.57930       -6.13690       -3.18750
S         -2.68550       -7.21370       -4.04150
C         -3.36660       -6.17560       -5.36610
C         -1.21010       -4.87860       -3.64160
C         -0.33530       -4.10630       -2.90190
C          2.15500       -4.36440       -0.30150
C          2.89990       -5.34610       -0.95500
C          4.08060       -5.79380       -0.40840
C          4.54360       -5.27830        0.80140
S          6.13530       -5.81250        1.33640
C          6.56940       -4.62210        2.63340
C          3.75190       -4.37840        1.50290
C          2.56600       -3.93120        0.95620
C         -0.44820       -1.81610       -0.84900
S         -2.05420       -2.42360       -1.02560
C          3.25920       -1.64330       -0.61640
C          4.02350       -1.02480        0.37260
C          5.39280       -1.21840        0.46710
O          6.17250       -0.74560        1.46520
C          5.64880        0.18050        2.40030
C          5.45950        1.57540        1.81560
C          6.03380       -2.06760       -0.46410
C          5.27520       -2.69090       -1.45120
C          3.92560       -2.44800       -1.54400
F          3.23810       -2.97450       -2.58100
C          7.46570       -2.29200       -0.40940
C          8.38440       -1.30060       -0.38180
C          8.07680        0.12420       -0.70300
O          6.99170        0.64320       -0.82590
C          9.38900        0.75880       -0.93770
C          9.65710        2.05460       -1.33590
C         10.98180        2.42490       -1.51720
C         12.00400        1.50850       -1.31060
C         11.74020        0.20540       -0.91140
C         10.41970       -0.17280       -0.71890
C          9.83010       -1.43800       -0.29570
C         10.50830       -2.51820        0.19490
C         11.91490       -2.59940        0.28140
N         13.05200       -2.72580        0.36970
C          9.89380       -3.66570        0.73990
N          9.47070       -4.60480        1.24580
H         -8.84460       -0.28260       -0.20190
H         -6.27500        1.82790       -2.00600
H         -3.92980        1.18180       -2.14180
H         -3.16320        0.11200        1.74320
H         -5.29290        0.68050        2.77450
H         -7.28180        1.18130        3.90030
H         -7.68360        0.63140        2.24240
H         -8.83610        1.62360        3.16680
H         -5.41450        4.31590        0.52270
H         -3.28520        3.72160       -0.54550
H         -1.12740        3.44020        1.33920
H          0.58750        5.08940        0.81410
H          2.82410        5.82680        0.67170
H          1.63550        7.02170        0.05350
H          3.34140        7.12110       -0.43090
H          1.13660        3.29560       -3.03120
H         -0.61310        1.64410       -2.50480
H          0.22000       -6.21860       -0.32070
H         -1.33190       -7.60020       -1.64860
H         -3.80180       -5.27670       -4.93980
H         -2.59480       -5.93710       -6.09230
H         -4.14060       -6.77370       -5.83700
H         -1.58530       -4.48950       -4.57410
H         -0.03080       -3.13900       -3.27290
H          2.56940       -5.71380       -1.91420
H          4.67910       -6.52580       -0.92800
H          5.99440       -4.81640        3.53440
H          6.41020       -3.61070        2.26970
H          7.62640       -4.78280        2.82180
H          4.05190       -4.01440        2.47230
H          1.96160       -3.22060        1.50060
H          3.50150       -0.40160        1.08080
H          4.71160       -0.19670        2.82900
H          6.40200        0.20630        3.19320
H          6.40620        1.94450        1.43120
H          5.10030        2.24830        2.58980
H          4.74920        1.56150        0.99340
H          5.75100       -3.32680       -2.18090
H          7.78890       -3.32590       -0.45760
H          8.84670        2.74890       -1.49780
H         11.22150        3.43170       -1.82440
H         13.02850        1.81220       -1.46480
H         12.55180       -0.48890       -0.76630
