
  xtb     02042201563D
 energy: -261.856950418345 gnorm: 0.000716791797 xtb: 6.4.1 (unknown)
139150  0     0  0            999 V2000
   -8.2238    0.5591   -0.4915 C   0  0  0  0  0  0  0  0  0  0  0  0
   -8.8156    1.7785   -0.4383 C   0  0  0  0  0  0  0  0  0  0  0  0
   -8.2108    3.1354   -0.5314 C   0  0  0  0  0  0  0  0  0  0  0  0
   -7.1863    3.4703   -1.0777 O   0  0  0  0  0  0  0  0  0  0  0  0
   -9.1729    4.0272    0.1602 C   0  0  0  0  0  0  0  0  0  0  0  0
   -9.0132    5.3557    0.5152 C   0  0  0  0  0  0  0  0  0  0  0  0
   -7.6249    6.2350    0.0671 Cl  0  0  0  0  0  0  0  0  0  0  0  0
  -10.0149    5.9646    1.2813 C   0  0  0  0  0  0  0  0  0  0  0  0
   -9.8673    7.6083    1.7262 Cl  0  0  0  0  0  0  0  0  0  0  0  0
  -11.1121    5.2222    1.7195 C   0  0  0  0  0  0  0  0  0  0  0  0
  -12.2718    5.9618    2.7362 Cl  0  0  0  0  0  0  0  0  0  0  0  0
  -11.2721    3.8777    1.3542 C   0  0  0  0  0  0  0  0  0  0  0  0
  -12.5522    2.9781    2.0584 Cl  0  0  0  0  0  0  0  0  0  0  0  0
  -10.3275    3.3008    0.5144 C   0  0  0  0  0  0  0  0  0  0  0  0
  -10.2175    1.9702   -0.0656 C   0  0  0  0  0  0  0  0  0  0  0  0
  -11.2325    1.1297   -0.4242 C   0  0  0  0  0  0  0  0  0  0  0  0
  -12.6128    1.4257   -0.3671 C   0  0  0  0  0  0  0  0  0  0  0  0
  -13.7434    1.6042   -0.4409 N   0  0  0  0  0  0  0  0  0  0  0  0
  -11.0266   -0.1035   -1.0879 C   0  0  0  0  0  0  0  0  0  0  0  0
  -10.9392   -1.1070   -1.6366 N   0  0  0  0  0  0  0  0  0  0  0  0
   -6.8537    0.2000   -0.7394 C   0  0  0  0  0  0  0  0  0  0  0  0
   -5.9375    0.9436   -1.4951 C   0  0  0  0  0  0  0  0  0  0  0  0
   -4.6162    0.5793   -1.5685 C   0  0  0  0  0  0  0  0  0  0  0  0
   -4.1225   -0.5538   -0.9074 C   0  0  0  0  0  0  0  0  0  0  0  0
   -5.0564   -1.3705   -0.2604 C   0  0  0  0  0  0  0  0  0  0  0  0
   -4.6490   -2.4843    0.3728 F   0  0  0  0  0  0  0  0  0  0  0  0
   -6.3824   -0.9986   -0.1754 C   0  0  0  0  0  0  0  0  0  0  0  0
   -7.2198   -1.7592    0.5542 F   0  0  0  0  0  0  0  0  0  0  0  0
   -2.7041   -0.8071   -0.8260 C   0  0  0  0  0  0  0  0  0  0  0  0
   -1.7235    0.1399   -0.5608 C   0  0  0  0  0  0  0  0  0  0  0  0
   -1.9479    1.4596   -0.2121 N   0  0  0  0  0  0  0  0  0  0  0  0
   -3.1032    1.8457    0.4796 C   0  0  0  0  0  0  0  0  0  0  0  0
   -3.6668    1.0221    1.4528 C   0  0  0  0  0  0  0  0  0  0  0  0
   -4.8744    1.3456    2.0363 C   0  0  0  0  0  0  0  0  0  0  0  0
   -5.5291    2.5143    1.6709 C   0  0  0  0  0  0  0  0  0  0  0  0
   -7.1215    2.9757    2.2871 S   0  0  0  0  0  0  0  0  0  0  0  0
   -7.7856    1.4300    2.9711 C   0  0  0  0  0  0  0  0  0  0  0  0
   -4.9238    3.3908    0.7753 C   0  0  0  0  0  0  0  0  0  0  0  0
   -3.7281    3.0565    0.1798 C   0  0  0  0  0  0  0  0  0  0  0  0
   -0.9768    2.4212   -0.5371 C   0  0  0  0  0  0  0  0  0  0  0  0
   -0.6314    3.4085    0.3804 C   0  0  0  0  0  0  0  0  0  0  0  0
    0.3417    4.3404    0.0791 C   0  0  0  0  0  0  0  0  0  0  0  0
    0.9926    4.2955   -1.1474 C   0  0  0  0  0  0  0  0  0  0  0  0
    2.2636    5.4146   -1.6379 S   0  0  0  0  0  0  0  0  0  0  0  0
    2.5306    6.4482   -0.1693 C   0  0  0  0  0  0  0  0  0  0  0  0
    0.6374    3.3177   -2.0750 C   0  0  0  0  0  0  0  0  0  0  0  0
   -0.3385    2.3935   -1.7773 C   0  0  0  0  0  0  0  0  0  0  0  0
   -0.4364   -0.4534   -0.6002 C   0  0  0  0  0  0  0  0  0  0  0  0
    1.1687    0.1363   -0.3485 S   0  0  0  0  0  0  0  0  0  0  0  0
    1.8231   -1.4637   -0.6517 C   0  0  0  0  0  0  0  0  0  0  0  0
    0.8392   -2.4189   -0.8502 C   0  0  0  0  0  0  0  0  0  0  0  0
    1.0427   -3.7810   -0.9289 N   0  0  0  0  0  0  0  0  0  0  0  0
    0.1774   -4.5730   -1.6954 C   0  0  0  0  0  0  0  0  0  0  0  0
   -0.1810   -5.8464   -1.2514 C   0  0  0  0  0  0  0  0  0  0  0  0
   -1.0467   -6.6177   -1.9914 C   0  0  0  0  0  0  0  0  0  0  0  0
   -1.5793   -6.1369   -3.1875 C   0  0  0  0  0  0  0  0  0  0  0  0
   -2.6855   -7.2137   -4.0415 S   0  0  0  0  0  0  0  0  0  0  0  0
   -3.3666   -6.1756   -5.3661 C   0  0  0  0  0  0  0  0  0  0  0  0
   -1.2101   -4.8786   -3.6416 C   0  0  0  0  0  0  0  0  0  0  0  0
   -0.3353   -4.1063   -2.9019 C   0  0  0  0  0  0  0  0  0  0  0  0
    2.1550   -4.3644   -0.3015 C   0  0  0  0  0  0  0  0  0  0  0  0
    2.8999   -5.3461   -0.9550 C   0  0  0  0  0  0  0  0  0  0  0  0
    4.0806   -5.7938   -0.4084 C   0  0  0  0  0  0  0  0  0  0  0  0
    4.5436   -5.2783    0.8014 C   0  0  0  0  0  0  0  0  0  0  0  0
    6.1353   -5.8125    1.3364 S   0  0  0  0  0  0  0  0  0  0  0  0
    6.5694   -4.6221    2.6334 C   0  0  0  0  0  0  0  0  0  0  0  0
    3.7519   -4.3784    1.5029 C   0  0  0  0  0  0  0  0  0  0  0  0
    2.5660   -3.9312    0.9562 C   0  0  0  0  0  0  0  0  0  0  0  0
   -0.4482   -1.8161   -0.8490 C   0  0  0  0  0  0  0  0  0  0  0  0
   -2.0542   -2.4236   -1.0256 S   0  0  0  0  0  0  0  0  0  0  0  0
    3.2592   -1.6433   -0.6164 C   0  0  0  0  0  0  0  0  0  0  0  0
    4.0235   -1.0248    0.3726 C   0  0  0  0  0  0  0  0  0  0  0  0
    5.3928   -1.2184    0.4671 C   0  0  0  0  0  0  0  0  0  0  0  0
    6.1725   -0.7456    1.4652 O   0  0  0  0  0  0  0  0  0  0  0  0
    5.6488    0.1805    2.4003 C   0  0  0  0  0  0  0  0  0  0  0  0
    5.4595    1.5754    1.8156 C   0  0  0  0  0  0  0  0  0  0  0  0
    6.0338   -2.0676   -0.4641 C   0  0  0  0  0  0  0  0  0  0  0  0
    5.2752   -2.6909   -1.4512 C   0  0  0  0  0  0  0  0  0  0  0  0
    3.9256   -2.4480   -1.5440 C   0  0  0  0  0  0  0  0  0  0  0  0
    3.2381   -2.9745   -2.5810 F   0  0  0  0  0  0  0  0  0  0  0  0
    7.4657   -2.2920   -0.4094 C   0  0  0  0  0  0  0  0  0  0  0  0
    8.3844   -1.3006   -0.3818 C   0  0  0  0  0  0  0  0  0  0  0  0
    8.0768    0.1242   -0.7030 C   0  0  0  0  0  0  0  0  0  0  0  0
    6.9917    0.6432   -0.8259 O   0  0  0  0  0  0  0  0  0  0  0  0
    9.3890    0.7588   -0.9377 C   0  0  0  0  0  0  0  0  0  0  0  0
    9.6571    2.0546   -1.3359 C   0  0  0  0  0  0  0  0  0  0  0  0
   10.9818    2.4249   -1.5172 C   0  0  0  0  0  0  0  0  0  0  0  0
   12.0040    1.5085   -1.3106 C   0  0  0  0  0  0  0  0  0  0  0  0
   11.7402    0.2054   -0.9114 C   0  0  0  0  0  0  0  0  0  0  0  0
   10.4197   -0.1728   -0.7189 C   0  0  0  0  0  0  0  0  0  0  0  0
    9.8301   -1.4380   -0.2957 C   0  0  0  0  0  0  0  0  0  0  0  0
   10.5083   -2.5182    0.1949 C   0  0  0  0  0  0  0  0  0  0  0  0
   11.9149   -2.5994    0.2814 C   0  0  0  0  0  0  0  0  0  0  0  0
   13.0520   -2.7258    0.3697 N   0  0  0  0  0  0  0  0  0  0  0  0
    9.8938   -3.6657    0.7399 C   0  0  0  0  0  0  0  0  0  0  0  0
    9.4707   -4.6048    1.2458 N   0  0  0  0  0  0  0  0  0  0  0  0
   -8.8446   -0.2826   -0.2019 H   0  0  0  0  0  0  0  0  0  0  0  0
   -6.2750    1.8279   -2.0060 H   0  0  0  0  0  0  0  0  0  0  0  0
   -3.9298    1.1818   -2.1418 H   0  0  0  0  0  0  0  0  0  0  0  0
   -3.1632    0.1120    1.7432 H   0  0  0  0  0  0  0  0  0  0  0  0
   -5.2929    0.6805    2.7745 H   0  0  0  0  0  0  0  0  0  0  0  0
   -7.2818    1.1813    3.9003 H   0  0  0  0  0  0  0  0  0  0  0  0
   -7.6836    0.6314    2.2424 H   0  0  0  0  0  0  0  0  0  0  0  0
   -8.8361    1.6236    3.1668 H   0  0  0  0  0  0  0  0  0  0  0  0
   -5.4145    4.3159    0.5227 H   0  0  0  0  0  0  0  0  0  0  0  0
   -3.2852    3.7216   -0.5455 H   0  0  0  0  0  0  0  0  0  0  0  0
   -1.1274    3.4402    1.3392 H   0  0  0  0  0  0  0  0  0  0  0  0
    0.5875    5.0894    0.8141 H   0  0  0  0  0  0  0  0  0  0  0  0
    2.8241    5.8268    0.6717 H   0  0  0  0  0  0  0  0  0  0  0  0
    1.6355    7.0217    0.0535 H   0  0  0  0  0  0  0  0  0  0  0  0
    3.3414    7.1211   -0.4309 H   0  0  0  0  0  0  0  0  0  0  0  0
    1.1366    3.2956   -3.0312 H   0  0  0  0  0  0  0  0  0  0  0  0
   -0.6131    1.6441   -2.5048 H   0  0  0  0  0  0  0  0  0  0  0  0
    0.2200   -6.2186   -0.3207 H   0  0  0  0  0  0  0  0  0  0  0  0
   -1.3319   -7.6002   -1.6486 H   0  0  0  0  0  0  0  0  0  0  0  0
   -3.8018   -5.2767   -4.9398 H   0  0  0  0  0  0  0  0  0  0  0  0
   -2.5948   -5.9371   -6.0923 H   0  0  0  0  0  0  0  0  0  0  0  0
   -4.1406   -6.7737   -5.8370 H   0  0  0  0  0  0  0  0  0  0  0  0
   -1.5853   -4.4895   -4.5741 H   0  0  0  0  0  0  0  0  0  0  0  0
   -0.0308   -3.1390   -3.2729 H   0  0  0  0  0  0  0  0  0  0  0  0
    2.5694   -5.7138   -1.9142 H   0  0  0  0  0  0  0  0  0  0  0  0
    4.6791   -6.5258   -0.9280 H   0  0  0  0  0  0  0  0  0  0  0  0
    5.9944   -4.8164    3.5344 H   0  0  0  0  0  0  0  0  0  0  0  0
    6.4102   -3.6107    2.2697 H   0  0  0  0  0  0  0  0  0  0  0  0
    7.6264   -4.7828    2.8218 H   0  0  0  0  0  0  0  0  0  0  0  0
    4.0519   -4.0144    2.4723 H   0  0  0  0  0  0  0  0  0  0  0  0
    1.9616   -3.2206    1.5006 H   0  0  0  0  0  0  0  0  0  0  0  0
    3.5015   -0.4016    1.0808 H   0  0  0  0  0  0  0  0  0  0  0  0
    4.7116   -0.1967    2.8290 H   0  0  0  0  0  0  0  0  0  0  0  0
    6.4020    0.2063    3.1932 H   0  0  0  0  0  0  0  0  0  0  0  0
    6.4062    1.9445    1.4312 H   0  0  0  0  0  0  0  0  0  0  0  0
    5.1003    2.2483    2.5898 H   0  0  0  0  0  0  0  0  0  0  0  0
    4.7492    1.5615    0.9934 H   0  0  0  0  0  0  0  0  0  0  0  0
    5.7510   -3.3268   -2.1809 H   0  0  0  0  0  0  0  0  0  0  0  0
    7.7889   -3.3259   -0.4576 H   0  0  0  0  0  0  0  0  0  0  0  0
    8.8467    2.7489   -1.4978 H   0  0  0  0  0  0  0  0  0  0  0  0
   11.2215    3.4317   -1.8244 H   0  0  0  0  0  0  0  0  0  0  0  0
   13.0285    1.8122   -1.4648 H   0  0  0  0  0  0  0  0  0  0  0  0
   12.5518   -0.4889   -0.7663 H   0  0  0  0  0  0  0  0  0  0  0  0
  1  2  2  0  0  0  0
  2  3  1  0  0  0  0
  3  4  2  0  0  0  0
  3  5  1  0  0  0  0
  5  6  2  0  0  0  0
  6  7  1  0  0  0  0
  6  8  1  0  0  0  0
  8  9  1  0  0  0  0
  8 10  2  0  0  0  0
 10 11  1  0  0  0  0
 10 12  1  0  0  0  0
 12 13  1  0  0  0  0
 12 14  2  0  0  0  0
 14 15  1  0  0  0  0
 15 16  2  0  0  0  0
 16 17  1  0  0  0  0
 17 18  3  0  0  0  0
 16 19  1  0  0  0  0
 19 20  3  0  0  0  0
  1 21  1  0  0  0  0
 21 22  2  0  0  0  0
 22 23  1  0  0  0  0
 23 24  2  0  0  0  0
 24 25  1  0  0  0  0
 25 26  1  0  0  0  0
 25 27  2  0  0  0  0
 27 28  1  0  0  0  0
 24 29  1  0  0  0  0
 29 30  2  0  0  0  0
 30 31  1  0  0  0  0
 31 32  1  0  0  0  0
 32 33  2  0  0  0  0
 33 34  1  0  0  0  0
 34 35  2  0  0  0  0
 35 36  1  0  0  0  0
 36 37  1  0  0  0  0
 35 38  1  0  0  0  0
 38 39  2  0  0  0  0
 31 40  1  0  0  0  0
 40 41  2  0  0  0  0
 41 42  1  0  0  0  0
 42 43  2  0  0  0  0
 43 44  1  0  0  0  0
 44 45  1  0  0  0  0
 43 46  1  0  0  0  0
 46 47  2  0  0  0  0
 30 48  1  0  0  0  0
 48 49  1  0  0  0  0
 49 50  1  0  0  0  0
 50 51  2  0  0  0  0
 51 52  1  0  0  0  0
 52 53  1  0  0  0  0
 53 54  2  0  0  0  0
 54 55  1  0  0  0  0
 55 56  2  0  0  0  0
 56 57  1  0  0  0  0
 57 58  1  0  0  0  0
 56 59  1  0  0  0  0
 59 60  2  0  0  0  0
 52 61  1  0  0  0  0
 61 62  2  0  0  0  0
 62 63  1  0  0  0  0
 63 64  2  0  0  0  0
 64 65  1  0  0  0  0
 65 66  1  0  0  0  0
 64 67  1  0  0  0  0
 67 68  2  0  0  0  0
 51 69  1  0  0  0  0
 69 70  1  0  0  0  0
 50 71  1  0  0  0  0
 71 72  2  0  0  0  0
 72 73  1  0  0  0  0
 73 74  1  0  0  0  0
 74 75  1  0  0  0  0
 75 76  1  0  0  0  0
 73 77  2  0  0  0  0
 77 78  1  0  0  0  0
 78 79  2  0  0  0  0
 79 80  1  0  0  0  0
 77 81  1  0  0  0  0
 81 82  2  0  0  0  0
 82 83  1  0  0  0  0
 83 84  2  0  0  0  0
 83 85  1  0  0  0  0
 85 86  2  0  0  0  0
 86 87  1  0  0  0  0
 87 88  2  0  0  0  0
 88 89  1  0  0  0  0
 89 90  2  0  0  0  0
 90 91  1  0  0  0  0
 91 92  2  0  0  0  0
 92 93  1  0  0  0  0
 93 94  3  0  0  0  0
 92 95  1  0  0  0  0
 95 96  3  0  0  0  0
 15  2  1  0  0  0  0
 27 21  1  0  0  0  0
 70 29  1  0  0  0  0
 79 71  1  0  0  0  0
 91 82  1  0  0  0  0
 14  5  1  0  0  0  0
 39 32  1  0  0  0  0
 47 40  1  0  0  0  0
 69 48  2  0  0  0  0
 90 85  1  0  0  0  0
 60 53  1  0  0  0  0
 68 61  1  0  0  0  0
  1 97  1  0  0  0  0
 22 98  1  0  0  0  0
 23 99  1  0  0  0  0
 33100  1  0  0  0  0
 34101  1  0  0  0  0
 37102  1  0  0  0  0
 37103  1  0  0  0  0
 37104  1  0  0  0  0
 38105  1  0  0  0  0
 39106  1  0  0  0  0
 41107  1  0  0  0  0
 42108  1  0  0  0  0
 45109  1  0  0  0  0
 45110  1  0  0  0  0
 45111  1  0  0  0  0
 46112  1  0  0  0  0
 47113  1  0  0  0  0
 54114  1  0  0  0  0
 55115  1  0  0  0  0
 58116  1  0  0  0  0
 58117  1  0  0  0  0
 58118  1  0  0  0  0
 59119  1  0  0  0  0
 60120  1  0  0  0  0
 62121  1  0  0  0  0
 63122  1  0  0  0  0
 66123  1  0  0  0  0
 66124  1  0  0  0  0
 66125  1  0  0  0  0
 67126  1  0  0  0  0
 68127  1  0  0  0  0
 72128  1  0  0  0  0
 75129  1  0  0  0  0
 75130  1  0  0  0  0
 76131  1  0  0  0  0
 76132  1  0  0  0  0
 76133  1  0  0  0  0
 78134  1  0  0  0  0
 81135  1  0  0  0  0
 86136  1  0  0  0  0
 87137  1  0  0  0  0
 88138  1  0  0  0  0
 89139  1  0  0  0  0
M  END
