
  xtb     02042202113D
 energy: -271.859692797511 gnorm: 0.000885014497 xtb: 6.4.1 (unknown)
132143  0     0  0            999 V2000
    6.3529   -3.1594    2.6257 C   0  0  0  0  0  0  0  0  0  0  0  0
    6.5755   -4.0790    3.5943 C   0  0  0  0  0  0  0  0  0  0  0  0
    7.8914   -4.0889    4.2927 C   0  0  0  0  0  0  0  0  0  0  0  0
    8.8920   -3.5085    3.9522 O   0  0  0  0  0  0  0  0  0  0  0  0
    7.6666   -4.8892    5.5184 C   0  0  0  0  0  0  0  0  0  0  0  0
    8.5086   -5.0751    6.6022 C   0  0  0  0  0  0  0  0  0  0  0  0
   10.0983   -4.4604    6.6063 Cl  0  0  0  0  0  0  0  0  0  0  0  0
    8.0171   -5.7809    7.7106 C   0  0  0  0  0  0  0  0  0  0  0  0
    9.0308   -6.0608    9.0582 Cl  0  0  0  0  0  0  0  0  0  0  0  0
    6.6944   -6.2240    7.7327 C   0  0  0  0  0  0  0  0  0  0  0  0
    6.0936   -7.0024    9.1308 Cl  0  0  0  0  0  0  0  0  0  0  0  0
    5.8446   -6.0313    6.6318 C   0  0  0  0  0  0  0  0  0  0  0  0
    4.1906   -6.4595    6.7760 Cl  0  0  0  0  0  0  0  0  0  0  0  0
    6.3566   -5.4127    5.5001 C   0  0  0  0  0  0  0  0  0  0  0  0
    5.7587   -5.1145    4.2008 C   0  0  0  0  0  0  0  0  0  0  0  0
    4.8558   -5.8859    3.5220 C   0  0  0  0  0  0  0  0  0  0  0  0
    4.3383   -7.1255    3.9570 C   0  0  0  0  0  0  0  0  0  0  0  0
    3.9303   -8.1701    4.1970 N   0  0  0  0  0  0  0  0  0  0  0  0
    4.4654   -5.6082    2.1921 C   0  0  0  0  0  0  0  0  0  0  0  0
    4.1252   -5.4323    1.1110 N   0  0  0  0  0  0  0  0  0  0  0  0
    5.1216   -2.6725    2.0797 C   0  0  0  0  0  0  0  0  0  0  0  0
    3.8778   -2.8014    2.7158 C   0  0  0  0  0  0  0  0  0  0  0  0
    2.7595   -2.1697    2.2340 C   0  0  0  0  0  0  0  0  0  0  0  0
    2.8153   -1.3555    1.0966 C   0  0  0  0  0  0  0  0  0  0  0  0
    4.0295   -1.3051    0.3983 C   0  0  0  0  0  0  0  0  0  0  0  0
    4.0957   -0.6440   -0.7705 F   0  0  0  0  0  0  0  0  0  0  0  0
    5.1569   -1.9232    0.8934 C   0  0  0  0  0  0  0  0  0  0  0  0
    6.3182   -1.7985    0.2315 F   0  0  0  0  0  0  0  0  0  0  0  0
    1.7002   -0.5359    0.6951 C   0  0  0  0  0  0  0  0  0  0  0  0
    1.7333    0.7968    0.3012 C   0  0  0  0  0  0  0  0  0  0  0  0
    2.8381    1.6200    0.3351 N   0  0  0  0  0  0  0  0  0  0  0  0
    3.8758    1.3877    1.2533 C   0  0  0  0  0  0  0  0  0  0  0  0
    5.2064    1.4989    0.8606 C   0  0  0  0  0  0  0  0  0  0  0  0
    6.2266    1.1239    1.7142 C   0  0  0  0  0  0  0  0  0  0  0  0
    5.9299    0.6176    2.9727 C   0  0  0  0  0  0  0  0  0  0  0  0
    7.1258   -0.0575    4.0822 S   0  0  0  0  0  0  0  0  0  0  0  0
    8.6246   -0.2131    3.0687 C   0  0  0  0  0  0  0  0  0  0  0  0
    4.6039    0.6033    3.4050 C   0  0  0  0  0  0  0  0  0  0  0  0
    3.5898    0.9942    2.5619 C   0  0  0  0  0  0  0  0  0  0  0  0
    2.9424    2.6724   -0.5867 C   0  0  0  0  0  0  0  0  0  0  0  0
    3.4510    3.9044   -0.1881 C   0  0  0  0  0  0  0  0  0  0  0  0
    3.5402    4.9514   -1.0840 C   0  0  0  0  0  0  0  0  0  0  0  0
    3.1162    4.7821   -2.3961 C   0  0  0  0  0  0  0  0  0  0  0  0
    3.1582    6.0454   -3.6251 S   0  0  0  0  0  0  0  0  0  0  0  0
    3.8837    7.4724   -2.7698 C   0  0  0  0  0  0  0  0  0  0  0  0
    2.6216    3.5433   -2.8016 C   0  0  0  0  0  0  0  0  0  0  0  0
    2.5392    2.4975   -1.9108 C   0  0  0  0  0  0  0  0  0  0  0  0
    0.4269    1.2473   -0.0279 C   0  0  0  0  0  0  0  0  0  0  0  0
   -0.2186    2.7314   -0.6353 S   0  0  0  0  0  0  0  0  0  0  0  0
   -1.8394    2.0675   -0.5821 C   0  0  0  0  0  0  0  0  0  0  0  0
   -1.8682    0.7439   -0.1705 C   0  0  0  0  0  0  0  0  0  0  0  0
   -2.9788   -0.0798   -0.1619 N   0  0  0  0  0  0  0  0  0  0  0  0
   -3.0996   -1.0375    0.8584 C   0  0  0  0  0  0  0  0  0  0  0  0
   -2.7044   -0.7367    2.1576 C   0  0  0  0  0  0  0  0  0  0  0  0
   -2.8036   -1.6815    3.1606 C   0  0  0  0  0  0  0  0  0  0  0  0
   -3.3113   -2.9424    2.8790 C   0  0  0  0  0  0  0  0  0  0  0  0
   -3.4907   -4.2309    4.0691 S   0  0  0  0  0  0  0  0  0  0  0  0
   -2.9600   -3.4679    5.6286 C   0  0  0  0  0  0  0  0  0  0  0  0
   -3.7172   -3.2425    1.5785 C   0  0  0  0  0  0  0  0  0  0  0  0
   -3.6107   -2.3044    0.5778 C   0  0  0  0  0  0  0  0  0  0  0  0
   -3.9961    0.0697   -1.1102 C   0  0  0  0  0  0  0  0  0  0  0  0
   -3.6910    0.3928   -2.4339 C   0  0  0  0  0  0  0  0  0  0  0  0
   -4.6953    0.6397   -3.3454 C   0  0  0  0  0  0  0  0  0  0  0  0
   -6.0228    0.5475   -2.9503 C   0  0  0  0  0  0  0  0  0  0  0  0
   -7.3459    0.9365   -4.0782 S   0  0  0  0  0  0  0  0  0  0  0  0
   -6.9542   -0.1979   -5.4450 C   0  0  0  0  0  0  0  0  0  0  0  0
   -6.3385    0.1825   -1.6487 C   0  0  0  0  0  0  0  0  0  0  0  0
   -5.3338   -0.0597   -0.7348 C   0  0  0  0  0  0  0  0  0  0  0  0
   -0.5634    0.2985    0.1655 C   0  0  0  0  0  0  0  0  0  0  0  0
    0.0730   -1.1891    0.7686 S   0  0  0  0  0  0  0  0  0  0  0  0
   -2.9651    2.8485   -1.0408 C   0  0  0  0  0  0  0  0  0  0  0  0
   -2.9061    3.6144   -2.2083 C   0  0  0  0  0  0  0  0  0  0  0  0
   -4.0447    4.1400   -2.7724 C   0  0  0  0  0  0  0  0  0  0  0  0
   -5.2993    3.9430   -2.1846 C   0  0  0  0  0  0  0  0  0  0  0  0
   -5.3308    3.3327   -0.9225 C   0  0  0  0  0  0  0  0  0  0  0  0
   -6.4999    3.2048   -0.2752 F   0  0  0  0  0  0  0  0  0  0  0  0
   -4.1906    2.7925   -0.3657 C   0  0  0  0  0  0  0  0  0  0  0  0
   -4.2580    2.2018    0.8424 F   0  0  0  0  0  0  0  0  0  0  0  0
   -6.5513    4.3277   -2.7861 C   0  0  0  0  0  0  0  0  0  0  0  0
   -6.8872    4.2205   -4.0928 C   0  0  0  0  0  0  0  0  0  0  0  0
   -6.1230    3.5113   -5.1552 C   0  0  0  0  0  0  0  0  0  0  0  0
   -4.9664    3.1607   -5.1471 O   0  0  0  0  0  0  0  0  0  0  0  0
   -7.1046    3.2793   -6.2408 C   0  0  0  0  0  0  0  0  0  0  0  0
   -6.9310    2.5716   -7.4182 C   0  0  0  0  0  0  0  0  0  0  0  0
   -5.3973    1.9828   -7.8890 Cl  0  0  0  0  0  0  0  0  0  0  0  0
   -8.0493    2.3450   -8.2300 C   0  0  0  0  0  0  0  0  0  0  0  0
   -7.8787    1.4823   -9.6979 Cl  0  0  0  0  0  0  0  0  0  0  0  0
   -9.3099    2.7828   -7.8228 C   0  0  0  0  0  0  0  0  0  0  0  0
  -10.6764    2.4032   -8.7786 Cl  0  0  0  0  0  0  0  0  0  0  0  0
   -9.4775    3.5215   -6.6412 C   0  0  0  0  0  0  0  0  0  0  0  0
  -11.0675    3.9031   -6.1311 Cl  0  0  0  0  0  0  0  0  0  0  0  0
   -8.3533    3.8287   -5.8841 C   0  0  0  0  0  0  0  0  0  0  0  0
   -8.1774    4.5994   -4.6614 C   0  0  0  0  0  0  0  0  0  0  0  0
   -8.9236    5.6559   -4.2241 C   0  0  0  0  0  0  0  0  0  0  0  0
   -9.9911    6.2709   -4.9161 C   0  0  0  0  0  0  0  0  0  0  0  0
  -10.8014    6.8962   -5.4339 N   0  0  0  0  0  0  0  0  0  0  0  0
   -8.5982    6.4095   -3.0707 C   0  0  0  0  0  0  0  0  0  0  0  0
   -8.3899    7.0745   -2.1599 N   0  0  0  0  0  0  0  0  0  0  0  0
    7.2479   -2.6538    2.2792 H   0  0  0  0  0  0  0  0  0  0  0  0
    3.8198   -3.3486    3.6430 H   0  0  0  0  0  0  0  0  0  0  0  0
    1.8213   -2.2490    2.7614 H   0  0  0  0  0  0  0  0  0  0  0  0
    5.4400    1.8413   -0.1362 H   0  0  0  0  0  0  0  0  0  0  0  0
    7.2457    1.2066    1.3732 H   0  0  0  0  0  0  0  0  0  0  0  0
    9.1212    0.7495    2.9849 H   0  0  0  0  0  0  0  0  0  0  0  0
    9.2604   -0.9207    3.5928 H   0  0  0  0  0  0  0  0  0  0  0  0
    8.3695   -0.6066    2.0898 H   0  0  0  0  0  0  0  0  0  0  0  0
    4.3831    0.2667    4.4060 H   0  0  0  0  0  0  0  0  0  0  0  0
    2.5653    0.9679    2.9014 H   0  0  0  0  0  0  0  0  0  0  0  0
    3.7734    4.0423    0.8335 H   0  0  0  0  0  0  0  0  0  0  0  0
    3.9336    5.8947   -0.7421 H   0  0  0  0  0  0  0  0  0  0  0  0
    4.8835    7.2288   -2.4227 H   0  0  0  0  0  0  0  0  0  0  0  0
    3.2423    7.7812   -1.9495 H   0  0  0  0  0  0  0  0  0  0  0  0
    3.9349    8.2617   -3.5135 H   0  0  0  0  0  0  0  0  0  0  0  0
    2.3122    3.4130   -3.8270 H   0  0  0  0  0  0  0  0  0  0  0  0
    2.1807    1.5329   -2.2364 H   0  0  0  0  0  0  0  0  0  0  0  0
   -2.3329    0.2508    2.3872 H   0  0  0  0  0  0  0  0  0  0  0  0
   -2.4908   -1.4151    4.1570 H   0  0  0  0  0  0  0  0  0  0  0  0
   -1.9135   -3.1835    5.5688 H   0  0  0  0  0  0  0  0  0  0  0  0
   -3.5913   -2.6145    5.8579 H   0  0  0  0  0  0  0  0  0  0  0  0
   -3.0891   -4.2351    6.3859 H   0  0  0  0  0  0  0  0  0  0  0  0
   -4.1099   -4.2248    1.3663 H   0  0  0  0  0  0  0  0  0  0  0  0
   -3.9196   -2.5447   -0.4284 H   0  0  0  0  0  0  0  0  0  0  0  0
   -2.6594    0.4672   -2.7427 H   0  0  0  0  0  0  0  0  0  0  0  0
   -4.4417    0.9288   -4.3527 H   0  0  0  0  0  0  0  0  0  0  0  0
   -7.7538   -0.0920   -6.1709 H   0  0  0  0  0  0  0  0  0  0  0  0
   -6.9265   -1.2130   -5.0612 H   0  0  0  0  0  0  0  0  0  0  0  0
   -6.0034    0.0723   -5.8908 H   0  0  0  0  0  0  0  0  0  0  0  0
   -7.3729    0.1134   -1.3510 H   0  0  0  0  0  0  0  0  0  0  0  0
   -5.5787   -0.3162    0.2845 H   0  0  0  0  0  0  0  0  0  0  0  0
   -1.9528    3.7356   -2.6993 H   0  0  0  0  0  0  0  0  0  0  0  0
   -3.9765    4.7000   -3.6889 H   0  0  0  0  0  0  0  0  0  0  0  0
   -7.3221    4.6273   -2.0858 H   0  0  0  0  0  0  0  0  0  0  0  0
  1  2  2  0  0  0  0
  2  3  1  0  0  0  0
  3  4  2  0  0  0  0
  3  5  1  0  0  0  0
  5  6  2  0  0  0  0
  6  7  1  0  0  0  0
  6  8  1  0  0  0  0
  8  9  1  0  0  0  0
  8 10  2  0  0  0  0
 10 11  1  0  0  0  0
 10 12  1  0  0  0  0
 12 13  1  0  0  0  0
 12 14  2  0  0  0  0
 14 15  1  0  0  0  0
 15 16  2  0  0  0  0
 16 17  1  0  0  0  0
 17 18  3  0  0  0  0
 16 19  1  0  0  0  0
 19 20  3  0  0  0  0
  1 21  1  0  0  0  0
 21 22  2  0  0  0  0
 22 23  1  0  0  0  0
 23 24  2  0  0  0  0
 24 25  1  0  0  0  0
 25 26  1  0  0  0  0
 25 27  2  0  0  0  0
 27 28  1  0  0  0  0
 24 29  1  0  0  0  0
 29 30  2  0  0  0  0
 30 31  1  0  0  0  0
 31 32  1  0  0  0  0
 32 33  2  0  0  0  0
 33 34  1  0  0  0  0
 34 35  2  0  0  0  0
 35 36  1  0  0  0  0
 36 37  1  0  0  0  0
 35 38  1  0  0  0  0
 38 39  2  0  0  0  0
 31 40  1  0  0  0  0
 40 41  2  0  0  0  0
 41 42  1  0  0  0  0
 42 43  2  0  0  0  0
 43 44  1  0  0  0  0
 44 45  1  0  0  0  0
 43 46  1  0  0  0  0
 46 47  2  0  0  0  0
 30 48  1  0  0  0  0
 48 49  1  0  0  0  0
 49 50  1  0  0  0  0
 50 51  2  0  0  0  0
 51 52  1  0  0  0  0
 52 53  1  0  0  0  0
 53 54  2  0  0  0  0
 54 55  1  0  0  0  0
 55 56  2  0  0  0  0
 56 57  1  0  0  0  0
 57 58  1  0  0  0  0
 56 59  1  0  0  0  0
 59 60  2  0  0  0  0
 52 61  1  0  0  0  0
 61 62  2  0  0  0  0
 62 63  1  0  0  0  0
 63 64  2  0  0  0  0
 64 65  1  0  0  0  0
 65 66  1  0  0  0  0
 64 67  1  0  0  0  0
 67 68  2  0  0  0  0
 51 69  1  0  0  0  0
 69 70  1  0  0  0  0
 50 71  1  0  0  0  0
 71 72  2  0  0  0  0
 72 73  1  0  0  0  0
 73 74  2  0  0  0  0
 74 75  1  0  0  0  0
 75 76  1  0  0  0  0
 75 77  2  0  0  0  0
 77 78  1  0  0  0  0
 74 79  1  0  0  0  0
 79 80  2  0  0  0  0
 80 81  1  0  0  0  0
 81 82  2  0  0  0  0
 81 83  1  0  0  0  0
 83 84  2  0  0  0  0
 84 85  1  0  0  0  0
 84 86  1  0  0  0  0
 86 87  1  0  0  0  0
 86 88  2  0  0  0  0
 88 89  1  0  0  0  0
 88 90  1  0  0  0  0
 90 91  1  0  0  0  0
 90 92  2  0  0  0  0
 92 93  1  0  0  0  0
 93 94  2  0  0  0  0
 94 95  1  0  0  0  0
 95 96  3  0  0  0  0
 94 97  1  0  0  0  0
 97 98  3  0  0  0  0
 15  2  1  0  0  0  0
 27 21  1  0  0  0  0
 70 29  1  0  0  0  0
 77 71  1  0  0  0  0
 93 80  1  0  0  0  0
 14  5  1  0  0  0  0
 39 32  1  0  0  0  0
 47 40  1  0  0  0  0
 69 48  2  0  0  0  0
 92 83  1  0  0  0  0
 60 53  1  0  0  0  0
 68 61  1  0  0  0  0
  1 99  1  0  0  0  0
 22100  1  0  0  0  0
 23101  1  0  0  0  0
 33102  1  0  0  0  0
 34103  1  0  0  0  0
 37104  1  0  0  0  0
 37105  1  0  0  0  0
 37106  1  0  0  0  0
 38107  1  0  0  0  0
 39108  1  0  0  0  0
 41109  1  0  0  0  0
 42110  1  0  0  0  0
 45111  1  0  0  0  0
 45112  1  0  0  0  0
 45113  1  0  0  0  0
 46114  1  0  0  0  0
 47115  1  0  0  0  0
 54116  1  0  0  0  0
 55117  1  0  0  0  0
 58118  1  0  0  0  0
 58119  1  0  0  0  0
 58120  1  0  0  0  0
 59121  1  0  0  0  0
 60122  1  0  0  0  0
 62123  1  0  0  0  0
 63124  1  0  0  0  0
 66125  1  0  0  0  0
 66126  1  0  0  0  0
 66127  1  0  0  0  0
 67128  1  0  0  0  0
 68129  1  0  0  0  0
 72130  1  0  0  0  0
 73131  1  0  0  0  0
 79132  1  0  0  0  0
M  END
