
  xtb     02042205273D
 energy: -279.586269975576 gnorm: 0.000244505570 xtb: 6.4.1 (unknown)
134147  0     0  0            999 V2000
   -2.2867    7.3280    0.7079 C   0  0  0  0  0  0  0  0  0  0  0  0
   -3.0755    7.5277    1.7929 C   0  0  0  0  0  0  0  0  0  0  0  0
   -3.5764    6.4684    2.7107 C   0  0  0  0  0  0  0  0  0  0  0  0
   -3.4544    5.2694    2.6106 O   0  0  0  0  0  0  0  0  0  0  0  0
   -4.3083    7.1847    3.7793 C   0  0  0  0  0  0  0  0  0  0  0  0
   -5.0105    6.6480    4.8440 C   0  0  0  0  0  0  0  0  0  0  0  0
   -4.9654    4.9797    5.1874 Cl  0  0  0  0  0  0  0  0  0  0  0  0
   -5.7731    7.5144    5.6396 C   0  0  0  0  0  0  0  0  0  0  0  0
   -6.6322    6.9035    6.9842 Cl  0  0  0  0  0  0  0  0  0  0  0  0
   -5.8708    8.8652    5.3060 C   0  0  0  0  0  0  0  0  0  0  0  0
   -6.8963    9.8811    6.2236 Cl  0  0  0  0  0  0  0  0  0  0  0  0
   -5.1532    9.4036    4.2262 C   0  0  0  0  0  0  0  0  0  0  0  0
   -5.4630   11.0280    3.7721 Cl  0  0  0  0  0  0  0  0  0  0  0  0
   -4.3046    8.5669    3.5095 C   0  0  0  0  0  0  0  0  0  0  0  0
   -3.3950    8.8178    2.3979 C   0  0  0  0  0  0  0  0  0  0  0  0
   -2.7829   10.0116    2.1274 C   0  0  0  0  0  0  0  0  0  0  0  0
   -1.9423   10.2786    1.0236 C   0  0  0  0  0  0  0  0  0  0  0  0
   -1.2751   10.6072    0.1491 N   0  0  0  0  0  0  0  0  0  0  0  0
   -2.7494   11.1140    3.0115 C   0  0  0  0  0  0  0  0  0  0  0  0
   -2.5432   11.9929    3.7198 N   0  0  0  0  0  0  0  0  0  0  0  0
   -1.8665    6.0479    0.1919 C   0  0  0  0  0  0  0  0  0  0  0  0
   -2.6900    4.9216    0.0779 C   0  0  0  0  0  0  0  0  0  0  0  0
   -2.1659    3.6891   -0.2247 C   0  0  0  0  0  0  0  0  0  0  0  0
   -0.7897    3.5117   -0.4079 C   0  0  0  0  0  0  0  0  0  0  0  0
    0.0018    4.6656   -0.4859 C   0  0  0  0  0  0  0  0  0  0  0  0
    1.2952    4.5653   -0.8479 F   0  0  0  0  0  0  0  0  0  0  0  0
   -0.5273    5.9057   -0.1969 C   0  0  0  0  0  0  0  0  0  0  0  0
    0.2811    6.9802   -0.1942 F   0  0  0  0  0  0  0  0  0  0  0  0
   -0.1866    2.2045   -0.4123 C   0  0  0  0  0  0  0  0  0  0  0  0
    0.9798    1.8291    0.2454 C   0  0  0  0  0  0  0  0  0  0  0  0
    1.7418    2.6335    1.0676 N   0  0  0  0  0  0  0  0  0  0  0  0
    3.1232    2.4025    1.1421 C   0  0  0  0  0  0  0  0  0  0  0  0
    3.7912    2.4829    2.3638 C   0  0  0  0  0  0  0  0  0  0  0  0
    5.1414    2.2277    2.4291 C   0  0  0  0  0  0  0  0  0  0  0  0
    5.8557    1.8842    1.2811 C   0  0  0  0  0  0  0  0  0  0  0  0
    7.5755    1.5656    1.4979 S   0  0  0  0  0  0  0  0  0  0  0  0
    8.1602    1.1460   -0.1685 C   0  0  0  0  0  0  0  0  0  0  0  0
    5.1954    1.8168    0.0617 C   0  0  0  0  0  0  0  0  0  0  0  0
    3.8412    2.0778   -0.0049 C   0  0  0  0  0  0  0  0  0  0  0  0
    1.1486    3.6219    1.8641 C   0  0  0  0  0  0  0  0  0  0  0  0
    1.7764    4.8536    2.0391 C   0  0  0  0  0  0  0  0  0  0  0  0
    1.1601    5.8648    2.7493 C   0  0  0  0  0  0  0  0  0  0  0  0
   -0.0943    5.6563    3.3072 C   0  0  0  0  0  0  0  0  0  0  0  0
   -0.9955    6.8961    4.1902 S   0  0  0  0  0  0  0  0  0  0  0  0
   -0.0840    8.4251    3.8260 C   0  0  0  0  0  0  0  0  0  0  0  0
   -0.6987    4.4055    3.1930 C   0  0  0  0  0  0  0  0  0  0  0  0
   -0.0878    3.4028    2.4749 C   0  0  0  0  0  0  0  0  0  0  0  0
    1.2382    0.4477    0.0635 C   0  0  0  0  0  0  0  0  0  0  0  0
    2.4282   -0.6301    0.7083 S   0  0  0  0  0  0  0  0  0  0  0  0
    1.6204   -2.0007   -0.0487 C   0  0  0  0  0  0  0  0  0  0  0  0
    0.4184   -1.6284   -0.6797 C   0  0  0  0  0  0  0  0  0  0  0  0
   -0.5767   -2.4539   -1.1385 N   0  0  0  0  0  0  0  0  0  0  0  0
   -1.3529   -1.9925   -2.2163 C   0  0  0  0  0  0  0  0  0  0  0  0
   -0.7270   -1.4313   -3.3256 C   0  0  0  0  0  0  0  0  0  0  0  0
   -1.4701   -0.9535   -4.3861 C   0  0  0  0  0  0  0  0  0  0  0  0
   -2.8573   -1.0305   -4.3518 C   0  0  0  0  0  0  0  0  0  0  0  0
   -3.9148   -0.4531   -5.6339 S   0  0  0  0  0  0  0  0  0  0  0  0
   -2.7805    0.2672   -6.8541 C   0  0  0  0  0  0  0  0  0  0  0  0
   -3.4856   -1.6023   -3.2439 C   0  0  0  0  0  0  0  0  0  0  0  0
   -2.7452   -2.0784   -2.1872 C   0  0  0  0  0  0  0  0  0  0  0  0
   -0.8795   -3.6802   -0.5463 C   0  0  0  0  0  0  0  0  0  0  0  0
   -0.6264   -3.9176    0.8048 C   0  0  0  0  0  0  0  0  0  0  0  0
   -0.8763   -5.1516    1.3689 C   0  0  0  0  0  0  0  0  0  0  0  0
   -1.4129   -6.1775    0.5970 C   0  0  0  0  0  0  0  0  0  0  0  0
   -1.7521   -7.7937    1.1864 S   0  0  0  0  0  0  0  0  0  0  0  0
   -1.4268   -7.7079    2.9682 C   0  0  0  0  0  0  0  0  0  0  0  0
   -1.7142   -5.9281   -0.7450 C   0  0  0  0  0  0  0  0  0  0  0  0
   -1.4575   -4.7014   -1.3071 C   0  0  0  0  0  0  0  0  0  0  0  0
    0.2584   -0.2216   -0.6485 C   0  0  0  0  0  0  0  0  0  0  0  0
   -1.0094    0.8460   -1.1572 S   0  0  0  0  0  0  0  0  0  0  0  0
    2.2333   -3.2667    0.0862 C   0  0  0  0  0  0  0  0  0  0  0  0
    2.0119   -4.3957   -0.7374 C   0  0  0  0  0  0  0  0  0  0  0  0
    2.5251   -5.7126   -0.4133 C   0  0  0  0  0  0  0  0  0  0  0  0
    2.1244   -6.6213   -1.2968 N   0  0  0  0  0  0  0  0  0  0  0  0
    1.3024   -5.9015   -2.4673 S   0  0  0  0  0  4  0  0  0  0  0  0
    1.3294   -4.4034   -1.8843 N   0  0  0  0  0  0  0  0  0  0  0  0
    3.3047   -5.9660    0.7416 C   0  0  0  0  0  0  0  0  0  0  0  0
    3.6220   -4.8102    1.4964 C   0  0  0  0  0  0  0  0  0  0  0  0
    4.4013   -4.7771    2.5756 N   0  0  0  0  0  0  0  0  0  0  0  0
    4.5329   -3.2601    3.0927 S   0  0  0  0  0  0  0  0  0  0  0  0
    3.5994   -2.5639    1.9811 N   0  0  0  0  0  0  0  0  0  0  0  0
    3.1460   -3.4961    1.1457 C   0  0  0  0  0  0  0  0  0  0  0  0
    3.6555   -7.2432    1.2121 C   0  0  0  0  0  0  0  0  0  0  0  0
    3.8180   -8.3878    0.4674 C   0  0  0  0  0  0  0  0  0  0  0  0
    4.2528   -8.4324   -0.9362 C   0  0  0  0  0  0  0  0  0  0  0  0
    4.4710   -7.5085   -1.6873 O   0  0  0  0  0  0  0  0  0  0  0  0
    4.5584   -9.8666   -1.1972 C   0  0  0  0  0  0  0  0  0  0  0  0
    5.0595  -10.4423   -2.3497 C   0  0  0  0  0  0  0  0  0  0  0  0
    5.2448   -9.5391   -3.7858 Cl  0  0  0  0  0  0  0  0  0  0  0  0
    5.4137  -11.7991   -2.3186 C   0  0  0  0  0  0  0  0  0  0  0  0
    5.9997  -12.5611   -3.7329 Cl  0  0  0  0  0  0  0  0  0  0  0  0
    5.3259  -12.5160   -1.1280 C   0  0  0  0  0  0  0  0  0  0  0  0
    5.8557  -14.1426   -1.0870 Cl  0  0  0  0  0  0  0  0  0  0  0  0
    4.8219  -11.9250    0.0423 C   0  0  0  0  0  0  0  0  0  0  0  0
    4.8908  -12.8200    1.5044 Cl  0  0  0  0  0  0  0  0  0  0  0  0
    4.3759  -10.6121   -0.0141 C   0  0  0  0  0  0  0  0  0  0  0  0
    3.7608   -9.7341    0.9783 C   0  0  0  0  0  0  0  0  0  0  0  0
    2.9987  -10.0798    2.0678 C   0  0  0  0  0  0  0  0  0  0  0  0
    2.3056   -9.1161    2.8310 C   0  0  0  0  0  0  0  0  0  0  0  0
    1.6788   -8.4010    3.4765 N   0  0  0  0  0  0  0  0  0  0  0  0
    2.6108  -11.3704    2.4809 C   0  0  0  0  0  0  0  0  0  0  0  0
    2.1670  -12.3547    2.8712 N   0  0  0  0  0  0  0  0  0  0  0  0
   -1.8368    8.1868    0.2256 H   0  0  0  0  0  0  0  0  0  0  0  0
   -3.7471    5.0246    0.2532 H   0  0  0  0  0  0  0  0  0  0  0  0
   -2.8058    2.8208   -0.2523 H   0  0  0  0  0  0  0  0  0  0  0  0
    3.2418    2.7360    3.2580 H   0  0  0  0  0  0  0  0  0  0  0  0
    5.6619    2.2813    3.3727 H   0  0  0  0  0  0  0  0  0  0  0  0
    9.2191    0.9324   -0.0606 H   0  0  0  0  0  0  0  0  0  0  0  0
    8.0224    1.9922   -0.8353 H   0  0  0  0  0  0  0  0  0  0  0  0
    7.6417    0.2641   -0.5330 H   0  0  0  0  0  0  0  0  0  0  0  0
    5.7216    1.5701   -0.8458 H   0  0  0  0  0  0  0  0  0  0  0  0
    3.3352    2.0429   -0.9579 H   0  0  0  0  0  0  0  0  0  0  0  0
    2.7399    5.0285    1.5849 H   0  0  0  0  0  0  0  0  0  0  0  0
    1.6631    6.8130    2.8414 H   0  0  0  0  0  0  0  0  0  0  0  0
   -0.6763    9.2333    4.2453 H   0  0  0  0  0  0  0  0  0  0  0  0
    0.8880    8.4028    4.3094 H   0  0  0  0  0  0  0  0  0  0  0  0
    0.0149    8.5489    2.7508 H   0  0  0  0  0  0  0  0  0  0  0  0
   -1.6571    4.2338    3.6549 H   0  0  0  0  0  0  0  0  0  0  0  0
   -0.5699    2.4418    2.3812 H   0  0  0  0  0  0  0  0  0  0  0  0
    0.3513   -1.3861   -3.3566 H   0  0  0  0  0  0  0  0  0  0  0  0
   -0.9558   -0.5316   -5.2339 H   0  0  0  0  0  0  0  0  0  0  0  0
   -3.4141    0.6606   -7.6430 H   0  0  0  0  0  0  0  0  0  0  0  0
   -2.1281   -0.5020   -7.2570 H   0  0  0  0  0  0  0  0  0  0  0  0
   -2.2125    1.0741   -6.4010 H   0  0  0  0  0  0  0  0  0  0  0  0
   -4.5629   -1.6579   -3.2249 H   0  0  0  0  0  0  0  0  0  0  0  0
   -3.2365   -2.5095   -1.3282 H   0  0  0  0  0  0  0  0  0  0  0  0
   -0.2270   -3.1286    1.4243 H   0  0  0  0  0  0  0  0  0  0  0  0
   -0.6473   -5.3054    2.4108 H   0  0  0  0  0  0  0  0  0  0  0  0
   -0.3639   -7.5766    3.1522 H   0  0  0  0  0  0  0  0  0  0  0  0
   -2.0202   -6.9137    3.4109 H   0  0  0  0  0  0  0  0  0  0  0  0
   -1.7435   -8.6684    3.3633 H   0  0  0  0  0  0  0  0  0  0  0  0
   -2.1424   -6.7207   -1.3388 H   0  0  0  0  0  0  0  0  0  0  0  0
   -1.6639   -4.5338   -2.3527 H   0  0  0  0  0  0  0  0  0  0  0  0
    3.8388   -7.2946    2.2795 H   0  0  0  0  0  0  0  0  0  0  0  0
  1  2  2  0  0  0  0
  2  3  1  0  0  0  0
  3  4  2  0  0  0  0
  3  5  1  0  0  0  0
  5  6  2  0  0  0  0
  6  7  1  0  0  0  0
  6  8  1  0  0  0  0
  8  9  1  0  0  0  0
  8 10  2  0  0  0  0
 10 11  1  0  0  0  0
 10 12  1  0  0  0  0
 12 13  1  0  0  0  0
 12 14  2  0  0  0  0
 14 15  1  0  0  0  0
 15 16  2  0  0  0  0
 16 17  1  0  0  0  0
 17 18  3  0  0  0  0
 16 19  1  0  0  0  0
 19 20  3  0  0  0  0
  1 21  1  0  0  0  0
 21 22  2  0  0  0  0
 22 23  1  0  0  0  0
 23 24  2  0  0  0  0
 24 25  1  0  0  0  0
 25 26  1  0  0  0  0
 25 27  2  0  0  0  0
 27 28  1  0  0  0  0
 24 29  1  0  0  0  0
 29 30  2  0  0  0  0
 30 31  1  0  0  0  0
 31 32  1  0  0  0  0
 32 33  2  0  0  0  0
 33 34  1  0  0  0  0
 34 35  2  0  0  0  0
 35 36  1  0  0  0  0
 36 37  1  0  0  0  0
 35 38  1  0  0  0  0
 38 39  2  0  0  0  0
 31 40  1  0  0  0  0
 40 41  2  0  0  0  0
 41 42  1  0  0  0  0
 42 43  2  0  0  0  0
 43 44  1  0  0  0  0
 44 45  1  0  0  0  0
 43 46  1  0  0  0  0
 46 47  2  0  0  0  0
 30 48  1  0  0  0  0
 48 49  1  0  0  0  0
 49 50  1  0  0  0  0
 50 51  2  0  0  0  0
 51 52  1  0  0  0  0
 52 53  1  0  0  0  0
 53 54  2  0  0  0  0
 54 55  1  0  0  0  0
 55 56  2  0  0  0  0
 56 57  1  0  0  0  0
 57 58  1  0  0  0  0
 56 59  1  0  0  0  0
 59 60  2  0  0  0  0
 52 61  1  0  0  0  0
 61 62  2  0  0  0  0
 62 63  1  0  0  0  0
 63 64  2  0  0  0  0
 64 65  1  0  0  0  0
 65 66  1  0  0  0  0
 64 67  1  0  0  0  0
 67 68  2  0  0  0  0
 51 69  1  0  0  0  0
 69 70  1  0  0  0  0
 50 71  1  0  0  0  0
 71 72  2  0  0  0  0
 72 73  1  0  0  0  0
 73 74  1  0  0  0  0
 74 75  2  0  0  0  0
 75 76  2  0  0  0  0
 73 77  2  0  0  0  0
 77 78  1  0  0  0  0
 78 79  2  0  0  0  0
 79 80  1  0  0  0  0
 80 81  1  0  0  0  0
 81 82  2  0  0  0  0
 77 83  1  0  0  0  0
 83 84  2  0  0  0  0
 84 85  1  0  0  0  0
 85 86  2  0  0  0  0
 85 87  1  0  0  0  0
 87 88  2  0  0  0  0
 88 89  1  0  0  0  0
 88 90  1  0  0  0  0
 90 91  1  0  0  0  0
 90 92  2  0  0  0  0
 92 93  1  0  0  0  0
 92 94  1  0  0  0  0
 94 95  1  0  0  0  0
 94 96  2  0  0  0  0
 96 97  1  0  0  0  0
 97 98  2  0  0  0  0
 98 99  1  0  0  0  0
 99100  3  0  0  0  0
 98101  1  0  0  0  0
101102  3  0  0  0  0
 15  2  1  0  0  0  0
 27 21  1  0  0  0  0
 70 29  1  0  0  0  0
 82 71  1  0  0  0  0
 97 84  1  0  0  0  0
 14  5  1  0  0  0  0
 39 32  1  0  0  0  0
 47 40  1  0  0  0  0
 69 48  2  0  0  0  0
 76 72  1  0  0  0  0
 82 78  1  0  0  0  0
 96 87  1  0  0  0  0
 60 53  1  0  0  0  0
 68 61  1  0  0  0  0
  1103  1  0  0  0  0
 22104  1  0  0  0  0
 23105  1  0  0  0  0
 33106  1  0  0  0  0
 34107  1  0  0  0  0
 37108  1  0  0  0  0
 37109  1  0  0  0  0
 37110  1  0  0  0  0
 38111  1  0  0  0  0
 39112  1  0  0  0  0
 41113  1  0  0  0  0
 42114  1  0  0  0  0
 45115  1  0  0  0  0
 45116  1  0  0  0  0
 45117  1  0  0  0  0
 46118  1  0  0  0  0
 47119  1  0  0  0  0
 54120  1  0  0  0  0
 55121  1  0  0  0  0
 58122  1  0  0  0  0
 58123  1  0  0  0  0
 58124  1  0  0  0  0
 59125  1  0  0  0  0
 60126  1  0  0  0  0
 62127  1  0  0  0  0
 63128  1  0  0  0  0
 66129  1  0  0  0  0
 66130  1  0  0  0  0
 66131  1  0  0  0  0
 67132  1  0  0  0  0
 68133  1  0  0  0  0
 83134  1  0  0  0  0
M  END
