114

C          0.46690       -3.44390       -8.93940
C          1.54080       -4.24270       -9.11430
C          1.93170       -4.70050      -10.47970
O          1.52400       -4.26800      -11.52650
C          2.85960       -5.83320      -10.25080
C          3.39740       -6.71630      -11.17310
Cl         3.14440       -6.51420      -12.84670
C          4.15760       -7.79380      -10.69350
Cl         4.86910       -8.88860      -11.79520
C          4.30380       -7.99680       -9.32030
Cl         5.15600       -9.36870       -8.76110
C          3.75490       -7.09980       -8.39070
Cl         3.82750       -7.48710       -6.72140
C          3.08590       -5.98000       -8.86590
C          2.47810       -4.84540       -8.17560
C          2.95040       -4.24940       -7.04110
C          2.44430       -3.04070       -6.50990
N          2.11330       -2.05480       -6.02640
C          4.11700       -4.63530       -6.34180
N          5.08710       -4.82790       -5.76160
C         -0.18650       -3.13280       -7.69280
C         -0.28410       -4.04910       -6.63740
C         -0.86800       -3.70300       -5.44390
C         -1.35260       -2.40810       -5.22070
C         -1.29460       -1.50290       -6.28530
F         -1.78780       -0.26490       -6.13430
C         -0.75860       -1.86950       -7.50660
F         -0.72980       -0.98130       -8.50830
C         -1.78580       -1.99050       -3.90460
C         -2.54420       -2.67000       -2.96100
C         -3.30500       -3.86900       -3.20980
C         -3.78880       -4.36440       -4.39020
C         -4.53120       -5.54960       -4.23150
C         -4.61960       -5.96950       -2.93860
C         -5.34490       -7.15040       -2.39320
C         -6.61680       -6.72800       -1.65450
S         -3.78610       -4.88400       -1.87840
C         -2.55180       -2.00920       -1.71440
C         -1.81660       -0.85010       -1.69900
S         -1.13170       -0.52170       -3.25750
C         -1.52360       -0.00060       -0.59040
C         -1.92880       -0.13930        0.70790
C         -1.35640        0.81120        1.58530
C         -1.55050        0.92970        2.97920
C         -2.52880        0.13960        3.69680
C         -2.43960       -0.38790        4.95530
C         -3.61440       -1.04230        5.37240
C         -4.61210       -1.01230        4.44710
C         -5.99800       -1.54700        4.55610
C         -7.00560       -0.42100        4.79970
S         -4.10610       -0.17190        3.01990
C         -0.75820        1.86900        3.63140
C          0.14480        2.73180        2.95090
C          0.27200        2.67380        1.54170
C          1.12270        3.58330        0.81140
C          1.90530        3.32450       -0.28450
C          2.61150        4.45060       -0.74020
C          2.35820        5.57980       -0.01820
C          2.96890        6.93060       -0.15130
C          4.01160        7.15460        0.94750
S          1.23910        5.26430        1.25710
C         -0.46350        1.68080        0.90780
S         -0.42500        1.34060       -0.79940
C          0.86690        3.55210        3.83230
C          0.54250        3.37470        5.15660
S         -0.72690        2.16460        5.34400
C          1.06250        3.95000        6.33390
C          2.11910        4.79710        6.53090
C          3.07050        5.36590        5.55330
O          2.97750        5.44310        4.34850
C          4.21630        5.85460        6.35910
C          5.44020        6.32370        5.91460
Cl         5.75990        6.55630        4.25510
C          6.43180        6.59240        6.86870
Cl         7.95220        7.19580        6.37080
C          6.19690        6.32640        8.21700
Cl         7.45600        6.56740        9.34890
C          4.95260        5.85020        8.66110
Cl         4.79430        5.38380       10.30370
C          3.93740        5.68070        7.72840
C          2.55040        5.24270        7.85160
C          1.73540        5.42740        8.93430
C          2.05830        6.18520       10.08230
N          2.18740        6.85970       11.00130
C          0.37610        5.04190        8.99330
N         -0.72800        4.76100        9.13220
H          0.04230       -3.00880       -9.83810
H          0.10080       -5.04780       -6.77730
H         -0.92120       -4.41960       -4.63980
H         -3.63560       -3.88280       -5.33920
H         -4.98670       -6.07580       -5.05170
H         -5.60300       -7.81600       -3.21950
H         -4.69570       -7.69550       -1.70340
H         -7.13620       -7.60190       -1.26990
H         -6.36880       -6.07520       -0.82060
H         -7.28450       -6.19320       -2.32600
H         -3.08150       -2.38820       -0.85940
H         -2.59340       -0.91900        1.02850
H         -1.54790       -0.34270        5.55350
H         -3.71510       -1.52090        6.33030
H         -6.03580       -2.25900        5.38330
H         -6.26480       -2.07350        3.63650
H         -6.98640        0.28700        3.97410
H         -8.01020       -0.82670        4.88710
H         -6.76330        0.11100        5.71670
H          2.01340        2.34740       -0.71930
H          3.28670        4.42580       -1.57690
H          2.19390        7.69660       -0.07120
H          3.43910        7.01640       -1.13310
H          3.55540        7.03900        1.92820
H          4.43290        8.15390        0.87110
H          4.81690        6.42890        0.85650
H          1.62500        4.24530        3.52300
H          0.56320        3.60290        7.23150
