198

C          3.50300        3.36240      -12.59520
C          2.76310        3.33950      -13.73240
C          3.23970        4.01400      -14.96740
O          4.36400        4.37800      -15.20710
C          2.01530        4.20890      -15.78360
C          1.85360        4.93790      -16.95000
Cl         3.18460        5.65170      -17.74220
C          0.55760        5.08450      -17.46690
Cl         0.31530        5.95520      -18.91790
C         -0.53790        4.55510      -16.78430
Cl        -2.11380        4.82390      -17.38830
C         -0.36900        3.81400      -15.60390
Cl        -1.75370        3.31260      -14.72610
C          0.91940        3.59580      -15.13930
C          1.42880        2.83240      -14.00380
C          0.95110        1.64220      -13.53160
C          1.68460        0.84860      -12.61770
N          2.27000        0.15300      -11.91830
C         -0.19210        0.95790      -13.99630
N         -1.06520        0.30020      -14.34390
C          3.06310        3.12230      -11.26830
C          3.86770        2.90340      -10.17880
C          3.15960        2.71780       -8.97180
C          3.67610        2.40020       -7.69970
C          5.11770        2.36830       -7.43980
C          5.93590        3.41640       -7.85540
C          7.28850        3.42630       -7.57540
C          7.87630        2.38610       -6.86350
S          9.57750        2.25460       -6.43860
C         10.29810        3.86090       -6.92240
C          9.92580        4.97530       -5.96230
C          7.04450        1.33790       -6.46000
F          7.58130        0.31070       -5.77310
C          5.69670        1.31490       -6.73290
C          2.74640        2.15910       -6.69970
C          1.34400        2.25480       -6.89590
C          0.82900        2.58180       -8.16270
C         -0.61110        2.61750       -8.43750
C         -1.19190        3.68920       -9.11480
C         -2.53320        3.67790       -9.42570
C         -3.35470        2.60430       -9.07780
S         -5.05160        2.72570       -9.53120
C         -5.60310        0.98410       -9.73180
C         -6.83260        0.96550      -10.61830
C         -2.76680        1.55680       -8.37270
C         -1.42160        1.55000       -8.06470
F         -3.49720        0.49840       -7.95610
C          1.75690        2.81570       -9.16400
S          1.36530        3.17660      -10.82040
C          0.62500        2.02880       -5.69760
C          1.42260        1.74220       -4.62840
S          3.12330        1.75770       -5.04440
C          1.02520        1.44520       -3.29210
C          1.81790        0.99160       -2.27900
C          1.12600        0.79580       -1.05860
C          1.63860        0.29820        0.15290
C          3.05750       -0.04620        0.30500
C          4.06170        0.83660       -0.08410
C          5.39700        0.51360        0.05310
C          5.77710       -0.71260        0.59740
O          7.03850       -1.13340        0.77430
C          8.12150       -0.32350        0.34560
C          9.39930       -1.09010        0.64290
C          4.76220       -1.59560        1.00650
C          5.16800       -2.90970        1.60980
F          4.11310       -3.66670        1.95600
F          5.90430       -3.66240        0.77580
F          5.89670       -2.76140        2.72980
C          3.42830       -1.26780        0.85940
C          0.73390        0.14720        1.19320
C         -0.63540        0.49040        1.07210
C         -1.15600        0.96470       -0.14500
C         -2.58780        1.27080       -0.25330
C         -3.53840        0.35700        0.19930
C         -4.88330        0.66350        0.22030
C         -5.33000        1.90630       -0.22890
O         -6.60260        2.32870       -0.20850
C         -7.59830        1.52360        0.40400
C         -8.89260        2.31870        0.39040
C         -4.37730        2.80130       -0.74780
C         -3.02990        2.49010       -0.75460
C         -4.86210        4.12400       -1.26810
F         -5.45440        4.86950       -0.31870
F         -5.75610        3.99500       -2.26180
F         -3.86720        4.88060       -1.76190
C         -0.25210        1.11560       -1.18250
S         -0.64230        1.65110       -2.79550
C         -1.33270        0.31380        2.28800
C         -0.55970       -0.18090        3.29950
S          1.10070       -0.42160        2.80320
C         -1.03550       -0.53750        4.59680
C         -2.32560       -0.40020        5.02910
C         -2.55140       -0.91740        6.32260
C         -3.77430       -0.97670        7.01590
C         -5.01340       -0.52410        6.37000
C         -5.87760        0.37450        6.99220
C         -7.01340        0.81860        6.34790
C         -7.32970        0.39170        5.05970
S         -8.77020        1.05730        4.28270
C         -9.47350       -0.40380        3.41090
C        -10.97580       -0.23430        3.30390
C         -6.45460       -0.50030        4.44830
F         -6.67460       -0.91900        3.17770
C         -5.32710       -0.96990        5.08790
C         -3.73070       -1.49290        8.30050
C         -2.53570       -2.00000        8.88640
C         -1.31980       -1.98190        8.16960
C         -0.09080       -2.55230        8.72640
C         -0.07770       -3.82540        9.29820
C          1.09540       -4.36710        9.77420
C          2.29910       -3.66460        9.71630
S          3.73150       -4.45730       10.37450
C          5.08250       -3.96440        9.23910
C          4.78690       -4.34660        7.80290
C          2.26240       -2.38020        9.17940
C          1.10090       -1.83500        8.67370
F          3.37110       -1.61030        9.14420
C         -1.35800       -1.41720        6.90600
S         -0.01240       -1.28400        5.79890
C         -2.74320       -2.47590       10.19390
C         -4.04570       -2.37940       10.62170
S         -5.07980       -1.66390        9.38140
C         -4.67700       -2.74250       11.83200
C         -4.18650       -3.31920       12.96930
C         -2.79980       -3.71670       13.30020
O         -1.84290       -3.81980       12.56600
C         -2.80140       -3.97510       14.75910
C         -1.72120       -4.24080       15.58370
Cl        -0.15040       -4.46070       14.95520
C         -1.94840       -4.31310       16.96590
Cl        -0.65440       -4.66890       18.02350
C         -3.21740       -4.05180       17.48250
Cl        -3.44560       -4.04660       19.17690
C         -4.30730       -3.77960       16.63970
Cl        -5.79050       -3.29590       17.35100
C         -4.10610       -3.81430       15.26560
C         -5.00940       -3.62940       14.13460
C         -6.34420       -3.92700       14.11080
C         -7.18480       -3.79240       12.98160
N         -7.94110       -3.71100       12.12210
C         -7.05510       -4.58300       15.14150
N         -7.69180       -5.20080       15.86860
H          4.53380        3.68250      -12.70480
H          4.93660        2.81880      -10.25970
H          5.50240        4.25470       -8.37980
H          7.88110        4.25830       -7.91840
H         10.00790        4.07670       -7.94950
H         11.37190        3.67500       -6.89880
H         10.39720        5.90490       -6.27510
H          8.84880        5.12480       -5.93000
H         10.26700        4.73380       -4.95850
H          5.11340        0.46670       -6.41260
H         -0.58920        4.54160       -9.38830
H         -2.97750        4.50700       -9.95390
H         -5.82120        0.57560       -8.74640
H         -4.78120        0.43510      -10.18860
H         -6.60480        1.38240      -11.59660
H         -7.17580       -0.05890      -10.74570
H         -7.63450        1.54940      -10.17200
H         -1.01400        0.69320       -7.55080
H         -0.44580        2.08930       -5.62180
H          2.86250        0.77730       -2.41630
H          3.79350        1.80440       -0.48080
H          6.14450        1.22380       -0.26090
H          8.11040        0.63100        0.88870
H          8.03460       -0.12460       -0.73040
H         10.26100       -0.50830        0.32950
H          9.39250       -2.03710        0.11070
H          9.46920       -1.29310        1.70770
H          2.67430       -1.97860        1.15970
H         -3.21740       -0.61870        0.53260
H         -5.58340       -0.06610        0.59360
H         -7.71510        0.58620       -0.15620
H         -7.30260        1.29120        1.43460
H         -8.76870        3.23540        0.95990
H         -9.15610        2.57730       -0.63110
H         -9.69260        1.73090        0.83020
H         -2.32080        3.21390       -1.12530
H         -2.37080        0.55940        2.40620
H         -3.09290        0.07110        4.44490
H         -5.64900        0.73900        7.98140
H         -7.67770        1.51660        6.83230
H         -9.01350       -0.47480        2.42600
H         -9.21800       -1.28180        4.00180
H        -11.42400       -0.17090        4.29260
H        -11.40500       -1.08490        2.77870
H        -11.22140        0.67360        2.75740
H         -4.70050       -1.68580        4.57860
H         -0.98460       -4.40830        9.33230
H          1.10290       -5.35780       10.20030
H          5.93990       -4.51630        9.62450
H          5.26880       -2.89860        9.34920
H          3.93080       -3.79500        7.41910
H          5.64760       -4.11560        7.17910
H          4.57520       -5.41110        7.72610
H          1.13380       -0.83150        8.27880
H         -1.95850       -2.86890       10.81220
H         -5.73080       -2.48940       11.84790
