
  xtb     02042200593D
 energy: -236.352317626413 gnorm: 0.000219487040 xtb: 6.4.1 (unknown)
114125  0     0  0            999 V2000
    0.4669   -3.4439   -8.9394 C   0  0  0  0  0  0  0  0  0  0  0  0
    1.5408   -4.2427   -9.1143 C   0  0  0  0  0  0  0  0  0  0  0  0
    1.9317   -4.7005  -10.4797 C   0  0  0  0  0  0  0  0  0  0  0  0
    1.5240   -4.2680  -11.5265 O   0  0  0  0  0  0  0  0  0  0  0  0
    2.8596   -5.8332  -10.2508 C   0  0  0  0  0  0  0  0  0  0  0  0
    3.3974   -6.7163  -11.1731 C   0  0  0  0  0  0  0  0  0  0  0  0
    3.1444   -6.5142  -12.8467 Cl  0  0  0  0  0  0  0  0  0  0  0  0
    4.1576   -7.7938  -10.6935 C   0  0  0  0  0  0  0  0  0  0  0  0
    4.8691   -8.8886  -11.7952 Cl  0  0  0  0  0  0  0  0  0  0  0  0
    4.3038   -7.9968   -9.3203 C   0  0  0  0  0  0  0  0  0  0  0  0
    5.1560   -9.3687   -8.7611 Cl  0  0  0  0  0  0  0  0  0  0  0  0
    3.7549   -7.0998   -8.3907 C   0  0  0  0  0  0  0  0  0  0  0  0
    3.8275   -7.4871   -6.7214 Cl  0  0  0  0  0  0  0  0  0  0  0  0
    3.0859   -5.9800   -8.8659 C   0  0  0  0  0  0  0  0  0  0  0  0
    2.4781   -4.8454   -8.1756 C   0  0  0  0  0  0  0  0  0  0  0  0
    2.9504   -4.2494   -7.0411 C   0  0  0  0  0  0  0  0  0  0  0  0
    2.4443   -3.0407   -6.5099 C   0  0  0  0  0  0  0  0  0  0  0  0
    2.1133   -2.0548   -6.0264 N   0  0  0  0  0  0  0  0  0  0  0  0
    4.1170   -4.6353   -6.3418 C   0  0  0  0  0  0  0  0  0  0  0  0
    5.0871   -4.8279   -5.7616 N   0  0  0  0  0  0  0  0  0  0  0  0
   -0.1865   -3.1328   -7.6928 C   0  0  0  0  0  0  0  0  0  0  0  0
   -0.2841   -4.0491   -6.6374 C   0  0  0  0  0  0  0  0  0  0  0  0
   -0.8680   -3.7030   -5.4439 C   0  0  0  0  0  0  0  0  0  0  0  0
   -1.3526   -2.4081   -5.2207 C   0  0  0  0  0  0  0  0  0  0  0  0
   -1.2946   -1.5029   -6.2853 C   0  0  0  0  0  0  0  0  0  0  0  0
   -1.7878   -0.2649   -6.1343 F   0  0  0  0  0  0  0  0  0  0  0  0
   -0.7586   -1.8695   -7.5066 C   0  0  0  0  0  0  0  0  0  0  0  0
   -0.7298   -0.9813   -8.5083 F   0  0  0  0  0  0  0  0  0  0  0  0
   -1.7858   -1.9905   -3.9046 C   0  0  0  0  0  0  0  0  0  0  0  0
   -2.5442   -2.6700   -2.9610 C   0  0  0  0  0  0  0  0  0  0  0  0
   -3.3050   -3.8690   -3.2098 C   0  0  0  0  0  0  0  0  0  0  0  0
   -3.7888   -4.3644   -4.3902 C   0  0  0  0  0  0  0  0  0  0  0  0
   -4.5312   -5.5496   -4.2315 C   0  0  0  0  0  0  0  0  0  0  0  0
   -4.6196   -5.9695   -2.9386 C   0  0  0  0  0  0  0  0  0  0  0  0
   -5.3449   -7.1504   -2.3932 C   0  0  0  0  0  0  0  0  0  0  0  0
   -6.6168   -6.7280   -1.6545 C   0  0  0  0  0  0  0  0  0  0  0  0
   -3.7861   -4.8840   -1.8784 S   0  0  0  0  0  0  0  0  0  0  0  0
   -2.5518   -2.0092   -1.7144 C   0  0  0  0  0  0  0  0  0  0  0  0
   -1.8166   -0.8501   -1.6990 C   0  0  0  0  0  0  0  0  0  0  0  0
   -1.1317   -0.5217   -3.2575 S   0  0  0  0  0  0  0  0  0  0  0  0
   -1.5236   -0.0006   -0.5904 C   0  0  0  0  0  0  0  0  0  0  0  0
   -1.9288   -0.1393    0.7079 C   0  0  0  0  0  0  0  0  0  0  0  0
   -1.3564    0.8112    1.5853 C   0  0  0  0  0  0  0  0  0  0  0  0
   -1.5505    0.9297    2.9792 C   0  0  0  0  0  0  0  0  0  0  0  0
   -2.5288    0.1396    3.6968 C   0  0  0  0  0  0  0  0  0  0  0  0
   -2.4396   -0.3879    4.9553 C   0  0  0  0  0  0  0  0  0  0  0  0
   -3.6144   -1.0423    5.3724 C   0  0  0  0  0  0  0  0  0  0  0  0
   -4.6121   -1.0123    4.4471 C   0  0  0  0  0  0  0  0  0  0  0  0
   -5.9980   -1.5470    4.5561 C   0  0  0  0  0  0  0  0  0  0  0  0
   -7.0056   -0.4210    4.7997 C   0  0  0  0  0  0  0  0  0  0  0  0
   -4.1061   -0.1719    3.0199 S   0  0  0  0  0  0  0  0  0  0  0  0
   -0.7582    1.8690    3.6314 C   0  0  0  0  0  0  0  0  0  0  0  0
    0.1448    2.7318    2.9509 C   0  0  0  0  0  0  0  0  0  0  0  0
    0.2720    2.6738    1.5417 C   0  0  0  0  0  0  0  0  0  0  0  0
    1.1227    3.5833    0.8114 C   0  0  0  0  0  0  0  0  0  0  0  0
    1.9053    3.3245   -0.2845 C   0  0  0  0  0  0  0  0  0  0  0  0
    2.6115    4.4506   -0.7402 C   0  0  0  0  0  0  0  0  0  0  0  0
    2.3582    5.5798   -0.0182 C   0  0  0  0  0  0  0  0  0  0  0  0
    2.9689    6.9306   -0.1513 C   0  0  0  0  0  0  0  0  0  0  0  0
    4.0116    7.1546    0.9475 C   0  0  0  0  0  0  0  0  0  0  0  0
    1.2391    5.2643    1.2571 S   0  0  0  0  0  0  0  0  0  0  0  0
   -0.4635    1.6808    0.9078 C   0  0  0  0  0  0  0  0  0  0  0  0
   -0.4250    1.3406   -0.7994 S   0  0  0  0  0  0  0  0  0  0  0  0
    0.8669    3.5521    3.8323 C   0  0  0  0  0  0  0  0  0  0  0  0
    0.5425    3.3747    5.1566 C   0  0  0  0  0  0  0  0  0  0  0  0
   -0.7269    2.1646    5.3440 S   0  0  0  0  0  0  0  0  0  0  0  0
    1.0625    3.9500    6.3339 C   0  0  0  0  0  0  0  0  0  0  0  0
    2.1191    4.7971    6.5309 C   0  0  0  0  0  0  0  0  0  0  0  0
    3.0705    5.3659    5.5533 C   0  0  0  0  0  0  0  0  0  0  0  0
    2.9775    5.4431    4.3485 O   0  0  0  0  0  0  0  0  0  0  0  0
    4.2163    5.8546    6.3591 C   0  0  0  0  0  0  0  0  0  0  0  0
    5.4402    6.3237    5.9146 C   0  0  0  0  0  0  0  0  0  0  0  0
    5.7599    6.5563    4.2551 Cl  0  0  0  0  0  0  0  0  0  0  0  0
    6.4318    6.5924    6.8687 C   0  0  0  0  0  0  0  0  0  0  0  0
    7.9522    7.1958    6.3708 Cl  0  0  0  0  0  0  0  0  0  0  0  0
    6.1969    6.3264    8.2170 C   0  0  0  0  0  0  0  0  0  0  0  0
    7.4560    6.5674    9.3489 Cl  0  0  0  0  0  0  0  0  0  0  0  0
    4.9526    5.8502    8.6611 C   0  0  0  0  0  0  0  0  0  0  0  0
    4.7943    5.3838   10.3037 Cl  0  0  0  0  0  0  0  0  0  0  0  0
    3.9374    5.6807    7.7284 C   0  0  0  0  0  0  0  0  0  0  0  0
    2.5504    5.2427    7.8516 C   0  0  0  0  0  0  0  0  0  0  0  0
    1.7354    5.4274    8.9343 C   0  0  0  0  0  0  0  0  0  0  0  0
    2.0583    6.1852   10.0823 C   0  0  0  0  0  0  0  0  0  0  0  0
    2.1874    6.8597   11.0013 N   0  0  0  0  0  0  0  0  0  0  0  0
    0.3761    5.0419    8.9933 C   0  0  0  0  0  0  0  0  0  0  0  0
   -0.7280    4.7610    9.1322 N   0  0  0  0  0  0  0  0  0  0  0  0
    0.0423   -3.0088   -9.8381 H   0  0  0  0  0  0  0  0  0  0  0  0
    0.1008   -5.0478   -6.7773 H   0  0  0  0  0  0  0  0  0  0  0  0
   -0.9212   -4.4196   -4.6398 H   0  0  0  0  0  0  0  0  0  0  0  0
   -3.6356   -3.8828   -5.3392 H   0  0  0  0  0  0  0  0  0  0  0  0
   -4.9867   -6.0758   -5.0517 H   0  0  0  0  0  0  0  0  0  0  0  0
   -5.6030   -7.8160   -3.2195 H   0  0  0  0  0  0  0  0  0  0  0  0
   -4.6957   -7.6955   -1.7034 H   0  0  0  0  0  0  0  0  0  0  0  0
   -7.1362   -7.6019   -1.2699 H   0  0  0  0  0  0  0  0  0  0  0  0
   -6.3688   -6.0752   -0.8206 H   0  0  0  0  0  0  0  0  0  0  0  0
   -7.2845   -6.1932   -2.3260 H   0  0  0  0  0  0  0  0  0  0  0  0
   -3.0815   -2.3882   -0.8594 H   0  0  0  0  0  0  0  0  0  0  0  0
   -2.5934   -0.9190    1.0285 H   0  0  0  0  0  0  0  0  0  0  0  0
   -1.5479   -0.3427    5.5535 H   0  0  0  0  0  0  0  0  0  0  0  0
   -3.7151   -1.5209    6.3303 H   0  0  0  0  0  0  0  0  0  0  0  0
   -6.0358   -2.2590    5.3833 H   0  0  0  0  0  0  0  0  0  0  0  0
   -6.2648   -2.0735    3.6365 H   0  0  0  0  0  0  0  0  0  0  0  0
   -6.9864    0.2870    3.9741 H   0  0  0  0  0  0  0  0  0  0  0  0
   -8.0102   -0.8267    4.8871 H   0  0  0  0  0  0  0  0  0  0  0  0
   -6.7633    0.1110    5.7167 H   0  0  0  0  0  0  0  0  0  0  0  0
    2.0134    2.3474   -0.7193 H   0  0  0  0  0  0  0  0  0  0  0  0
    3.2867    4.4258   -1.5769 H   0  0  0  0  0  0  0  0  0  0  0  0
    2.1939    7.6966   -0.0712 H   0  0  0  0  0  0  0  0  0  0  0  0
    3.4391    7.0164   -1.1331 H   0  0  0  0  0  0  0  0  0  0  0  0
    3.5554    7.0390    1.9282 H   0  0  0  0  0  0  0  0  0  0  0  0
    4.4329    8.1539    0.8711 H   0  0  0  0  0  0  0  0  0  0  0  0
    4.8169    6.4289    0.8565 H   0  0  0  0  0  0  0  0  0  0  0  0
    1.6250    4.2453    3.5230 H   0  0  0  0  0  0  0  0  0  0  0  0
    0.5632    3.6029    7.2315 H   0  0  0  0  0  0  0  0  0  0  0  0
  1  2  2  0  0  0  0
  2  3  1  0  0  0  0
  3  4  2  0  0  0  0
  3  5  1  0  0  0  0
  5  6  2  0  0  0  0
  6  7  1  0  0  0  0
  6  8  1  0  0  0  0
  8  9  1  0  0  0  0
  8 10  2  0  0  0  0
 10 11  1  0  0  0  0
 10 12  1  0  0  0  0
 12 13  1  0  0  0  0
 12 14  2  0  0  0  0
 14 15  1  0  0  0  0
 15 16  2  0  0  0  0
 16 17  1  0  0  0  0
 17 18  3  0  0  0  0
 16 19  1  0  0  0  0
 19 20  3  0  0  0  0
  1 21  1  0  0  0  0
 21 22  2  0  0  0  0
 22 23  1  0  0  0  0
 23 24  2  0  0  0  0
 24 25  1  0  0  0  0
 25 26  1  0  0  0  0
 25 27  2  0  0  0  0
 27 28  1  0  0  0  0
 24 29  1  0  0  0  0
 29 30  2  0  0  0  0
 30 31  1  0  0  0  0
 31 32  2  0  0  0  0
 32 33  1  0  0  0  0
 33 34  2  0  0  0  0
 34 35  1  0  0  0  0
 35 36  1  0  0  0  0
 34 37  1  0  0  0  0
 30 38  1  0  0  0  0
 38 39  2  0  0  0  0
 39 40  1  0  0  0  0
 39 41  1  0  0  0  0
 41 42  2  0  0  0  0
 42 43  1  0  0  0  0
 43 44  2  0  0  0  0
 44 45  1  0  0  0  0
 45 46  2  0  0  0  0
 46 47  1  0  0  0  0
 47 48  2  0  0  0  0
 48 49  1  0  0  0  0
 49 50  1  0  0  0  0
 48 51  1  0  0  0  0
 44 52  1  0  0  0  0
 52 53  2  0  0  0  0
 53 54  1  0  0  0  0
 54 55  1  0  0  0  0
 55 56  2  0  0  0  0
 56 57  1  0  0  0  0
 57 58  2  0  0  0  0
 58 59  1  0  0  0  0
 59 60  1  0  0  0  0
 58 61  1  0  0  0  0
 54 62  2  0  0  0  0
 62 63  1  0  0  0  0
 53 64  1  0  0  0  0
 64 65  2  0  0  0  0
 65 66  1  0  0  0  0
 65 67  1  0  0  0  0
 67 68  2  0  0  0  0
 68 69  1  0  0  0  0
 69 70  2  0  0  0  0
 69 71  1  0  0  0  0
 71 72  2  0  0  0  0
 72 73  1  0  0  0  0
 72 74  1  0  0  0  0
 74 75  1  0  0  0  0
 74 76  2  0  0  0  0
 76 77  1  0  0  0  0
 76 78  1  0  0  0  0
 78 79  1  0  0  0  0
 78 80  2  0  0  0  0
 80 81  1  0  0  0  0
 81 82  2  0  0  0  0
 82 83  1  0  0  0  0
 83 84  3  0  0  0  0
 82 85  1  0  0  0  0
 85 86  3  0  0  0  0
 15  2  1  0  0  0  0
 27 21  1  0  0  0  0
 40 29  1  0  0  0  0
 63 41  1  0  0  0  0
 81 68  1  0  0  0  0
 14  5  1  0  0  0  0
 37 31  1  0  0  0  0
 62 43  1  0  0  0  0
 80 71  1  0  0  0  0
 51 45  1  0  0  0  0
 66 52  1  0  0  0  0
 61 55  1  0  0  0  0
  1 87  1  0  0  0  0
 22 88  1  0  0  0  0
 23 89  1  0  0  0  0
 32 90  1  0  0  0  0
 33 91  1  0  0  0  0
 35 92  1  0  0  0  0
 35 93  1  0  0  0  0
 36 94  1  0  0  0  0
 36 95  1  0  0  0  0
 36 96  1  0  0  0  0
 38 97  1  0  0  0  0
 42 98  1  0  0  0  0
 46 99  1  0  0  0  0
 47100  1  0  0  0  0
 49101  1  0  0  0  0
 49102  1  0  0  0  0
 50103  1  0  0  0  0
 50104  1  0  0  0  0
 50105  1  0  0  0  0
 56106  1  0  0  0  0
 57107  1  0  0  0  0
 59108  1  0  0  0  0
 59109  1  0  0  0  0
 60110  1  0  0  0  0
 60111  1  0  0  0  0
 60112  1  0  0  0  0
 64113  1  0  0  0  0
 67114  1  0  0  0  0
M  END
