
  xtb     02032219153D
 energy: -226.382275057977 gnorm: 0.000856204059 xtb: 6.4.1 (unknown)
111124  0     0  0            999 V2000
    6.4401   -2.5876    6.6589 C   0  0  0  0  0  0  0  0  0  0  0  0
    7.4471   -1.6859    6.4599 C   0  0  0  0  0  0  0  0  0  0  0  0
    7.2888   -0.3993    5.7362 C   0  0  0  0  0  0  0  0  0  0  0  0
    6.2983    0.0385    5.1907 O   0  0  0  0  0  0  0  0  0  0  0  0
    8.5575    0.3279    5.9436 C   0  0  0  0  0  0  0  0  0  0  0  0
    8.9122    1.5610    5.4790 C   0  0  0  0  0  0  0  0  0  0  0  0
   10.1811    2.0828    5.8157 C   0  0  0  0  0  0  0  0  0  0  0  0
   10.6003    3.3465    5.3566 C   0  0  0  0  0  0  0  0  0  0  0  0
   11.8306    3.8305    5.7026 C   0  0  0  0  0  0  0  0  0  0  0  0
   12.2277    5.0339    5.2653 F   0  0  0  0  0  0  0  0  0  0  0  0
   12.6935    3.0739    6.5202 C   0  0  0  0  0  0  0  0  0  0  0  0
   13.8940    3.5740    6.8431 F   0  0  0  0  0  0  0  0  0  0  0  0
   12.3149    1.8441    6.9807 C   0  0  0  0  0  0  0  0  0  0  0  0
   11.0530    1.3158    6.6414 C   0  0  0  0  0  0  0  0  0  0  0  0
   10.6539    0.0435    7.1121 C   0  0  0  0  0  0  0  0  0  0  0  0
    9.4231   -0.4471    6.7639 C   0  0  0  0  0  0  0  0  0  0  0  0
    8.7544   -1.7058    7.0815 C   0  0  0  0  0  0  0  0  0  0  0  0
    9.3090   -2.7537    7.7700 C   0  0  0  0  0  0  0  0  0  0  0  0
    8.6827   -3.9992    7.9877 C   0  0  0  0  0  0  0  0  0  0  0  0
    8.2545   -5.0466    8.1826 N   0  0  0  0  0  0  0  0  0  0  0  0
   10.6032   -2.7324    8.3296 C   0  0  0  0  0  0  0  0  0  0  0  0
   11.6421   -2.7643    8.8172 N   0  0  0  0  0  0  0  0  0  0  0  0
    5.2497   -2.6624    5.8898 C   0  0  0  0  0  0  0  0  0  0  0  0
    5.1751   -2.3782    4.5109 C   0  0  0  0  0  0  0  0  0  0  0  0
    3.9210   -2.3816    3.7930 C   0  0  0  0  0  0  0  0  0  0  0  0
    4.0891   -2.0826    2.5025 N   0  0  0  0  0  0  0  0  0  0  0  0
    5.6492   -1.8563    2.2207 S   0  0  0  0  0  4  0  0  0  0  0  0
    6.2012   -2.1220    3.6970 N   0  0  0  0  0  0  0  0  0  0  0  0
    2.6823   -2.6755    4.4002 C   0  0  0  0  0  0  0  0  0  0  0  0
    2.7703   -3.0655    5.7547 C   0  0  0  0  0  0  0  0  0  0  0  0
    1.7599   -3.4451    6.5422 N   0  0  0  0  0  0  0  0  0  0  0  0
    2.3270   -3.7815    8.0024 S   0  0  0  0  0  0  0  0  0  0  0  0
    3.8724   -3.4570    7.7388 N   0  0  0  0  0  0  0  0  0  0  0  0
    4.0311   -3.0780    6.4692 C   0  0  0  0  0  0  0  0  0  0  0  0
    1.4642   -2.5568    3.6859 C   0  0  0  0  0  0  0  0  0  0  0  0
    0.1652   -2.7488    4.1466 C   0  0  0  0  0  0  0  0  0  0  0  0
   -0.8025   -2.5186    3.2705 N   0  0  0  0  0  0  0  0  0  0  0  0
   -0.3347   -2.1504    2.1046 C   0  0  0  0  0  0  0  0  0  0  0  0
    1.4146   -2.0656    2.0224 S   0  0  0  0  0  0  0  0  0  0  0  0
   -1.1595   -1.8114    1.0008 C   0  0  0  0  0  0  0  0  0  0  0  0
   -2.5273   -1.7361    1.0051 C   0  0  0  0  0  0  0  0  0  0  0  0
   -3.0649   -1.3199   -0.2314 C   0  0  0  0  0  0  0  0  0  0  0  0
   -4.4235   -1.1566   -0.5674 C   0  0  0  0  0  0  0  0  0  0  0  0
   -5.4839   -1.4063    0.3929 C   0  0  0  0  0  0  0  0  0  0  0  0
   -5.4968   -0.6422    1.9555 S   0  0  0  0  0  0  0  0  0  0  0  0
   -6.9949   -1.3867    2.3951 C   0  0  0  0  0  0  0  0  0  0  0  0
   -7.5926   -1.1800    3.7424 C   0  0  0  0  0  0  0  0  0  0  0  0
   -6.9946   -2.1570    4.7579 C   0  0  0  0  0  0  0  0  0  0  0  0
   -7.4408   -2.1873    1.3857 C   0  0  0  0  0  0  0  0  0  0  0  0
   -8.8886   -3.1043    1.4602 Cl  0  0  0  0  0  0  0  0  0  0  0  0
   -6.5930   -2.1942    0.2460 C   0  0  0  0  0  0  0  0  0  0  0  0
   -6.9062   -3.1729   -1.1245 Cl  0  0  0  0  0  0  0  0  0  0  0  0
   -4.7009   -0.7210   -1.8560 C   0  0  0  0  0  0  0  0  0  0  0  0
   -3.6901   -0.4873   -2.8291 C   0  0  0  0  0  0  0  0  0  0  0  0
   -2.3294   -0.7301   -2.5184 C   0  0  0  0  0  0  0  0  0  0  0  0
   -1.3073   -0.6202   -3.5311 C   0  0  0  0  0  0  0  0  0  0  0  0
   -1.3945   -0.9760   -4.8525 C   0  0  0  0  0  0  0  0  0  0  0  0
   -0.1987   -0.7749   -5.5621 C   0  0  0  0  0  0  0  0  0  0  0  0
    0.8074   -0.2636   -4.7973 C   0  0  0  0  0  0  0  0  0  0  0  0
    2.1841    0.1203   -5.2153 C   0  0  0  0  0  0  0  0  0  0  0  0
    2.3118    1.6382   -5.3635 C   0  0  0  0  0  0  0  0  0  0  0  0
    0.2889   -0.0265   -3.1633 S   0  0  0  0  0  0  0  0  0  0  0  0
   -2.0555   -1.0976   -1.2057 C   0  0  0  0  0  0  0  0  0  0  0  0
   -0.4695   -1.3964   -0.5459 S   0  0  0  0  0  0  0  0  0  0  0  0
   -4.2148    0.0542   -4.0166 C   0  0  0  0  0  0  0  0  0  0  0  0
   -5.5794    0.2232   -3.9958 C   0  0  0  0  0  0  0  0  0  0  0  0
   -6.2702   -0.3079   -2.4629 S   0  0  0  0  0  0  0  0  0  0  0  0
   -6.4970    0.7329   -4.9425 C   0  0  0  0  0  0  0  0  0  0  0  0
   -6.3258    1.2540   -6.1941 C   0  0  0  0  0  0  0  0  0  0  0  0
   -5.0693    1.4600   -6.9558 C   0  0  0  0  0  0  0  0  0  0  0  0
   -3.9369    1.1316   -6.6668 O   0  0  0  0  0  0  0  0  0  0  0  0
   -5.4618    2.1597   -8.1929 C   0  0  0  0  0  0  0  0  0  0  0  0
   -4.6432    2.6059   -9.2128 C   0  0  0  0  0  0  0  0  0  0  0  0
   -5.2051    3.2576  -10.3038 C   0  0  0  0  0  0  0  0  0  0  0  0
   -4.3860    3.7697  -11.4421 C   0  0  0  0  0  0  0  0  0  0  0  0
   -6.5921    3.4261  -10.3070 C   0  0  0  0  0  0  0  0  0  0  0  0
   -7.1459    4.0592  -11.3569 F   0  0  0  0  0  0  0  0  0  0  0  0
   -7.4339    2.9854   -9.2995 C   0  0  0  0  0  0  0  0  0  0  0  0
   -6.8537    2.3371   -8.2194 C   0  0  0  0  0  0  0  0  0  0  0  0
   -7.4270    1.7568   -7.0088 C   0  0  0  0  0  0  0  0  0  0  0  0
   -8.7672    1.6935   -6.7367 C   0  0  0  0  0  0  0  0  0  0  0  0
   -9.3785    1.1175   -5.6011 C   0  0  0  0  0  0  0  0  0  0  0  0
   -9.9770    0.6752   -4.7262 N   0  0  0  0  0  0  0  0  0  0  0  0
   -9.7693    2.1995   -7.5946 C   0  0  0  0  0  0  0  0  0  0  0  0
  -10.6362    2.5858   -8.2394 N   0  0  0  0  0  0  0  0  0  0  0  0
    6.4940   -3.2787    7.4910 H   0  0  0  0  0  0  0  0  0  0  0  0
    8.2343    2.1297    4.8608 H   0  0  0  0  0  0  0  0  0  0  0  0
    9.9507    3.9383    4.7308 H   0  0  0  0  0  0  0  0  0  0  0  0
   12.9881    1.2776    7.6050 H   0  0  0  0  0  0  0  0  0  0  0  0
   11.3328   -0.5085    7.7417 H   0  0  0  0  0  0  0  0  0  0  0  0
   -0.0735   -3.0593    5.1473 H   0  0  0  0  0  0  0  0  0  0  0  0
   -3.1056   -1.9680    1.8792 H   0  0  0  0  0  0  0  0  0  0  0  0
   -8.6706   -1.3364    3.6749 H   0  0  0  0  0  0  0  0  0  0  0  0
   -7.4063   -0.1558    4.0698 H   0  0  0  0  0  0  0  0  0  0  0  0
   -5.9198   -2.0110    4.8351 H   0  0  0  0  0  0  0  0  0  0  0  0
   -7.4402   -1.9970    5.7359 H   0  0  0  0  0  0  0  0  0  0  0  0
   -7.1857   -3.1822    4.4513 H   0  0  0  0  0  0  0  0  0  0  0  0
   -2.2739   -1.4108   -5.2909 H   0  0  0  0  0  0  0  0  0  0  0  0
   -0.0857   -1.0057   -6.6063 H   0  0  0  0  0  0  0  0  0  0  0  0
    2.9050   -0.2291   -4.4727 H   0  0  0  0  0  0  0  0  0  0  0  0
    2.4101   -0.3621   -6.1685 H   0  0  0  0  0  0  0  0  0  0  0  0
    2.1058    2.1271   -4.4142 H   0  0  0  0  0  0  0  0  0  0  0  0
    1.6041    2.0061   -6.1026 H   0  0  0  0  0  0  0  0  0  0  0  0
    3.3172    1.9023   -5.6811 H   0  0  0  0  0  0  0  0  0  0  0  0
   -3.6142    0.3519   -4.8551 H   0  0  0  0  0  0  0  0  0  0  0  0
   -7.5175    0.7067   -4.5789 H   0  0  0  0  0  0  0  0  0  0  0  0
   -3.5773    2.4469   -9.1522 H   0  0  0  0  0  0  0  0  0  0  0  0
   -4.6987    3.2960  -12.3722 H   0  0  0  0  0  0  0  0  0  0  0  0
   -4.5362    4.8424  -11.5603 H   0  0  0  0  0  0  0  0  0  0  0  0
   -3.3306    3.5728  -11.2791 H   0  0  0  0  0  0  0  0  0  0  0  0
   -8.4930    3.1610   -9.3865 H   0  0  0  0  0  0  0  0  0  0  0  0
  1  2  2  0  0  0  0
  2  3  1  0  0  0  0
  3  4  2  0  0  0  0
  3  5  1  0  0  0  0
  5  6  2  0  0  0  0
  6  7  1  0  0  0  0
  7  8  2  0  0  0  0
  8  9  1  0  0  0  0
  9 10  1  0  0  0  0
  9 11  2  0  0  0  0
 11 12  1  0  0  0  0
 11 13  1  0  0  0  0
 13 14  2  0  0  0  0
 14 15  1  0  0  0  0
 15 16  2  0  0  0  0
 16 17  1  0  0  0  0
 17 18  2  0  0  0  0
 18 19  1  0  0  0  0
 19 20  3  0  0  0  0
 18 21  1  0  0  0  0
 21 22  3  0  0  0  0
  1 23  1  0  0  0  0
 23 24  2  0  0  0  0
 24 25  1  0  0  0  0
 25 26  1  0  0  0  0
 26 27  2  0  0  0  0
 27 28  2  0  0  0  0
 25 29  2  0  0  0  0
 29 30  1  0  0  0  0
 30 31  2  0  0  0  0
 31 32  1  0  0  0  0
 32 33  1  0  0  0  0
 33 34  2  0  0  0  0
 29 35  1  0  0  0  0
 35 36  2  0  0  0  0
 36 37  1  0  0  0  0
 37 38  2  0  0  0  0
 38 39  1  0  0  0  0
 38 40  1  0  0  0  0
 40 41  2  0  0  0  0
 41 42  1  0  0  0  0
 42 43  2  0  0  0  0
 43 44  1  0  0  0  0
 44 45  1  0  0  0  0
 45 46  1  0  0  0  0
 46 47  1  0  0  0  0
 47 48  1  0  0  0  0
 46 49  2  0  0  0  0
 49 50  1  0  0  0  0
 49 51  1  0  0  0  0
 51 52  1  0  0  0  0
 43 53  1  0  0  0  0
 53 54  2  0  0  0  0
 54 55  1  0  0  0  0
 55 56  1  0  0  0  0
 56 57  2  0  0  0  0
 57 58  1  0  0  0  0
 58 59  2  0  0  0  0
 59 60  1  0  0  0  0
 60 61  1  0  0  0  0
 59 62  1  0  0  0  0
 55 63  2  0  0  0  0
 63 64  1  0  0  0  0
 54 65  1  0  0  0  0
 65 66  2  0  0  0  0
 66 67  1  0  0  0  0
 66 68  1  0  0  0  0
 68 69  2  0  0  0  0
 69 70  1  0  0  0  0
 70 71  2  0  0  0  0
 70 72  1  0  0  0  0
 72 73  2  0  0  0  0
 73 74  1  0  0  0  0
 74 75  1  0  0  0  0
 74 76  2  0  0  0  0
 76 77  1  0  0  0  0
 76 78  1  0  0  0  0
 78 79  2  0  0  0  0
 79 80  1  0  0  0  0
 80 81  2  0  0  0  0
 81 82  1  0  0  0  0
 82 83  3  0  0  0  0
 81 84  1  0  0  0  0
 84 85  3  0  0  0  0
 17  2  1  0  0  0  0
 34 23  1  0  0  0  0
 39 35  1  0  0  0  0
 64 40  1  0  0  0  0
 80 69  1  0  0  0  0
 16  5  1  0  0  0  0
 28 24  1  0  0  0  0
 34 30  1  0  0  0  0
 63 42  1  0  0  0  0
 79 72  1  0  0  0  0
 14  7  1  0  0  0  0
 51 44  2  0  0  0  0
 67 53  1  0  0  0  0
 62 56  1  0  0  0  0
  1 86  1  0  0  0  0
  6 87  1  0  0  0  0
  8 88  1  0  0  0  0
 13 89  1  0  0  0  0
 15 90  1  0  0  0  0
 36 91  1  0  0  0  0
 41 92  1  0  0  0  0
 47 93  1  0  0  0  0
 47 94  1  0  0  0  0
 48 95  1  0  0  0  0
 48 96  1  0  0  0  0
 48 97  1  0  0  0  0
 57 98  1  0  0  0  0
 58 99  1  0  0  0  0
 60100  1  0  0  0  0
 60101  1  0  0  0  0
 61102  1  0  0  0  0
 61103  1  0  0  0  0
 61104  1  0  0  0  0
 65105  1  0  0  0  0
 68106  1  0  0  0  0
 73107  1  0  0  0  0
 75108  1  0  0  0  0
 75109  1  0  0  0  0
 75110  1  0  0  0  0
 78111  1  0  0  0  0
M  END
