155

C        -11.24700        3.72940       -0.74040
C        -12.20310        2.82340       -0.37410
C        -11.92040        1.51720        0.26980
O        -10.84330        1.01820        0.51840
C        -13.23590        0.99570        0.69630
C        -13.51480       -0.17100        1.34670
C        -14.85450       -0.46550        1.68580
C        -15.19830       -1.65740        2.35240
C        -16.50120       -1.91350        2.67610
F        -16.82600       -3.04850        3.31190
C        -17.51490       -0.99180        2.34750
F        -18.78400       -1.26950        2.67740
C        -17.21240        0.17310        1.70000
C        -15.87880        0.46690        1.35160
C        -15.55730        1.66960        0.68100
C        -14.25280        1.92900        0.35320
C        -13.63030        3.05760       -0.33270
C        -14.29620        4.10400       -0.91750
C        -13.68450        5.13100       -1.66670
N        -13.26820        5.98730       -2.30840
C        -15.69540        4.27080       -0.87180
N        -16.82760        4.45910       -0.85700
C         -9.87940        3.43090       -0.96770
C         -9.41260        2.21780       -1.51790
C         -8.00370        1.90640       -1.65460
N         -7.82300        0.69920       -2.19890
S         -9.25140        0.05290       -2.52920
N        -10.18020        1.24570       -2.01150
C         -6.99020        2.80580       -1.25270
C         -7.46260        4.05530       -0.80090
N         -6.69370        5.07610       -0.41440
S         -7.62820        6.29580        0.03820
N         -9.05420        5.60690       -0.21200
C         -8.86800        4.37250       -0.68400
C         -5.60590        2.48890       -1.25660
C         -5.02790        1.31780       -1.68770
C         -3.63580        1.27120       -1.48870
C         -2.76350        0.19900       -1.76610
C         -3.24020       -1.09240       -2.27410
C         -4.33010       -1.73590       -1.69170
C         -4.74110       -2.96800       -2.16860
C         -4.06040       -3.58490       -3.20100
C         -2.95890       -2.95770       -3.77430
S         -2.13280       -3.79440       -5.09880
C         -0.37940       -3.32800       -4.86490
C          0.18260       -3.86660       -3.56460
C         -2.56750       -1.70700       -3.32620
C         -1.42450        0.41270       -1.48910
C         -0.92680        1.61450       -0.92290
C         -1.80480        2.66890       -0.60820
C         -1.31160        3.87680        0.06730
C         -1.64930        5.14860       -0.38230
C         -1.16220        6.26510        0.27630
C         -0.32400        6.12970        1.36520
C          0.02000        4.85910        1.82020
S          1.09450        4.76470        3.22200
C          1.80600        3.07760        3.09840
C          2.94780        2.94210        4.08670
C         -0.49070        3.73960        1.18490
C         -3.14070        2.47840       -0.92050
S         -4.42960        3.61700       -0.62070
C          0.47230        1.55980       -0.72050
C          1.02800        0.35730       -1.05530
S         -0.14970       -0.76080       -1.69680
C          2.38390       -0.04740       -0.88270
C          3.36090        0.61770       -0.19790
C          4.58440       -0.08620       -0.13360
C          5.77090        0.31820        0.50650
C          5.86460        1.61710        1.15250
S          5.46260        3.07530        0.28810
C          5.83260        4.08290        1.64700
C          5.67020        5.56100        1.57050
C          4.20920        5.96090        1.35990
C          6.23730        3.31950        2.70090
Cl         6.68720        3.95200        4.23320
C          6.25670        1.92420        2.42520
Cl         6.64020        0.76180        3.62550
C          6.83460       -0.57370        0.46910
C          6.76290       -1.83180       -0.19410
C          5.57870       -2.22740       -0.86010
C          5.47790       -3.47290       -1.58550
C          4.39810       -4.31270       -1.68040
C          4.64200       -5.44100       -2.48230
C          5.89360       -5.46090       -3.02370
C          6.53620       -6.51420       -3.85650
C          7.55450       -7.30330       -3.02840
S          6.80400       -4.07670       -2.53820
C          4.51130       -1.34110       -0.78720
S          2.93730       -1.58670       -1.49410
C          7.95530       -2.56510       -0.06140
C          8.94080       -1.91050        0.63630
S          8.40090       -0.31700        1.16550
C         10.25130       -2.28980        1.00330
C         10.95620       -3.44330        0.79760
C         10.53420       -4.69730        0.12560
O          9.52280       -4.93220       -0.50400
C         11.62350       -5.66260        0.36080
C         11.67990       -6.98780       -0.02600
C         12.79270       -7.74950        0.30880
C         12.92240       -9.18830       -0.06850
C         13.80890       -7.11910        1.03140
F         14.88650       -7.85050        1.36900
C         13.77990       -5.79070        1.42250
C         12.66200       -5.04690        1.07570
C         12.30750       -3.65020        1.30850
C         13.14180       -2.71800        1.86440
C         12.87880       -1.34030        2.03250
N         12.77630       -0.20810        2.19600
C         14.44300       -3.00810        2.33180
N         15.50500       -3.17390        2.73360
H        -11.50640        4.77830       -0.81640
H        -12.72380       -0.86120        1.59820
H        -14.43380       -2.37290        2.61200
H        -18.00080        0.86760        1.45490
H        -16.35340        2.35850        0.44940
H         -5.60530        0.53200       -2.13790
H         -4.83410       -1.28390       -0.85150
H         -5.58960       -3.46060       -1.71800
H         -4.36610       -4.55270       -3.56680
H          0.12220       -3.77120       -5.72490
H         -0.28930       -2.24490       -4.92870
H          1.23030       -3.58720       -3.46910
H         -0.36000       -3.45910       -2.71400
H          0.10290       -4.95090       -3.54010
H         -1.75460       -1.18520       -3.80620
H         -2.27500        5.26180       -1.25360
H         -1.42780        7.25130       -0.07300
H          0.07080        6.99570        1.87340
H          2.15520        2.95060        2.07320
H          1.02120        2.35360        3.31770
H          3.40290        1.95820        3.99250
H          3.70840        3.69600        3.90130
H          2.58530        3.06390        5.10440
H         -0.28530        2.74960        1.56050
H          1.04930        2.39060       -0.35930
H          3.20570        1.57310        0.26600
H          6.27070        5.94710        0.74230
H          6.04470        5.99600        2.49840
H          4.12900        7.04130        1.27670
H          3.59690        5.63580        2.19690
H          3.82170        5.51400        0.44760
H          3.47590       -4.15560       -1.15060
H          3.91420       -6.21450       -2.65200
H          5.76650       -7.18710       -4.23990
H          7.04610       -6.05370       -4.70620
H          8.30190       -6.63050       -2.61310
H          7.05660       -7.81310       -2.20650
H          8.05220       -8.04420       -3.64910
H          8.10060       -3.55660       -0.44550
H         10.76260       -1.51890        1.56810
H         10.86060       -7.41940       -0.58080
H         13.84330       -9.34990       -0.62730
H         12.97560       -9.80690        0.82690
H         12.07720       -9.50770       -0.67070
H         14.61060       -5.38890        1.97810
