111

C          6.44010       -2.58760        6.65890
C          7.44710       -1.68590        6.45990
C          7.28880       -0.39930        5.73620
O          6.29830        0.03850        5.19070
C          8.55750        0.32790        5.94360
C          8.91220        1.56100        5.47900
C         10.18110        2.08280        5.81570
C         10.60030        3.34650        5.35660
C         11.83060        3.83050        5.70260
F         12.22770        5.03390        5.26530
C         12.69350        3.07390        6.52020
F         13.89400        3.57400        6.84310
C         12.31490        1.84410        6.98070
C         11.05300        1.31580        6.64140
C         10.65390        0.04350        7.11210
C          9.42310       -0.44710        6.76390
C          8.75440       -1.70580        7.08150
C          9.30900       -2.75370        7.77000
C          8.68270       -3.99920        7.98770
N          8.25450       -5.04660        8.18260
C         10.60320       -2.73240        8.32960
N         11.64210       -2.76430        8.81720
C          5.24970       -2.66240        5.88980
C          5.17510       -2.37820        4.51090
C          3.92100       -2.38160        3.79300
N          4.08910       -2.08260        2.50250
S          5.64920       -1.85630        2.22070
N          6.20120       -2.12200        3.69700
C          2.68230       -2.67550        4.40020
C          2.77030       -3.06550        5.75470
N          1.75990       -3.44510        6.54220
S          2.32700       -3.78150        8.00240
N          3.87240       -3.45700        7.73880
C          4.03110       -3.07800        6.46920
C          1.46420       -2.55680        3.68590
C          0.16520       -2.74880        4.14660
N         -0.80250       -2.51860        3.27050
C         -0.33470       -2.15040        2.10460
S          1.41460       -2.06560        2.02240
C         -1.15950       -1.81140        1.00080
C         -2.52730       -1.73610        1.00510
C         -3.06490       -1.31990       -0.23140
C         -4.42350       -1.15660       -0.56740
C         -5.48390       -1.40630        0.39290
S         -5.49680       -0.64220        1.95550
C         -6.99490       -1.38670        2.39510
C         -7.59260       -1.18000        3.74240
C         -6.99460       -2.15700        4.75790
C         -7.44080       -2.18730        1.38570
Cl        -8.88860       -3.10430        1.46020
C         -6.59300       -2.19420        0.24600
Cl        -6.90620       -3.17290       -1.12450
C         -4.70090       -0.72100       -1.85600
C         -3.69010       -0.48730       -2.82910
C         -2.32940       -0.73010       -2.51840
C         -1.30730       -0.62020       -3.53110
C         -1.39450       -0.97600       -4.85250
C         -0.19870       -0.77490       -5.56210
C          0.80740       -0.26360       -4.79730
C          2.18410        0.12030       -5.21530
C          2.31180        1.63820       -5.36350
S          0.28890       -0.02650       -3.16330
C         -2.05550       -1.09760       -1.20570
S         -0.46950       -1.39640       -0.54590
C         -4.21480        0.05420       -4.01660
C         -5.57940        0.22320       -3.99580
S         -6.27020       -0.30790       -2.46290
C         -6.49700        0.73290       -4.94250
C         -6.32580        1.25400       -6.19410
C         -5.06930        1.46000       -6.95580
O         -3.93690        1.13160       -6.66680
C         -5.46180        2.15970       -8.19290
C         -4.64320        2.60590       -9.21280
C         -5.20510        3.25760      -10.30380
C         -4.38600        3.76970      -11.44210
C         -6.59210        3.42610      -10.30700
F         -7.14590        4.05920      -11.35690
C         -7.43390        2.98540       -9.29950
C         -6.85370        2.33710       -8.21940
C         -7.42700        1.75680       -7.00880
C         -8.76720        1.69350       -6.73670
C         -9.37850        1.11750       -5.60110
N         -9.97700        0.67520       -4.72620
C         -9.76930        2.19950       -7.59460
N        -10.63620        2.58580       -8.23940
H          6.49400       -3.27870        7.49100
H          8.23430        2.12970        4.86080
H          9.95070        3.93830        4.73080
H         12.98810        1.27760        7.60500
H         11.33280       -0.50850        7.74170
H         -0.07350       -3.05930        5.14730
H         -3.10560       -1.96800        1.87920
H         -8.67060       -1.33640        3.67490
H         -7.40630       -0.15580        4.06980
H         -5.91980       -2.01100        4.83510
H         -7.44020       -1.99700        5.73590
H         -7.18570       -3.18220        4.45130
H         -2.27390       -1.41080       -5.29090
H         -0.08570       -1.00570       -6.60630
H          2.90500       -0.22910       -4.47270
H          2.41010       -0.36210       -6.16850
H          2.10580        2.12710       -4.41420
H          1.60410        2.00610       -6.10260
H          3.31720        1.90230       -5.68110
H         -3.61420        0.35190       -4.85510
H         -7.51750        0.70670       -4.57890
H         -3.57730        2.44690       -9.15220
H         -4.69870        3.29600      -12.37220
H         -4.53620        4.84240      -11.56030
H         -3.33060        3.57280      -11.27910
H         -8.49300        3.16100       -9.38650
