
  xtb     02102219063D
 energy: -259.416933218720 gnorm: 0.000425820298 xtb: 6.4.1 (unknown)
131145  0     0  0            999 V2000
   -0.6251   -7.3116    6.2810 C   0  0  0  0  0  0  0  0  0  0  0  0
   -1.5900   -7.1414    7.2299 C   0  0  0  0  0  0  0  0  0  0  0  0
   -2.6714   -6.1244    7.1587 C   0  0  0  0  0  0  0  0  0  0  0  0
   -2.8876   -5.3227    6.2760 O   0  0  0  0  0  0  0  0  0  0  0  0
   -3.5408   -6.3909    8.3225 C   0  0  0  0  0  0  0  0  0  0  0  0
   -4.6590   -5.7153    8.7170 C   0  0  0  0  0  0  0  0  0  0  0  0
   -5.3559   -6.1517    9.8656 C   0  0  0  0  0  0  0  0  0  0  0  0
   -6.5087   -5.4843   10.3230 C   0  0  0  0  0  0  0  0  0  0  0  0
   -7.1671   -5.9313   11.4340 C   0  0  0  0  0  0  0  0  0  0  0  0
   -8.2648   -5.2957   11.8673 F   0  0  0  0  0  0  0  0  0  0  0  0
   -6.7025   -7.0622   12.1349 C   0  0  0  0  0  0  0  0  0  0  0  0
   -7.3686   -7.4777   13.2207 F   0  0  0  0  0  0  0  0  0  0  0  0
   -5.5864   -7.7302   11.7159 C   0  0  0  0  0  0  0  0  0  0  0  0
   -4.8837   -7.2941   10.5744 C   0  0  0  0  0  0  0  0  0  0  0  0
   -3.7261   -7.9772   10.1363 C   0  0  0  0  0  0  0  0  0  0  0  0
   -3.0584   -7.5282    9.0270 C   0  0  0  0  0  0  0  0  0  0  0  0
   -1.8491   -8.0072    8.3630 C   0  0  0  0  0  0  0  0  0  0  0  0
   -1.0575   -9.0382    8.7975 C   0  0  0  0  0  0  0  0  0  0  0  0
    0.1537   -9.4431    8.1971 C   0  0  0  0  0  0  0  0  0  0  0  0
    1.1539   -9.8265    7.7837 N   0  0  0  0  0  0  0  0  0  0  0  0
   -1.3425   -9.8284    9.9308 C   0  0  0  0  0  0  0  0  0  0  0  0
   -1.5252  -10.5081   10.8377 N   0  0  0  0  0  0  0  0  0  0  0  0
   -0.2372   -6.3350    5.3212 C   0  0  0  0  0  0  0  0  0  0  0  0
    0.2326   -6.7125    4.0467 C   0  0  0  0  0  0  0  0  0  0  0  0
    0.5862   -5.7457    3.0245 C   0  0  0  0  0  0  0  0  0  0  0  0
    0.9994   -6.3469    1.9021 N   0  0  0  0  0  0  0  0  0  0  0  0
    0.9251   -7.9297    2.1037 S   0  0  0  0  0  4  0  0  0  0  0  0
    0.3737   -7.9654    3.6082 N   0  0  0  0  0  0  0  0  0  0  0  0
    0.5238   -4.3650    3.2540 C   0  0  0  0  0  0  0  0  0  0  0  0
    0.1447   -3.9858    4.5485 C   0  0  0  0  0  0  0  0  0  0  0  0
    0.0475   -2.7293    5.0024 N   0  0  0  0  0  0  0  0  0  0  0  0
   -0.3790   -2.7644    6.5374 S   0  0  0  0  0  0  0  0  0  0  0  0
   -0.4912   -4.3482    6.7307 N   0  0  0  0  0  0  0  0  0  0  0  0
   -0.2190   -4.9489    5.5700 C   0  0  0  0  0  0  0  0  0  0  0  0
    0.7981   -3.3817    2.2201 C   0  0  0  0  0  0  0  0  0  0  0  0
    1.6411   -2.3081    2.4334 C   0  0  0  0  0  0  0  0  0  0  0  0
    2.3297   -2.2137    3.5791 F   0  0  0  0  0  0  0  0  0  0  0  0
    1.8668   -1.3184    1.4677 C   0  0  0  0  0  0  0  0  0  0  0  0
    2.7228   -0.3395    1.7989 F   0  0  0  0  0  0  0  0  0  0  0  0
    1.2492   -1.3444    0.2258 C   0  0  0  0  0  0  0  0  0  0  0  0
    0.3985   -2.4615   -0.0190 C   0  0  0  0  0  0  0  0  0  0  0  0
   -0.1963   -2.5531   -1.2140 N   0  0  0  0  0  0  0  0  0  0  0  0
   -1.0055   -3.5431   -1.4833 C   0  0  0  0  0  0  0  0  0  0  0  0
   -1.5627   -3.5843   -2.8715 C   0  0  0  0  0  0  0  0  0  0  0  0
   -0.6278   -4.3786   -3.7875 C   0  0  0  0  0  0  0  0  0  0  0  0
   -1.2896   -4.5156   -0.4775 C   0  0  0  0  0  0  0  0  0  0  0  0
   -0.7090   -4.4519    0.6921 N   0  0  0  0  0  0  0  0  0  0  0  0
    0.1617   -3.4633    0.9529 C   0  0  0  0  0  0  0  0  0  0  0  0
   -2.2797   -5.6170   -0.7088 C   0  0  0  0  0  0  0  0  0  0  0  0
   -2.3692   -6.5818    0.4650 C   0  0  0  0  0  0  0  0  0  0  0  0
    1.3915   -0.3326   -0.7857 C   0  0  0  0  0  0  0  0  0  0  0  0
    2.0986    0.8377   -0.7195 C   0  0  0  0  0  0  0  0  0  0  0  0
    1.9669    1.6472   -1.8698 C   0  0  0  0  0  0  0  0  0  0  0  0
    2.5047    2.9289   -2.0813 C   0  0  0  0  0  0  0  0  0  0  0  0
    3.2525    3.6310   -1.0526 C   0  0  0  0  0  0  0  0  0  0  0  0
    4.8143    4.3153   -1.3844 S   0  0  0  0  0  0  0  0  0  0  0  0
    4.9500    4.9728    0.2091 C   0  0  0  0  0  0  0  0  0  0  0  0
    6.1248    5.8029    0.5911 C   0  0  0  0  0  0  0  0  0  0  0  0
    6.0187    7.2002   -0.0246 C   0  0  0  0  0  0  0  0  0  0  0  0
    3.8398    4.6762    0.9427 C   0  0  0  0  0  0  0  0  0  0  0  0
    3.6016    5.1722    2.5682 Cl  0  0  0  0  0  0  0  0  0  0  0  0
    2.8776    3.9090    0.2331 C   0  0  0  0  0  0  0  0  0  0  0  0
    1.3651    3.4682    0.9140 Cl  0  0  0  0  0  0  0  0  0  0  0  0
    2.2546    3.5203   -3.3117 C   0  0  0  0  0  0  0  0  0  0  0  0
    1.4603    2.9011   -4.3155 C   0  0  0  0  0  0  0  0  0  0  0  0
    0.8858    1.6250   -4.0886 C   0  0  0  0  0  0  0  0  0  0  0  0
    0.0231    0.9721   -5.0471 C   0  0  0  0  0  0  0  0  0  0  0  0
   -0.0842   -0.3687   -5.3062 C   0  0  0  0  0  0  0  0  0  0  0  0
   -1.0698   -0.6768   -6.2611 C   0  0  0  0  0  0  0  0  0  0  0  0
   -1.7325    0.4167   -6.7322 C   0  0  0  0  0  0  0  0  0  0  0  0
   -2.8515    0.4762   -7.7128 C   0  0  0  0  0  0  0  0  0  0  0  0
   -4.1697    0.8470   -7.0298 C   0  0  0  0  0  0  0  0  0  0  0  0
   -1.1326    1.8647   -6.0001 S   0  0  0  0  0  0  0  0  0  0  0  0
    1.1709    1.0286   -2.8657 C   0  0  0  0  0  0  0  0  0  0  0  0
    0.5579   -0.5122   -2.3116 S   0  0  0  0  0  0  0  0  0  0  0  0
    1.3712    3.7170   -5.4522 C   0  0  0  0  0  0  0  0  0  0  0  0
    2.0238    4.9324   -5.3346 C   0  0  0  0  0  0  0  0  0  0  0  0
    2.8120    5.0986   -3.7814 S   0  0  0  0  0  0  0  0  0  0  0  0
    1.9997    5.8818   -6.3765 C   0  0  0  0  0  0  0  0  0  0  0  0
    2.5343    7.1374   -6.4495 C   0  0  0  0  0  0  0  0  0  0  0  0
    3.3225    7.8145   -5.4027 C   0  0  0  0  0  0  0  0  0  0  0  0
    3.6444    7.3834   -4.3134 O   0  0  0  0  0  0  0  0  0  0  0  0
    3.6564    9.1439   -5.9455 C   0  0  0  0  0  0  0  0  0  0  0  0
    4.3768   10.1583   -5.3456 C   0  0  0  0  0  0  0  0  0  0  0  0
    4.5811   11.3491   -6.0329 C   0  0  0  0  0  0  0  0  0  0  0  0
    5.3504   12.4884   -5.4503 C   0  0  0  0  0  0  0  0  0  0  0  0
    4.0372   11.4534   -7.3153 C   0  0  0  0  0  0  0  0  0  0  0  0
    4.2300   12.6020   -7.9892 F   0  0  0  0  0  0  0  0  0  0  0  0
    3.3108   10.4518   -7.9383 C   0  0  0  0  0  0  0  0  0  0  0  0
    3.1168    9.2720   -7.2364 C   0  0  0  0  0  0  0  0  0  0  0  0
    2.4117    8.0403   -7.5820 C   0  0  0  0  0  0  0  0  0  0  0  0
    1.7576    7.8123   -8.7640 C   0  0  0  0  0  0  0  0  0  0  0  0
    1.0634    6.6362   -9.1191 C   0  0  0  0  0  0  0  0  0  0  0  0
    0.4759    5.7235   -9.4953 N   0  0  0  0  0  0  0  0  0  0  0  0
    1.6843    8.7482   -9.8185 C   0  0  0  0  0  0  0  0  0  0  0  0
    1.5825    9.4587  -10.7140 N   0  0  0  0  0  0  0  0  0  0  0  0
   -0.1134   -8.2622    6.1972 H   0  0  0  0  0  0  0  0  0  0  0  0
   -5.0045   -4.8563    8.1623 H   0  0  0  0  0  0  0  0  0  0  0  0
   -6.8773   -4.6176    9.7970 H   0  0  0  0  0  0  0  0  0  0  0  0
   -5.2436   -8.5933   12.2650 H   0  0  0  0  0  0  0  0  0  0  0  0
   -3.3990   -8.8420   10.6905 H   0  0  0  0  0  0  0  0  0  0  0  0
   -1.6256   -2.5591   -3.2385 H   0  0  0  0  0  0  0  0  0  0  0  0
   -2.5570   -4.0306   -2.8752 H   0  0  0  0  0  0  0  0  0  0  0  0
   -1.0255   -4.3982   -4.7986 H   0  0  0  0  0  0  0  0  0  0  0  0
    0.3534   -3.9117   -3.8070 H   0  0  0  0  0  0  0  0  0  0  0  0
   -0.5151   -5.4031   -3.4397 H   0  0  0  0  0  0  0  0  0  0  0  0
   -2.0007   -6.1596   -1.6157 H   0  0  0  0  0  0  0  0  0  0  0  0
   -3.2594   -5.1640   -0.8900 H   0  0  0  0  0  0  0  0  0  0  0  0
   -1.4093   -7.0657    0.6217 H   0  0  0  0  0  0  0  0  0  0  0  0
   -3.1203   -7.3430    0.2694 H   0  0  0  0  0  0  0  0  0  0  0  0
   -2.6329   -6.0483    1.3737 H   0  0  0  0  0  0  0  0  0  0  0  0
    2.7005    1.1280    0.1198 H   0  0  0  0  0  0  0  0  0  0  0  0
    7.0399    5.3219    0.2400 H   0  0  0  0  0  0  0  0  0  0  0  0
    6.1644    5.8783    1.6790 H   0  0  0  0  0  0  0  0  0  0  0  0
    6.8907    7.7926    0.2396 H   0  0  0  0  0  0  0  0  0  0  0  0
    5.9548    7.1295   -1.1080 H   0  0  0  0  0  0  0  0  0  0  0  0
    5.1287    7.7058    0.3414 H   0  0  0  0  0  0  0  0  0  0  0  0
    0.5523   -1.1075   -4.8555 H   0  0  0  0  0  0  0  0  0  0  0  0
   -1.2792   -1.6783   -6.5932 H   0  0  0  0  0  0  0  0  0  0  0  0
   -2.6273    1.2196   -8.4817 H   0  0  0  0  0  0  0  0  0  0  0  0
   -2.9472   -0.4984   -8.1963 H   0  0  0  0  0  0  0  0  0  0  0  0
   -4.0868    1.8232   -6.5575 H   0  0  0  0  0  0  0  0  0  0  0  0
   -4.4209    0.1137   -6.2666 H   0  0  0  0  0  0  0  0  0  0  0  0
   -4.9750    0.8810   -7.7589 H   0  0  0  0  0  0  0  0  0  0  0  0
    0.8512    3.4442   -6.3528 H   0  0  0  0  0  0  0  0  0  0  0  0
    1.4473    5.5357   -7.2419 H   0  0  0  0  0  0  0  0  0  0  0  0
    4.7724   10.0192   -4.3510 H   0  0  0  0  0  0  0  0  0  0  0  0
    5.6434   12.2741   -4.4268 H   0  0  0  0  0  0  0  0  0  0  0  0
    4.7507   13.3975   -5.4700 H   0  0  0  0  0  0  0  0  0  0  0  0
    6.2444   12.6785   -6.0438 H   0  0  0  0  0  0  0  0  0  0  0  0
    2.9268   10.6200   -8.9307 H   0  0  0  0  0  0  0  0  0  0  0  0
  1  2  2  0  0  0  0
  2  3  1  0  0  0  0
  3  4  2  0  0  0  0
  3  5  1  0  0  0  0
  5  6  2  0  0  0  0
  6  7  1  0  0  0  0
  7  8  2  0  0  0  0
  8  9  1  0  0  0  0
  9 10  1  0  0  0  0
  9 11  2  0  0  0  0
 11 12  1  0  0  0  0
 11 13  1  0  0  0  0
 13 14  2  0  0  0  0
 14 15  1  0  0  0  0
 15 16  2  0  0  0  0
 16 17  1  0  0  0  0
 17 18  2  0  0  0  0
 18 19  1  0  0  0  0
 19 20  3  0  0  0  0
 18 21  1  0  0  0  0
 21 22  3  0  0  0  0
  1 23  1  0  0  0  0
 23 24  2  0  0  0  0
 24 25  1  0  0  0  0
 25 26  1  0  0  0  0
 26 27  2  0  0  0  0
 27 28  2  0  0  0  0
 25 29  2  0  0  0  0
 29 30  1  0  0  0  0
 30 31  2  0  0  0  0
 31 32  1  0  0  0  0
 32 33  1  0  0  0  0
 33 34  2  0  0  0  0
 29 35  1  0  0  0  0
 35 36  2  0  0  0  0
 36 37  1  0  0  0  0
 36 38  1  0  0  0  0
 38 39  1  0  0  0  0
 38 40  2  0  0  0  0
 40 41  1  0  0  0  0
 41 42  2  0  0  0  0
 42 43  1  0  0  0  0
 43 44  1  0  0  0  0
 44 45  1  0  0  0  0
 43 46  2  0  0  0  0
 46 47  1  0  0  0  0
 47 48  2  0  0  0  0
 46 49  1  0  0  0  0
 49 50  1  0  0  0  0
 40 51  1  0  0  0  0
 51 52  2  0  0  0  0
 52 53  1  0  0  0  0
 53 54  2  0  0  0  0
 54 55  1  0  0  0  0
 55 56  1  0  0  0  0
 56 57  1  0  0  0  0
 57 58  1  0  0  0  0
 58 59  1  0  0  0  0
 57 60  2  0  0  0  0
 60 61  1  0  0  0  0
 60 62  1  0  0  0  0
 62 63  1  0  0  0  0
 54 64  1  0  0  0  0
 64 65  2  0  0  0  0
 65 66  1  0  0  0  0
 66 67  1  0  0  0  0
 67 68  2  0  0  0  0
 68 69  1  0  0  0  0
 69 70  2  0  0  0  0
 70 71  1  0  0  0  0
 71 72  1  0  0  0  0
 70 73  1  0  0  0  0
 66 74  2  0  0  0  0
 74 75  1  0  0  0  0
 65 76  1  0  0  0  0
 76 77  2  0  0  0  0
 77 78  1  0  0  0  0
 77 79  1  0  0  0  0
 79 80  2  0  0  0  0
 80 81  1  0  0  0  0
 81 82  2  0  0  0  0
 81 83  1  0  0  0  0
 83 84  2  0  0  0  0
 84 85  1  0  0  0  0
 85 86  1  0  0  0  0
 85 87  2  0  0  0  0
 87 88  1  0  0  0  0
 87 89  1  0  0  0  0
 89 90  2  0  0  0  0
 90 91  1  0  0  0  0
 91 92  2  0  0  0  0
 92 93  1  0  0  0  0
 93 94  3  0  0  0  0
 92 95  1  0  0  0  0
 95 96  3  0  0  0  0
 17  2  1  0  0  0  0
 34 23  1  0  0  0  0
 48 35  1  0  0  0  0
 75 51  1  0  0  0  0
 91 80  1  0  0  0  0
 16  5  1  0  0  0  0
 28 24  1  0  0  0  0
 34 30  1  0  0  0  0
 48 41  1  0  0  0  0
 74 53  1  0  0  0  0
 90 83  1  0  0  0  0
 14  7  1  0  0  0  0
 62 55  2  0  0  0  0
 78 64  1  0  0  0  0
 73 67  1  0  0  0  0
  1 97  1  0  0  0  0
  6 98  1  0  0  0  0
  8 99  1  0  0  0  0
 13100  1  0  0  0  0
 15101  1  0  0  0  0
 44102  1  0  0  0  0
 44103  1  0  0  0  0
 45104  1  0  0  0  0
 45105  1  0  0  0  0
 45106  1  0  0  0  0
 49107  1  0  0  0  0
 49108  1  0  0  0  0
 50109  1  0  0  0  0
 50110  1  0  0  0  0
 50111  1  0  0  0  0
 52112  1  0  0  0  0
 58113  1  0  0  0  0
 58114  1  0  0  0  0
 59115  1  0  0  0  0
 59116  1  0  0  0  0
 59117  1  0  0  0  0
 68118  1  0  0  0  0
 69119  1  0  0  0  0
 71120  1  0  0  0  0
 71121  1  0  0  0  0
 72122  1  0  0  0  0
 72123  1  0  0  0  0
 72124  1  0  0  0  0
 76125  1  0  0  0  0
 79126  1  0  0  0  0
 84127  1  0  0  0  0
 86128  1  0  0  0  0
 86129  1  0  0  0  0
 86130  1  0  0  0  0
 89131  1  0  0  0  0
M  END
