152

C          2.03360        5.61960        8.75180
C          3.38640        5.70690        8.68920
C          4.19320        5.43090        7.46410
O          3.82050        4.97430        6.40780
C          5.54720        5.93410        7.76520
C          6.64190        5.94110        6.94930
C          7.85370        6.48050        7.43280
C          9.01360        6.51050        6.63420
C         10.17180        7.04490        7.12440
F         11.27390        7.07610        6.36370
C         10.22100        7.57000        8.43190
F         11.36990        8.08800        8.88470
C          9.11260        7.55350        9.23100
C          7.90180        7.00960        8.75570
C          6.75070        6.98900        9.57540
C          5.58580        6.45420        9.08810
C          4.26550        6.29740        9.68840
C          3.93730        6.59540       10.98300
C          2.66950        6.38380       11.56710
N          1.67030        6.23550       12.11230
C          4.83900        7.14510       11.91940
N          5.52440        7.59900       12.72020
C          1.20370        4.97200        7.76430
C          1.57890        3.74730        7.18650
C          0.79970        3.22920        6.18390
C          1.00040        1.98670        5.39300
O          1.83750        1.13130        5.54760
C         -0.08320        2.02490        4.37620
C         -0.88790        3.16290        4.58410
C         -0.34880        3.90240        5.71700
C         -0.76290        5.06770        6.33690
C          0.00730        5.58000        7.36920
C         -1.94500        3.42140        3.73150
C         -2.21560        2.51940        2.71250
C         -1.45470        1.36370        2.53750
C         -0.34070        1.13780        3.36240
C         -1.79740        0.38720        1.52450
C         -1.79400       -0.99310        1.64200
N         -1.60380       -1.70180        2.81520
C         -1.00890       -2.97210        2.77060
C         -1.47340       -3.98380        3.60540
C         -0.91240       -5.24460        3.56500
C          0.12530       -5.51550        2.68240
S          0.90470       -7.09060        2.51910
C          0.12150       -8.10540        3.80350
C          0.60440       -4.50060        1.85710
C          0.04950       -3.24110        1.90280
C         -1.86980       -1.11010        4.06060
C         -2.99990       -0.31880        4.24650
C         -3.16600        0.40890        5.40770
C         -2.20530        0.34770        6.40850
S         -2.23990        1.34390        7.86610
C         -3.44400        2.64060        7.45470
C         -1.13360       -0.53160        6.27430
C         -0.96630       -1.25390        5.11470
C         -2.08040       -1.59960        0.38840
S         -2.10120       -3.22610       -0.20360
C         -2.41630       -2.66020       -1.83490
C         -2.48840       -1.28040       -1.91080
N         -2.60860       -0.52090       -3.06960
C         -3.40210        0.63230       -3.01510
C         -4.57320        0.63820       -2.25510
C         -5.34340        1.77560       -2.17260
C         -4.97130        2.93220       -2.85430
S         -6.03270        4.33010       -2.66460
C         -5.37610        5.54230       -3.84500
C         -3.81160        2.92920       -3.61780
C         -3.03380        1.79070       -3.69310
C         -1.90820       -0.86340       -4.23130
C         -0.65250       -1.46290       -4.15690
C          0.00360       -1.88110       -5.29750
C         -0.57590       -1.68740       -6.54360
S          0.14820       -2.20460       -8.06980
C          1.65780       -3.07910       -7.57040
C         -1.80880       -1.04330       -6.62850
C         -2.46880       -0.63900       -5.49070
C         -2.31640       -0.69410       -0.63180
S         -2.24730        0.93840       -0.07830
C         -2.36630       -3.56690       -2.96150
C         -3.16580       -3.32570       -4.09180
C         -2.85330       -3.97100       -5.26250
C         -3.39820       -3.73770       -6.62490
O         -4.36410       -3.08560       -6.94030
C         -2.46380       -4.47570       -7.51840
C         -1.53530       -5.19000       -6.73390
C         -1.78310       -4.88530       -5.33360
C         -1.10860       -5.24690       -4.18220
C         -1.40780       -4.58130       -3.00350
C         -0.52670       -5.91080       -7.34750
C         -0.41640       -5.85330       -8.72660
C         -1.30320       -5.10590       -9.50890
C         -2.36880       -4.43290       -8.88680
C         -1.07840       -4.96450      -10.92570
C         -1.95610       -4.53640      -11.90360
C         -1.38490       -4.46790      -13.16820
C         -0.04590       -4.83000      -13.18390
C          0.80100       -4.83590      -14.32600
C          2.14200       -5.14930      -14.36380
C          2.90570       -5.51780      -13.24100
N          3.56860       -5.81690      -12.35260
C          2.86110       -5.10850      -15.57800
N          3.46150       -5.08020      -16.55420
C          0.19090       -4.46820      -15.55550
N         -0.30490       -4.17440      -16.54480
S          0.48960       -5.27840      -11.58900
H          1.51110        6.11310        9.56230
H          6.58110        5.53830        5.94970
H          8.99110        6.11240        5.63180
H          9.16880        7.95820       10.22940
H          6.81880        7.40280       10.56840
H          2.44830        3.21200        7.53240
H         -1.65830        5.58200        6.02050
H         -0.29100        6.50180        7.84810
H         -2.55860        4.30210        3.85160
H         -3.04820        2.69760        2.04700
H          0.31070        0.29430        3.19630
H         -2.28390       -3.77700        4.28860
H         -1.30110       -6.00680        4.22040
H         -0.93710       -8.22510        3.59180
H          0.61720       -9.07010        3.75520
H          0.28290       -7.65670        4.77930
H          1.42340       -4.71250        1.18700
H          0.44170       -2.45490        1.27480
H         -3.73890       -0.24840        3.46220
H         -4.04230        1.02760        5.51480
H         -3.20700        3.05530        6.47970
H         -4.45400        2.24170        7.48050
H         -3.33010        3.40000        8.22190
H         -0.41010       -0.60740        7.07080
H         -0.10620       -1.89590        5.00080
H         -4.87820       -0.25800       -1.73490
H         -6.24910        1.78030       -1.58580
H         -4.38770        5.87020       -3.53600
H         -6.06610        6.37990       -3.81740
H         -5.35720        5.11200       -4.84190
H         -3.49260        3.81030       -4.15060
H         -2.12560        1.80110       -4.27720
H         -0.18790       -1.61420       -3.19400
H          0.96830       -2.35140       -5.19780
H          2.08710       -3.46910       -8.48810
H          1.40330       -3.89800       -6.90410
H          2.35280       -2.38690       -7.10420
H         -2.25230       -0.88180       -7.59870
H         -3.43810       -0.17170       -5.57150
H         -3.98220       -2.62170       -4.05410
H         -0.32410       -5.98830       -4.20170
H         -0.84220       -4.79780       -2.10840
H          0.18320       -6.48270       -6.76880
H          0.38990       -6.38260       -9.21490
H         -3.06530       -3.84040       -9.45810
H         -2.98550       -4.29850      -11.70800
H         -1.91290       -4.16180      -14.05450
