
  xtb     02102220003D
 energy: -243.147583300650 gnorm: 0.000210975231 xtb: 6.4.1 (unknown)
131145  0     0  0            999 V2000
    7.8737   -6.2709   -6.0493 C   0  0  0  0  0  0  0  0  0  0  0  0
    8.5618   -5.1992   -6.5173 C   0  0  0  0  0  0  0  0  0  0  0  0
    8.0784   -3.7887   -6.4474 C   0  0  0  0  0  0  0  0  0  0  0  0
    7.1052   -3.3582   -5.8727 O   0  0  0  0  0  0  0  0  0  0  0  0
    8.9833   -3.0211   -7.3248 C   0  0  0  0  0  0  0  0  0  0  0  0
    8.9390   -1.6886   -7.6195 C   0  0  0  0  0  0  0  0  0  0  0  0
    9.9061   -1.1475   -8.4943 C   0  0  0  0  0  0  0  0  0  0  0  0
    9.9097    0.2211   -8.8276 C   0  0  0  0  0  0  0  0  0  0  0  0
   10.8536    0.7179   -9.6819 C   0  0  0  0  0  0  0  0  0  0  0  0
   10.8554    2.0188  -10.0006 F   0  0  0  0  0  0  0  0  0  0  0  0
   11.8333   -0.1298  -10.2381 C   0  0  0  0  0  0  0  0  0  0  0  0
   12.7448    0.3854  -11.0729 F   0  0  0  0  0  0  0  0  0  0  0  0
   11.8564   -1.4615   -9.9326 C   0  0  0  0  0  0  0  0  0  0  0  0
   10.8971   -2.0058   -9.0542 C   0  0  0  0  0  0  0  0  0  0  0  0
   10.9151   -3.3815   -8.7314 C   0  0  0  0  0  0  0  0  0  0  0  0
    9.9719   -3.8843   -7.8724 C   0  0  0  0  0  0  0  0  0  0  0  0
    9.7482   -5.2317   -7.3606 C   0  0  0  0  0  0  0  0  0  0  0  0
   10.5582   -6.3130   -7.5779 C   0  0  0  0  0  0  0  0  0  0  0  0
   10.3647   -7.5947   -7.0186 C   0  0  0  0  0  0  0  0  0  0  0  0
   10.2782   -8.6577   -6.5939 N   0  0  0  0  0  0  0  0  0  0  0  0
   11.7178   -6.2817   -8.3821 C   0  0  0  0  0  0  0  0  0  0  0  0
   12.6655   -6.3173   -9.0283 N   0  0  0  0  0  0  0  0  0  0  0  0
    6.7484   -6.2053   -5.1478 C   0  0  0  0  0  0  0  0  0  0  0  0
    6.7371   -5.3137   -4.0615 C   0  0  0  0  0  0  0  0  0  0  0  0
    5.6133   -5.2495   -3.2773 C   0  0  0  0  0  0  0  0  0  0  0  0
    5.3401   -4.3724   -2.1067 C   0  0  0  0  0  0  0  0  0  0  0  0
    6.0967   -3.6117   -1.5549 O   0  0  0  0  0  0  0  0  0  0  0  0
    3.9175   -4.6497   -1.7702 C   0  0  0  0  0  0  0  0  0  0  0  0
    3.4191   -5.6565   -2.6216 C   0  0  0  0  0  0  0  0  0  0  0  0
    4.4759   -6.0395   -3.5474 C   0  0  0  0  0  0  0  0  0  0  0  0
    4.5087   -6.9644   -4.5758 C   0  0  0  0  0  0  0  0  0  0  0  0
    5.6534   -7.0523   -5.3526 C   0  0  0  0  0  0  0  0  0  0  0  0
    2.0985   -6.0521   -2.5147 C   0  0  0  0  0  0  0  0  0  0  0  0
    1.2841   -5.4103   -1.5940 C   0  0  0  0  0  0  0  0  0  0  0  0
    1.7633   -4.3919   -0.7659 C   0  0  0  0  0  0  0  0  0  0  0  0
    3.1170   -4.0246   -0.8464 C   0  0  0  0  0  0  0  0  0  0  0  0
    0.8701   -3.6497    0.0960 C   0  0  0  0  0  0  0  0  0  0  0  0
    1.1949   -2.8359    1.1385 C   0  0  0  0  0  0  0  0  0  0  0  0
    0.0954   -2.1107    1.6669 C   0  0  0  0  0  0  0  0  0  0  0  0
    0.1025   -1.1384    2.6785 C   0  0  0  0  0  0  0  0  0  0  0  0
    1.3236   -0.7395    3.3913 C   0  0  0  0  0  0  0  0  0  0  0  0
    2.4900   -0.4083    2.7085 C   0  0  0  0  0  0  0  0  0  0  0  0
    3.6154   -0.0185    3.4149 C   0  0  0  0  0  0  0  0  0  0  0  0
    3.5819    0.0776    4.7920 C   0  0  0  0  0  0  0  0  0  0  0  0
    2.4091   -0.2230    5.4799 C   0  0  0  0  0  0  0  0  0  0  0  0
    2.4260   -0.0318    7.2360 S   0  0  0  0  0  0  0  0  0  0  0  0
    0.6688    0.2564    7.6646 C   0  0  0  0  0  0  0  0  0  0  0  0
   -0.0512   -1.0058    8.1015 C   0  0  0  0  0  0  0  0  0  0  0  0
    1.2943   -0.6542    4.7802 C   0  0  0  0  0  0  0  0  0  0  0  0
   -1.1114   -0.5249    2.9547 C   0  0  0  0  0  0  0  0  0  0  0  0
   -2.3134   -0.8250    2.2683 C   0  0  0  0  0  0  0  0  0  0  0  0
   -2.3254   -1.8208    1.2781 C   0  0  0  0  0  0  0  0  0  0  0  0
   -3.5495   -2.1659    0.5417 C   0  0  0  0  0  0  0  0  0  0  0  0
   -3.9734   -3.4914    0.4633 C   0  0  0  0  0  0  0  0  0  0  0  0
   -5.1283   -3.8045   -0.2262 C   0  0  0  0  0  0  0  0  0  0  0  0
   -5.8776   -2.8187   -0.8457 C   0  0  0  0  0  0  0  0  0  0  0  0
   -5.4535   -1.4982   -0.7829 C   0  0  0  0  0  0  0  0  0  0  0  0
   -6.3142   -0.1395   -1.5130 S   0  0  0  0  0  0  0  0  0  0  0  0
   -7.5947   -0.9301   -2.5569 C   0  0  0  0  0  0  0  0  0  0  0  0
   -8.2817    0.1369   -3.3880 C   0  0  0  0  0  0  0  0  0  0  0  0
   -4.2899   -1.1783   -0.0911 C   0  0  0  0  0  0  0  0  0  0  0  0
   -1.1156   -2.4380    1.0062 C   0  0  0  0  0  0  0  0  0  0  0  0
   -0.8515   -3.6216   -0.2454 S   0  0  0  0  0  0  0  0  0  0  0  0
   -3.3817    0.0079    2.6888 C   0  0  0  0  0  0  0  0  0  0  0  0
   -3.0228    0.9231    3.6333 C   0  0  0  0  0  0  0  0  0  0  0  0
   -1.3446    0.7630    4.1017 S   0  0  0  0  0  0  0  0  0  0  0  0
   -3.8309    2.0023    4.1575 C   0  0  0  0  0  0  0  0  0  0  0  0
   -4.8682    2.5475    3.3909 C   0  0  0  0  0  0  0  0  0  0  0  0
   -5.5668    3.6561    3.8066 C   0  0  0  0  0  0  0  0  0  0  0  0
   -5.2791    4.2753    5.0256 C   0  0  0  0  0  0  0  0  0  0  0  0
   -4.3016    3.6864    5.8328 C   0  0  0  0  0  0  0  0  0  0  0  0
   -4.0177    4.2312    7.0277 F   0  0  0  0  0  0  0  0  0  0  0  0
   -3.5769    2.5901    5.4009 C   0  0  0  0  0  0  0  0  0  0  0  0
   -2.6226    2.0890    6.2063 F   0  0  0  0  0  0  0  0  0  0  0  0
   -5.9516    5.4729    5.4872 C   0  0  0  0  0  0  0  0  0  0  0  0
   -6.2044    6.5637    4.7348 C   0  0  0  0  0  0  0  0  0  0  0  0
   -5.6297    6.8421    3.3725 C   0  0  0  0  0  0  0  0  0  0  0  0
   -5.0257    6.0801    2.6515 O   0  0  0  0  0  0  0  0  0  0  0  0
   -5.9073    8.2584    3.1384 C   0  0  0  0  0  0  0  0  0  0  0  0
   -6.6276    8.7794    4.1988 C   0  0  0  0  0  0  0  0  0  0  0  0
   -7.0171   10.4458    4.0188 S   0  0  0  0  0  0  0  0  0  0  0  0
   -6.1820   10.4695    2.4747 C   0  0  0  0  0  0  0  0  0  0  0  0
   -6.0448   11.5668    1.6396 C   0  0  0  0  0  0  0  0  0  0  0  0
   -5.3529   11.4052    0.4555 C   0  0  0  0  0  0  0  0  0  0  0  0
   -4.8047   10.1705    0.1019 C   0  0  0  0  0  0  0  0  0  0  0  0
   -4.9371    9.0752    0.9241 C   0  0  0  0  0  0  0  0  0  0  0  0
   -5.6318    9.2136    2.1279 C   0  0  0  0  0  0  0  0  0  0  0  0
   -6.8804    7.7783    5.1964 C   0  0  0  0  0  0  0  0  0  0  0  0
   -7.6491    7.9472    6.3153 C   0  0  0  0  0  0  0  0  0  0  0  0
   -7.9605    6.9357    7.2463 C   0  0  0  0  0  0  0  0  0  0  0  0
   -8.2679    6.1489    8.0230 N   0  0  0  0  0  0  0  0  0  0  0  0
   -8.2413    9.1946    6.6113 C   0  0  0  0  0  0  0  0  0  0  0  0
   -8.7247   10.2039    6.8621 N   0  0  0  0  0  0  0  0  0  0  0  0
    8.1399   -7.2604   -6.4013 H   0  0  0  0  0  0  0  0  0  0  0  0
    8.1769   -1.0582   -7.1872 H   0  0  0  0  0  0  0  0  0  0  0  0
    9.1664    0.8819   -8.4099 H   0  0  0  0  0  0  0  0  0  0  0  0
   12.6143   -2.0953  -10.3659 H   0  0  0  0  0  0  0  0  0  0  0  0
   11.6734   -4.0049   -9.1767 H   0  0  0  0  0  0  0  0  0  0  0  0
    7.5973   -4.7061   -3.8309 H   0  0  0  0  0  0  0  0  0  0  0  0
    3.6614   -7.6009   -4.7811 H   0  0  0  0  0  0  0  0  0  0  0  0
    5.6875   -7.7574   -6.1709 H   0  0  0  0  0  0  0  0  0  0  0  0
    1.6945   -6.8266   -3.1488 H   0  0  0  0  0  0  0  0  0  0  0  0
    0.2426   -5.6892   -1.5204 H   0  0  0  0  0  0  0  0  0  0  0  0
    3.5197   -3.2368   -0.2297 H   0  0  0  0  0  0  0  0  0  0  0  0
    2.1888   -2.7539    1.5384 H   0  0  0  0  0  0  0  0  0  0  0  0
    2.5053   -0.4259    1.6292 H   0  0  0  0  0  0  0  0  0  0  0  0
    4.5217    0.2310    2.8835 H   0  0  0  0  0  0  0  0  0  0  0  0
    4.4504    0.3974    5.3463 H   0  0  0  0  0  0  0  0  0  0  0  0
    0.1928    0.7282    6.8063 H   0  0  0  0  0  0  0  0  0  0  0  0
    0.7056    0.9740    8.4841 H   0  0  0  0  0  0  0  0  0  0  0  0
   -1.0859   -0.7681    8.3413 H   0  0  0  0  0  0  0  0  0  0  0  0
   -0.0409   -1.7620    7.3197 H   0  0  0  0  0  0  0  0  0  0  0  0
    0.4251   -1.4259    8.9844 H   0  0  0  0  0  0  0  0  0  0  0  0
    0.3964   -0.9455    5.3003 H   0  0  0  0  0  0  0  0  0  0  0  0
   -3.4083   -4.2661    0.9585 H   0  0  0  0  0  0  0  0  0  0  0  0
   -5.4603   -4.8308   -0.2797 H   0  0  0  0  0  0  0  0  0  0  0  0
   -6.7811   -3.0912   -1.3666 H   0  0  0  0  0  0  0  0  0  0  0  0
   -8.3077   -1.4288   -1.8995 H   0  0  0  0  0  0  0  0  0  0  0  0
   -7.0943   -1.6600   -3.1937 H   0  0  0  0  0  0  0  0  0  0  0  0
   -9.0435   -0.3187   -4.0170 H   0  0  0  0  0  0  0  0  0  0  0  0
   -8.7547    0.8748   -2.7443 H   0  0  0  0  0  0  0  0  0  0  0  0
   -7.5610    0.6461   -4.0236 H   0  0  0  0  0  0  0  0  0  0  0  0
   -3.9559   -0.1516   -0.0734 H   0  0  0  0  0  0  0  0  0  0  0  0
   -4.3824   -0.0890    2.3091 H   0  0  0  0  0  0  0  0  0  0  0  0
   -5.0921    2.1085    2.4323 H   0  0  0  0  0  0  0  0  0  0  0  0
   -6.3525    4.0560    3.1879 H   0  0  0  0  0  0  0  0  0  0  0  0
   -6.2038    5.4880    6.5412 H   0  0  0  0  0  0  0  0  0  0  0  0
   -6.4688   12.5199    1.9138 H   0  0  0  0  0  0  0  0  0  0  0  0
   -5.2334   12.2483   -0.2076 H   0  0  0  0  0  0  0  0  0  0  0  0
   -4.2694   10.0790   -0.8309 H   0  0  0  0  0  0  0  0  0  0  0  0
   -4.5191    8.1147    0.6670 H   0  0  0  0  0  0  0  0  0  0  0  0
  1  2  2  0  0  0  0
  2  3  1  0  0  0  0
  3  4  2  0  0  0  0
  3  5  1  0  0  0  0
  5  6  2  0  0  0  0
  6  7  1  0  0  0  0
  7  8  2  0  0  0  0
  8  9  1  0  0  0  0
  9 10  1  0  0  0  0
  9 11  2  0  0  0  0
 11 12  1  0  0  0  0
 11 13  1  0  0  0  0
 13 14  2  0  0  0  0
 14 15  1  0  0  0  0
 15 16  2  0  0  0  0
 16 17  1  0  0  0  0
 17 18  2  0  0  0  0
 18 19  1  0  0  0  0
 19 20  3  0  0  0  0
 18 21  1  0  0  0  0
 21 22  3  0  0  0  0
  1 23  1  0  0  0  0
 23 24  2  0  0  0  0
 24 25  1  0  0  0  0
 25 26  1  0  0  0  0
 26 27  2  0  0  0  0
 26 28  1  0  0  0  0
 28 29  2  0  0  0  0
 29 30  1  0  0  0  0
 30 31  1  0  0  0  0
 31 32  2  0  0  0  0
 29 33  1  0  0  0  0
 33 34  2  0  0  0  0
 34 35  1  0  0  0  0
 35 36  2  0  0  0  0
 35 37  1  0  0  0  0
 37 38  2  0  0  0  0
 38 39  1  0  0  0  0
 39 40  2  0  0  0  0
 40 41  1  0  0  0  0
 41 42  2  0  0  0  0
 42 43  1  0  0  0  0
 43 44  2  0  0  0  0
 44 45  1  0  0  0  0
 45 46  1  0  0  0  0
 46 47  1  0  0  0  0
 47 48  1  0  0  0  0
 45 49  2  0  0  0  0
 40 50  1  0  0  0  0
 50 51  2  0  0  0  0
 51 52  1  0  0  0  0
 52 53  1  0  0  0  0
 53 54  2  0  0  0  0
 54 55  1  0  0  0  0
 55 56  2  0  0  0  0
 56 57  1  0  0  0  0
 57 58  1  0  0  0  0
 58 59  1  0  0  0  0
 59 60  1  0  0  0  0
 57 61  2  0  0  0  0
 52 62  2  0  0  0  0
 62 63  1  0  0  0  0
 51 64  1  0  0  0  0
 64 65  2  0  0  0  0
 65 66  1  0  0  0  0
 65 67  1  0  0  0  0
 67 68  2  0  0  0  0
 68 69  1  0  0  0  0
 69 70  2  0  0  0  0
 70 71  1  0  0  0  0
 71 72  1  0  0  0  0
 71 73  2  0  0  0  0
 73 74  1  0  0  0  0
 70 75  1  0  0  0  0
 75 76  2  0  0  0  0
 76 77  1  0  0  0  0
 77 78  2  0  0  0  0
 77 79  1  0  0  0  0
 79 80  2  0  0  0  0
 80 81  1  0  0  0  0
 81 82  1  0  0  0  0
 82 83  2  0  0  0  0
 83 84  1  0  0  0  0
 84 85  2  0  0  0  0
 85 86  1  0  0  0  0
 86 87  2  0  0  0  0
 80 88  1  0  0  0  0
 88 89  2  0  0  0  0
 89 90  1  0  0  0  0
 90 91  3  0  0  0  0
 89 92  1  0  0  0  0
 92 93  3  0  0  0  0
 17  2  1  0  0  0  0
 32 23  1  0  0  0  0
 63 37  1  0  0  0  0
 73 67  1  0  0  0  0
 88 76  1  0  0  0  0
 16  5  1  0  0  0  0
 30 25  2  0  0  0  0
 62 39  1  0  0  0  0
 87 79  1  0  0  0  0
 14  7  1  0  0  0  0
 36 28  1  0  0  0  0
 49 41  1  0  0  0  0
 66 50  1  0  0  0  0
 87 82  1  0  0  0  0
 61 53  1  0  0  0  0
  1 94  1  0  0  0  0
  6 95  1  0  0  0  0
  8 96  1  0  0  0  0
 13 97  1  0  0  0  0
 15 98  1  0  0  0  0
 24 99  1  0  0  0  0
 31100  1  0  0  0  0
 32101  1  0  0  0  0
 33102  1  0  0  0  0
 34103  1  0  0  0  0
 36104  1  0  0  0  0
 38105  1  0  0  0  0
 42106  1  0  0  0  0
 43107  1  0  0  0  0
 44108  1  0  0  0  0
 47109  1  0  0  0  0
 47110  1  0  0  0  0
 48111  1  0  0  0  0
 48112  1  0  0  0  0
 48113  1  0  0  0  0
 49114  1  0  0  0  0
 54115  1  0  0  0  0
 55116  1  0  0  0  0
 56117  1  0  0  0  0
 59118  1  0  0  0  0
 59119  1  0  0  0  0
 60120  1  0  0  0  0
 60121  1  0  0  0  0
 60122  1  0  0  0  0
 61123  1  0  0  0  0
 64124  1  0  0  0  0
 68125  1  0  0  0  0
 69126  1  0  0  0  0
 75127  1  0  0  0  0
 83128  1  0  0  0  0
 84129  1  0  0  0  0
 85130  1  0  0  0  0
 86131  1  0  0  0  0
M  END
