219

C          8.88060        0.88200        0.29560
C          9.41770        1.02650        1.54320
C          8.62210        1.06580        2.79090
O          7.46490        0.73770        2.95660
C          9.52000        1.67010        3.79890
C          9.24390        2.00170        5.09340
C         10.26060        2.58140        5.88580
C         10.02680        2.94340        7.22620
C         11.02500        3.50670        7.97110
F         10.79970        3.85190        9.24610
C         12.29780        3.73050        7.40970
F         13.25720        4.28310        8.16350
C         12.55500        3.38940        6.11130
C         11.54750        2.80720        5.31670
C         11.80460        2.45090        3.97260
C         10.80470        1.88900        3.22470
C         10.77420        1.42420        1.84380
C         11.84920        1.26370        1.00740
C         13.16560        1.63780        1.34120
N         14.24900        1.93590        1.57570
C         11.75600        0.63700       -0.25180
N         11.73200        0.08880       -1.26090
C          7.53410        0.48050        0.03310
C          6.83940       -0.54420        0.68770
O          7.41870       -1.55700        1.35490
C          8.74290       -2.00940        1.09260
C          9.50820       -2.19140        2.39480
C          5.40980       -0.63850        0.58510
O          4.67020       -1.48150        1.33290
C          5.11990       -1.90980        2.61570
C          3.88450       -2.22090        3.44650
C          4.70170        0.12100       -0.34220
C          5.41410        1.06550       -1.11840
C          6.82280        1.24140       -0.93350
N          7.32380        2.17910       -1.72910
S          6.13120        2.77110       -2.64390
N          4.92870        1.86400       -2.06360
C          3.28450       -0.04520       -0.56000
C          2.55490       -1.21430       -0.71080
N          3.06660       -2.50010       -0.73590
C          4.35920       -2.73380       -1.21570
C          5.18470       -3.68660       -0.61840
C          6.50150       -3.80380       -1.00310
C          7.03090       -2.96690       -1.98240
S          8.76730       -3.07230       -2.30350
C          9.15570       -1.42030       -2.95280
C          6.18940       -2.08550       -2.64770
C          4.86560       -1.97890       -2.27270
C          2.29160       -3.53410       -0.19670
C          1.47320       -3.29590        0.90520
C          0.66680       -4.29160        1.42080
C          0.67960       -5.55770        0.85280
S         -0.33400       -6.89720        1.39800
C         -1.14880       -6.25180        2.88400
C          1.51920       -5.80910       -0.23290
C          2.30680       -4.81110       -0.75970
C          1.18570       -0.92120       -0.93140
S         -0.23230       -1.88030       -1.16870
C         -1.21960       -0.43020       -1.32210
C         -0.47650        0.73200       -1.12840
N         -0.95210        2.04070       -1.05640
C         -1.93730        2.41980       -0.14370
C         -2.52290        3.68470       -0.22320
C         -3.53230        4.04150        0.64230
C         -4.02630        3.13670        1.57590
S         -5.37380        3.67160        2.58430
C         -6.15450        2.10940        3.07730
C         -3.43230        1.88710        1.68000
C         -2.38840        1.54380        0.84480
C         -0.13080        2.97670       -1.71160
C          0.34790        4.12980       -1.09230
C          1.24380        4.94410       -1.74990
C          1.69200        4.61780       -3.02630
S          2.89670        5.67450       -3.77050
C          3.77610        4.52870       -4.87620
C          1.18890        3.49170       -3.66290
C          0.28330        2.68260       -3.00890
C          0.89360        0.43220       -0.95250
S          2.31210        1.39810       -0.75530
C         -2.61400       -0.54060       -1.55060
C         -3.42360       -1.65960       -1.36640
N         -2.96060       -2.95210       -1.09390
C         -3.43630       -3.57020        0.06640
C         -3.78080       -4.92250        0.09950
C         -4.23680       -5.49340        1.26530
C         -4.37300       -4.73190        2.42540
S         -4.92060       -5.59010        3.87110
C         -5.31340       -4.25920        5.04180
C         -4.05410       -3.38170        2.39320
C         -3.59130       -2.80990        1.22360
C         -2.33110       -3.66710       -2.11980
C         -1.47320       -4.72860       -1.82170
C         -0.83400       -5.41140       -2.82840
C         -1.01820       -5.04870       -4.16180
S         -0.12640       -5.98870       -5.36160
C         -0.78580       -5.40620       -6.95030
C         -1.85660       -3.98670       -4.46480
C         -2.50970       -3.30810       -3.45280
C         -4.78510       -1.32430       -1.48100
S         -6.24850       -2.19930       -1.21220
C         -7.19260       -0.71280       -1.46950
C         -6.38040        0.34220       -1.96740
N         -6.81250        1.48420       -2.54460
C         -5.86410        2.50130       -2.86450
C         -5.61480        3.54420       -1.98130
C         -4.68990        4.50870       -2.31480
C         -3.95770        4.41280       -3.49670
S         -2.70050        5.62630       -3.72880
C         -1.75130        5.00890       -5.14500
C         -4.23060        3.38670       -4.39130
C         -5.19660        2.44710       -4.08100
C         -8.14930        1.71370       -2.91830
C         -8.77550        2.91950       -2.60420
C        -10.10720        3.10510       -2.90490
C        -10.83770        2.10590       -3.54680
S        -12.54890        2.41910       -3.79690
C        -13.18300        0.88550       -4.52880
C        -10.18990        0.93820       -3.93970
C         -8.86190        0.74570       -3.62190
C         -5.01890       -0.01000       -1.86960
S         -3.53430        0.86110       -2.05830
C         -8.51510       -0.69420       -1.05450
C         -9.17650        0.45140       -0.62710
C         -8.47530        1.59330       -0.04070
O         -7.26950        1.76660        0.05900
C         -9.52470        2.46350        0.52480
C         -9.38570        3.63630        1.20490
C        -10.54800        4.30990        1.64740
C        -10.46340        5.52170        2.35820
C        -11.60090        6.15270        2.77910
F        -11.51840        7.30570        3.46060
C        -12.86680        5.60200        2.50460
F        -13.96660        6.24220        2.92910
C        -12.98000        4.42650        1.81510
C        -11.82790        3.74990        1.37040
C        -11.93570        2.52680        0.66460
C        -10.79800        1.89160        0.25210
C        -10.58620        0.64410       -0.47910
C        -11.57030       -0.13680       -1.03970
C        -12.94790        0.11870       -0.92310
N        -14.08630        0.26810       -0.87370
C        -11.30630       -1.24260       -1.86780
N        -11.16730       -2.12450       -2.59240
H          9.42860        1.26240       -0.55900
H          8.26310        1.82570        5.50860
H          9.05760        2.77960        7.67070
H         13.53540        3.56650        5.69740
H         12.78420        2.63990        3.56350
H          9.27430       -1.34000        0.41210
H          8.63730       -2.98290        0.59830
H          9.63100       -1.24670        2.91740
H          8.96780       -2.87230        3.04670
H         10.48850       -2.60670        2.17880
H          5.71570       -1.12180        3.08500
H          5.73780       -2.80750        2.50730
H          3.26050       -1.33550        3.53650
H          4.18560       -2.54430        4.43870
H          3.30560       -3.01060        2.97410
H          4.79710       -4.30480        0.17670
H          7.14280       -4.53110       -0.52840
H          8.58600       -0.67610       -2.40430
H          8.93750       -1.37230       -4.01580
H         10.21770       -1.26950       -2.78360
H          6.55790       -1.47740       -3.45900
H          4.22110       -1.28610       -2.79330
H          1.47160       -2.31900        1.36450
H          0.03580       -4.06480        2.26510
H         -1.76780       -5.39720        2.62800
H         -1.77820       -7.05790        3.24780
H         -0.40340       -5.99660        3.63180
H          1.53300       -6.79840       -0.66380
H          2.93350       -5.01120       -1.61550
H         -2.19360        4.38240       -0.97640
H         -3.96770        5.02730        0.59460
H         -7.09880        2.37910        3.54070
H         -6.33240        1.51650        2.18500
H         -5.53300        1.58220        3.79540
H         -3.76780        1.17340        2.41600
H         -1.92080        0.57730        0.96060
H          0.04800        4.36310       -0.08260
H          1.63210        5.82720       -1.26690
H          3.20980        4.36890       -5.78930
H          3.95000        3.59500       -4.34970
H          4.72090        5.00750       -5.11340
H          1.49900        3.23630       -4.66390
H         -0.09960        1.79630       -3.49540
H         -3.70350       -5.52010       -0.79500
H         -4.50050       -6.53930        1.29130
H         -5.78850       -4.74490        5.88840
H         -6.00420       -3.55930        4.58110
H         -4.40430       -3.76200        5.36820
H         -4.15210       -2.76500        3.27260
H         -3.34180       -1.75860        1.20650
H         -1.30010       -5.00370       -0.79460
H         -0.17490       -6.23130       -2.59160
H         -0.32590       -6.03540       -7.70580
H         -0.50630       -4.36970       -7.11610
H         -1.86410       -5.53360       -6.96980
H         -2.01860       -3.67600       -5.48460
H         -3.16750       -2.49000       -3.70740
H         -6.12140        3.56720       -1.02910
H         -4.50480        5.34110       -1.65620
H         -0.88170        5.65520       -5.21400
H         -2.33950        5.08290       -6.05520
H         -1.43650        3.98810       -4.95080
H         -3.70330        3.30750       -5.32800
H         -5.41640        1.65030       -4.77650
H         -8.22430        3.70030       -2.10510
H        -10.60390        4.02330       -2.63160
H        -14.25660        1.02660       -4.60460
H        -12.97210        0.04250       -3.87780
H        -12.75750        0.73980       -5.51750
H        -10.71040        0.16690       -4.48270
H         -8.37750       -0.17350       -3.91500
H         -9.01710       -1.65060       -0.97170
H         -8.40800        4.04920        1.40590
H         -9.49960        5.95480        2.57650
H        -13.95810        4.01890        1.61300
H        -12.91740        2.12240        0.47600
