
  xtb     02102219503D
 energy: -256.027431398671 gnorm: 0.004165350793 xtb: 6.4.1 (unknown)
136148  0     0  0            999 V2000
   -4.4503   -0.5168   -8.4245 C   0  0  0  0  0  0  0  0  0  0  0  0
   -5.1936    0.6077   -8.2136 C   0  0  0  0  0  0  0  0  0  0  0  0
   -5.2655    1.3192   -6.9081 C   0  0  0  0  0  0  0  0  0  0  0  0
   -4.9629    0.9187   -5.8038 O   0  0  0  0  0  0  0  0  0  0  0  0
   -5.7088    2.6858   -7.2296 C   0  0  0  0  0  0  0  0  0  0  0  0
   -5.8384    3.7445   -6.3776 C   0  0  0  0  0  0  0  0  0  0  0  0
   -6.3037    4.9755   -6.8889 C   0  0  0  0  0  0  0  0  0  0  0  0
   -6.4604    6.0986   -6.0533 C   0  0  0  0  0  0  0  0  0  0  0  0
   -6.9178    7.2784   -6.5689 C   0  0  0  0  0  0  0  0  0  0  0  0
   -7.0694    8.3478   -5.7772 F   0  0  0  0  0  0  0  0  0  0  0  0
   -7.2384    7.3834   -7.9379 C   0  0  0  0  0  0  0  0  0  0  0  0
   -7.6927    8.5500   -8.4150 F   0  0  0  0  0  0  0  0  0  0  0  0
   -7.0907    6.3123   -8.7739 C   0  0  0  0  0  0  0  0  0  0  0  0
   -6.6198    5.0806   -8.2751 C   0  0  0  0  0  0  0  0  0  0  0  0
   -6.4614    3.9673   -9.1328 C   0  0  0  0  0  0  0  0  0  0  0  0
   -6.0109    2.7804   -8.6160 C   0  0  0  0  0  0  0  0  0  0  0  0
   -5.7406    1.4869   -9.2334 C   0  0  0  0  0  0  0  0  0  0  0  0
   -6.0240    1.1300  -10.5232 C   0  0  0  0  0  0  0  0  0  0  0  0
   -6.5854    2.0064  -11.4759 C   0  0  0  0  0  0  0  0  0  0  0  0
   -7.0343    2.6781  -12.2909 N   0  0  0  0  0  0  0  0  0  0  0  0
   -5.8297   -0.1667  -11.0454 C   0  0  0  0  0  0  0  0  0  0  0  0
   -5.7210   -1.2042  -11.5246 N   0  0  0  0  0  0  0  0  0  0  0  0
   -3.9443   -1.3129   -7.3476 C   0  0  0  0  0  0  0  0  0  0  0  0
   -4.6790   -1.5637   -6.1953 C   0  0  0  0  0  0  0  0  0  0  0  0
   -4.0776   -2.0191   -5.0301 C   0  0  0  0  0  0  0  0  0  0  0  0
   -4.8819   -2.1931   -3.9635 F   0  0  0  0  0  0  0  0  0  0  0  0
   -2.7064   -2.2172   -4.8912 C   0  0  0  0  0  0  0  0  0  0  0  0
   -1.9848   -2.2009   -6.1131 C   0  0  0  0  0  0  0  0  0  0  0  0
   -2.6000   -1.7658   -7.3415 C   0  0  0  0  0  0  0  0  0  0  0  0
   -1.7345   -1.7497   -8.3502 N   0  0  0  0  0  0  0  0  0  0  0  0
   -0.3018   -2.2547   -7.8170 S   0  0  0  0  0  0  0  0  0  0  0  0
   -0.6960   -2.4862   -6.2772 N   0  0  0  0  0  0  0  0  0  0  0  0
   -2.0451   -2.2056   -3.6183 C   0  0  0  0  0  0  0  0  0  0  0  0
   -2.5062   -1.5157   -2.5307 C   0  0  0  0  0  0  0  0  0  0  0  0
   -1.5606   -1.4016   -1.4901 C   0  0  0  0  0  0  0  0  0  0  0  0
   -1.7073   -0.6823   -0.2915 C   0  0  0  0  0  0  0  0  0  0  0  0
   -2.8977    0.1432   -0.0506 C   0  0  0  0  0  0  0  0  0  0  0  0
   -3.6130    0.0559    1.1399 C   0  0  0  0  0  0  0  0  0  0  0  0
   -4.7387    0.8364    1.3344 C   0  0  0  0  0  0  0  0  0  0  0  0
   -5.1714    1.7061    0.3499 C   0  0  0  0  0  0  0  0  0  0  0  0
   -4.4643    1.7933   -0.8407 C   0  0  0  0  0  0  0  0  0  0  0  0
   -4.9923    2.8866   -2.1444 S   0  0  0  0  0  0  0  0  0  0  0  0
   -6.6883    2.2528   -2.4154 C   0  0  0  0  0  0  0  0  0  0  0  0
   -6.6760    0.8306   -2.9364 C   0  0  0  0  0  0  0  0  0  0  0  0
   -3.3256    1.0316   -1.0351 C   0  0  0  0  0  0  0  0  0  0  0  0
   -0.6479   -0.7488    0.5978 C   0  0  0  0  0  0  0  0  0  0  0  0
    0.5412   -1.4710    0.3238 C   0  0  0  0  0  0  0  0  0  0  0  0
    0.6861   -2.1881   -0.8792 C   0  0  0  0  0  0  0  0  0  0  0  0
    1.8870   -2.9954   -1.1303 C   0  0  0  0  0  0  0  0  0  0  0  0
    2.5806   -2.9179   -2.3355 C   0  0  0  0  0  0  0  0  0  0  0  0
    3.7047   -3.6974   -2.5360 C   0  0  0  0  0  0  0  0  0  0  0  0
    4.1562   -4.5605   -1.5529 C   0  0  0  0  0  0  0  0  0  0  0  0
    3.4580   -4.6569   -0.3571 C   0  0  0  0  0  0  0  0  0  0  0  0
    3.9564   -5.6974    0.9885 S   0  0  0  0  0  0  0  0  0  0  0  0
    4.7829   -7.1086    0.1747 C   0  0  0  0  0  0  0  0  0  0  0  0
    3.8287   -7.8949   -0.7021 C   0  0  0  0  0  0  0  0  0  0  0  0
    2.3290   -3.8771   -0.1505 C   0  0  0  0  0  0  0  0  0  0  0  0
   -0.3650   -2.1100   -1.7797 C   0  0  0  0  0  0  0  0  0  0  0  0
   -0.4266   -2.8205   -3.3778 S   0  0  0  0  0  0  0  0  0  0  0  0
    1.5074   -1.2920    1.3447 C   0  0  0  0  0  0  0  0  0  0  0  0
    1.0873   -0.4979    2.3724 C   0  0  0  0  0  0  0  0  0  0  0  0
   -0.5458    0.0902    2.1162 S   0  0  0  0  0  0  0  0  0  0  0  0
    1.8109   -0.1471    3.5781 C   0  0  0  0  0  0  0  0  0  0  0  0
    1.4786    0.9984    4.3113 C   0  0  0  0  0  0  0  0  0  0  0  0
    0.4910    1.8119    3.8998 F   0  0  0  0  0  0  0  0  0  0  0  0
    2.1455    1.3309    5.4705 C   0  0  0  0  0  0  0  0  0  0  0  0
    1.7452    2.4134    6.1633 F   0  0  0  0  0  0  0  0  0  0  0  0
    3.1848    0.5452    5.9692 C   0  0  0  0  0  0  0  0  0  0  0  0
    3.5504   -0.5959    5.2438 C   0  0  0  0  0  0  0  0  0  0  0  0
    4.5662   -1.4197    5.6357 O   0  0  0  0  0  0  0  0  0  0  0  0
    5.8211   -0.8399    5.9644 C   0  0  0  0  0  0  0  0  0  0  0  0
    6.3932   -0.0074    4.8256 C   0  0  0  0  0  0  0  0  0  0  0  0
    2.8659   -0.9464    4.0667 C   0  0  0  0  0  0  0  0  0  0  0  0
    3.2477   -2.0346    3.3443 O   0  0  0  0  0  0  0  0  0  0  0  0
    3.1669   -3.3181    3.9643 C   0  0  0  0  0  0  0  0  0  0  0  0
    1.7256   -3.7050    4.2702 C   0  0  0  0  0  0  0  0  0  0  0  0
    3.7944    0.9218    7.2429 C   0  0  0  0  0  0  0  0  0  0  0  0
    4.2892    2.1531    7.4779 C   0  0  0  0  0  0  0  0  0  0  0  0
    4.4414    3.1999    6.4197 C   0  0  0  0  0  0  0  0  0  0  0  0
    4.4316    3.0282    5.2234 O   0  0  0  0  0  0  0  0  0  0  0  0
    4.6977    4.4510    7.1525 C   0  0  0  0  0  0  0  0  0  0  0  0
    4.7878    5.7363    6.6532 C   0  0  0  0  0  0  0  0  0  0  0  0
    5.0322    6.7921    7.5231 C   0  0  0  0  0  0  0  0  0  0  0  0
    5.1310    8.2065    7.0575 C   0  0  0  0  0  0  0  0  0  0  0  0
    5.1858    6.4891    8.8800 C   0  0  0  0  0  0  0  0  0  0  0  0
    5.4224    7.5047    9.7279 F   0  0  0  0  0  0  0  0  0  0  0  0
    5.1083    5.2110    9.4060 C   0  0  0  0  0  0  0  0  0  0  0  0
    4.8578    4.1711    8.5224 C   0  0  0  0  0  0  0  0  0  0  0  0
    4.7128    2.7384    8.7451 C   0  0  0  0  0  0  0  0  0  0  0  0
    4.9614    2.0703    9.9098 C   0  0  0  0  0  0  0  0  0  0  0  0
    4.8808    0.6681   10.0526 C   0  0  0  0  0  0  0  0  0  0  0  0
    4.8543   -0.4675   10.2151 N   0  0  0  0  0  0  0  0  0  0  0  0
    5.3775    2.6953   11.1062 C   0  0  0  0  0  0  0  0  0  0  0  0
    5.7187    3.1462   12.1041 N   0  0  0  0  0  0  0  0  0  0  0  0
   -4.1010   -0.7590   -9.4203 H   0  0  0  0  0  0  0  0  0  0  0  0
   -5.5859    3.6442   -5.3324 H   0  0  0  0  0  0  0  0  0  0  0  0
   -6.2152    6.0294   -5.0047 H   0  0  0  0  0  0  0  0  0  0  0  0
   -7.3410    6.4151   -9.8184 H   0  0  0  0  0  0  0  0  0  0  0  0
   -6.6918    4.0828  -10.1795 H   0  0  0  0  0  0  0  0  0  0  0  0
   -5.7408   -1.3790   -6.1759 H   0  0  0  0  0  0  0  0  0  0  0  0
   -3.4783   -1.0622   -2.4864 H   0  0  0  0  0  0  0  0  0  0  0  0
   -3.2965   -0.6367    1.9048 H   0  0  0  0  0  0  0  0  0  0  0  0
   -5.2859    0.7674    2.2627 H   0  0  0  0  0  0  0  0  0  0  0  0
   -6.0463    2.3180    0.5103 H   0  0  0  0  0  0  0  0  0  0  0  0
   -7.2358    2.3373   -1.4781 H   0  0  0  0  0  0  0  0  0  0  0  0
   -7.1245    2.9369   -3.1430 H   0  0  0  0  0  0  0  0  0  0  0  0
   -7.6905    0.5112   -3.1654 H   0  0  0  0  0  0  0  0  0  0  0  0
   -6.0733    0.7644   -3.8392 H   0  0  0  0  0  0  0  0  0  0  0  0
   -6.2618    0.1518   -2.1927 H   0  0  0  0  0  0  0  0  0  0  0  0
   -2.7659    1.1433   -1.9515 H   0  0  0  0  0  0  0  0  0  0  0  0
    2.2532   -2.2339   -3.1026 H   0  0  0  0  0  0  0  0  0  0  0  0
    4.2471   -3.6270   -3.4671 H   0  0  0  0  0  0  0  0  0  0  0  0
    5.0476   -5.1432   -1.7253 H   0  0  0  0  0  0  0  0  0  0  0  0
    5.1405   -7.7129    1.0093 H   0  0  0  0  0  0  0  0  0  0  0  0
    5.6442   -6.7384   -0.3805 H   0  0  0  0  0  0  0  0  0  0  0  0
    2.9901   -8.2594   -0.1127 H   0  0  0  0  0  0  0  0  0  0  0  0
    4.3439   -8.7474   -1.1403 H   0  0  0  0  0  0  0  0  0  0  0  0
    3.4402   -7.2720   -1.5063 H   0  0  0  0  0  0  0  0  0  0  0  0
    1.7848   -3.9777    0.7758 H   0  0  0  0  0  0  0  0  0  0  0  0
    2.4957   -1.7056    1.2952 H   0  0  0  0  0  0  0  0  0  0  0  0
    5.7423   -0.2365    6.8774 H   0  0  0  0  0  0  0  0  0  0  0  0
    6.4568   -1.7036    6.1732 H   0  0  0  0  0  0  0  0  0  0  0  0
    5.7877    0.8809    4.6552 H   0  0  0  0  0  0  0  0  0  0  0  0
    7.4060    0.2996    5.0715 H   0  0  0  0  0  0  0  0  0  0  0  0
    6.4130   -0.5951    3.9108 H   0  0  0  0  0  0  0  0  0  0  0  0
    3.7715   -3.3460    4.8743 H   0  0  0  0  0  0  0  0  0  0  0  0
    3.5956   -3.9941    3.2210 H   0  0  0  0  0  0  0  0  0  0  0  0
    1.6935   -4.7303    4.6258 H   0  0  0  0  0  0  0  0  0  0  0  0
    1.3083   -3.0530    5.0353 H   0  0  0  0  0  0  0  0  0  0  0  0
    1.1145   -3.6235    3.3745 H   0  0  0  0  0  0  0  0  0  0  0  0
    3.7391    0.1788    8.0291 H   0  0  0  0  0  0  0  0  0  0  0  0
    4.6589    5.9105    5.5958 H   0  0  0  0  0  0  0  0  0  0  0  0
    6.1135    8.6125    7.2963 H   0  0  0  0  0  0  0  0  0  0  0  0
    4.3943    8.8228    7.5716 H   0  0  0  0  0  0  0  0  0  0  0  0
    4.9679    8.2737    5.9862 H   0  0  0  0  0  0  0  0  0  0  0  0
    5.2353    5.0666   10.4663 H   0  0  0  0  0  0  0  0  0  0  0  0
  1  2  2  0  0  0  0
  2  3  1  0  0  0  0
  3  4  2  0  0  0  0
  3  5  1  0  0  0  0
  5  6  2  0  0  0  0
  6  7  1  0  0  0  0
  7  8  2  0  0  0  0
  8  9  1  0  0  0  0
  9 10  1  0  0  0  0
  9 11  2  0  0  0  0
 11 12  1  0  0  0  0
 11 13  1  0  0  0  0
 13 14  2  0  0  0  0
 14 15  1  0  0  0  0
 15 16  2  0  0  0  0
 16 17  1  0  0  0  0
 17 18  2  0  0  0  0
 18 19  1  0  0  0  0
 19 20  3  0  0  0  0
 18 21  1  0  0  0  0
 21 22  3  0  0  0  0
  1 23  1  0  0  0  0
 23 24  2  0  0  0  0
 24 25  1  0  0  0  0
 25 26  1  0  0  0  0
 25 27  2  0  0  0  0
 27 28  1  0  0  0  0
 28 29  1  0  0  0  0
 29 30  2  0  0  0  0
 30 31  1  0  0  0  0
 31 32  1  0  0  0  0
 27 33  1  0  0  0  0
 33 34  2  0  0  0  0
 34 35  1  0  0  0  0
 35 36  2  0  0  0  0
 36 37  1  0  0  0  0
 37 38  2  0  0  0  0
 38 39  1  0  0  0  0
 39 40  2  0  0  0  0
 40 41  1  0  0  0  0
 41 42  1  0  0  0  0
 42 43  1  0  0  0  0
 43 44  1  0  0  0  0
 41 45  2  0  0  0  0
 36 46  1  0  0  0  0
 46 47  2  0  0  0  0
 47 48  1  0  0  0  0
 48 49  1  0  0  0  0
 49 50  2  0  0  0  0
 50 51  1  0  0  0  0
 51 52  2  0  0  0  0
 52 53  1  0  0  0  0
 53 54  1  0  0  0  0
 54 55  1  0  0  0  0
 55 56  1  0  0  0  0
 53 57  2  0  0  0  0
 48 58  2  0  0  0  0
 58 59  1  0  0  0  0
 47 60  1  0  0  0  0
 60 61  2  0  0  0  0
 61 62  1  0  0  0  0
 61 63  1  0  0  0  0
 63 64  2  0  0  0  0
 64 65  1  0  0  0  0
 64 66  1  0  0  0  0
 66 67  1  0  0  0  0
 66 68  2  0  0  0  0
 68 69  1  0  0  0  0
 69 70  1  0  0  0  0
 70 71  1  0  0  0  0
 71 72  1  0  0  0  0
 69 73  2  0  0  0  0
 73 74  1  0  0  0  0
 74 75  1  0  0  0  0
 75 76  1  0  0  0  0
 68 77  1  0  0  0  0
 77 78  2  0  0  0  0
 78 79  1  0  0  0  0
 79 80  2  0  0  0  0
 79 81  1  0  0  0  0
 81 82  2  0  0  0  0
 82 83  1  0  0  0  0
 83 84  1  0  0  0  0
 83 85  2  0  0  0  0
 85 86  1  0  0  0  0
 85 87  1  0  0  0  0
 87 88  2  0  0  0  0
 88 89  1  0  0  0  0
 89 90  2  0  0  0  0
 90 91  1  0  0  0  0
 91 92  3  0  0  0  0
 90 93  1  0  0  0  0
 93 94  3  0  0  0  0
 17  2  1  0  0  0  0
 29 23  1  0  0  0  0
 59 33  1  0  0  0  0
 73 63  1  0  0  0  0
 89 78  1  0  0  0  0
 16  5  1  0  0  0  0
 32 28  2  0  0  0  0
 58 35  1  0  0  0  0
 88 81  1  0  0  0  0
 14  7  1  0  0  0  0
 45 37  1  0  0  0  0
 62 46  1  0  0  0  0
 57 49  1  0  0  0  0
  1 95  1  0  0  0  0
  6 96  1  0  0  0  0
  8 97  1  0  0  0  0
 13 98  1  0  0  0  0
 15 99  1  0  0  0  0
 24100  1  0  0  0  0
 34101  1  0  0  0  0
 38102  1  0  0  0  0
 39103  1  0  0  0  0
 40104  1  0  0  0  0
 43105  1  0  0  0  0
 43106  1  0  0  0  0
 44107  1  0  0  0  0
 44108  1  0  0  0  0
 44109  1  0  0  0  0
 45110  1  0  0  0  0
 50111  1  0  0  0  0
 51112  1  0  0  0  0
 52113  1  0  0  0  0
 55114  1  0  0  0  0
 55115  1  0  0  0  0
 56116  1  0  0  0  0
 56117  1  0  0  0  0
 56118  1  0  0  0  0
 57119  1  0  0  0  0
 60120  1  0  0  0  0
 71121  1  0  0  0  0
 71122  1  0  0  0  0
 72123  1  0  0  0  0
 72124  1  0  0  0  0
 72125  1  0  0  0  0
 75126  1  0  0  0  0
 75127  1  0  0  0  0
 76128  1  0  0  0  0
 76129  1  0  0  0  0
 76130  1  0  0  0  0
 77131  1  0  0  0  0
 82132  1  0  0  0  0
 84133  1  0  0  0  0
 84134  1  0  0  0  0
 84135  1  0  0  0  0
 87136  1  0  0  0  0
M  END
