84

C         -0.03750        6.43360       -0.31720
C         -0.68070        6.43930       -1.51980
C         -1.42450        5.27330       -2.06480
O         -1.71290        4.23590       -1.50730
C         -1.62360        5.57170       -3.49660
C         -2.19840        4.78300       -4.45090
C         -2.24550        5.24430       -5.78500
C         -2.81940        4.46640       -6.80930
C         -2.83840        4.92880       -8.09520
F         -3.38040        4.18560       -9.06960
C         -2.28840        6.18730       -8.41130
F         -2.32010        6.61410       -9.68050
C         -1.72700        6.96590       -7.43830
C         -1.68980        6.51770       -6.10260
C         -1.10310        7.31270       -5.09090
C         -1.07100        6.84610       -3.80310
C         -0.52580        7.41840       -2.57660
C         -0.03060        8.68680       -2.42870
C          0.40410        9.23240       -1.20180
N          0.75420        9.74620       -0.23700
C          0.07160        9.61870       -3.48220
N          0.18130       10.40980       -4.30670
C         -0.30020        5.49210        0.71740
C          0.74440        4.89930        1.45390
C          0.52310        3.74920        2.30260
N          1.66680        3.28340        2.80650
S          2.87950        4.19210        2.28780
N          2.04040        5.21110        1.37820
C         -0.75390        3.18320        2.51310
C         -1.82070        3.91490        1.94330
N         -3.12410        3.66750        2.08860
S         -3.95820        4.73150        1.22930
N         -2.73700        5.56500        0.62350
C         -1.59090        5.03420        1.05170
C         -0.90920        1.92110        3.13380
C         -2.09880        1.24380        3.42790
N         -1.96450        0.00480        3.85250
C         -0.70830       -0.37230        3.91120
S          0.43920        0.88790        3.47240
C         -0.27250       -1.69460        4.15020
C         -1.15160       -2.77050        4.41090
C         -0.71500       -4.15250        4.32810
N         -1.72260       -4.99850        4.54700
S         -3.05320       -4.15540        4.85430
N         -2.44820       -2.68460        4.69980
C          0.59520       -4.51220        3.94580
C          1.50860       -3.43850        3.89440
N          2.83160       -3.53150        3.75460
S          3.45830       -2.06140        3.70150
N          2.10640       -1.21770        3.87820
C          1.08200       -2.06190        3.99560
C          0.92940       -5.85000        3.60150
C          1.78830       -6.18730        2.59470
C          2.17130       -5.27330        1.48640
O          1.86310       -4.11100        1.32800
C          2.89760       -6.11330        0.51540
C          3.44230       -5.74190       -0.67970
C          4.07800       -6.71890       -1.47690
C          4.65940       -6.38890       -2.71650
C          5.26050       -7.35540       -3.47300
F          5.81170       -7.04050       -4.65300
C          5.30680       -8.69030       -3.02310
F          5.90210       -9.61640       -3.78600
C          4.75250       -9.04040       -1.82390
C          4.12540       -8.06770       -1.01930
C          3.54840       -8.42140        0.22240
C          2.94450       -7.45520        0.98370
C          2.27810       -7.51450        2.28180
C          2.20160       -8.61670        3.09230
C          2.71470       -9.88430        2.74740
N          3.10640      -10.93790        2.51420
C          1.62680       -8.62980        4.38110
N          1.19680       -8.71650        5.44190
H          0.79450        7.10490       -0.14390
H         -2.60660        3.81790       -4.19150
H         -3.24300        3.50040       -6.58310
H         -1.31120        7.92680       -7.69820
H         -0.68190        8.26700       -5.36340
H         -3.07650        1.67370        3.30750
H          0.38850       -6.62070        4.13610
H          3.38820       -4.71610       -1.01140
H          4.63060       -5.37180       -3.07470
H          4.79800      -10.06690       -1.49500
H          3.59380       -9.45170        0.53610
