
  xtb     02102220103D
 energy: -232.539729247349 gnorm: 0.000474408312 xtb: 6.4.1 (unknown)
120133  0     0  0            999 V2000
   -1.0301    8.4918   -6.1923 C   0  0  0  0  0  0  0  0  0  0  0  0
   -1.6435    9.1860   -5.2008 C   0  0  0  0  0  0  0  0  0  0  0  0
   -2.2751    8.5758   -3.9943 C   0  0  0  0  0  0  0  0  0  0  0  0
   -2.2745    7.4146   -3.6562 O   0  0  0  0  0  0  0  0  0  0  0  0
   -3.0053    9.6755   -3.3342 C   0  0  0  0  0  0  0  0  0  0  0  0
   -3.7527    9.6233   -2.1927 C   0  0  0  0  0  0  0  0  0  0  0  0
   -4.3710   10.8026   -1.7235 C   0  0  0  0  0  0  0  0  0  0  0  0
   -5.1447   10.8076   -0.5464 C   0  0  0  0  0  0  0  0  0  0  0  0
   -5.7338   11.9632   -0.1162 C   0  0  0  0  0  0  0  0  0  0  0  0
   -6.4697   11.9675    1.0027 F   0  0  0  0  0  0  0  0  0  0  0  0
   -5.5758   13.1614   -0.8424 C   0  0  0  0  0  0  0  0  0  0  0  0
   -6.1657   14.2777   -0.3965 F   0  0  0  0  0  0  0  0  0  0  0  0
   -4.8309   13.1881   -1.9875 C   0  0  0  0  0  0  0  0  0  0  0  0
   -4.2085   12.0136   -2.4577 C   0  0  0  0  0  0  0  0  0  0  0  0
   -3.4328   12.0341   -3.6385 C   0  0  0  0  0  0  0  0  0  0  0  0
   -2.8330   10.8792   -4.0714 C   0  0  0  0  0  0  0  0  0  0  0  0
   -1.9824   10.6028   -5.2239 C   0  0  0  0  0  0  0  0  0  0  0  0
   -1.5356   11.5324   -6.1232 C   0  0  0  0  0  0  0  0  0  0  0  0
   -0.6652   11.2726   -7.2040 C   0  0  0  0  0  0  0  0  0  0  0  0
    0.0447   11.1470   -8.0974 N   0  0  0  0  0  0  0  0  0  0  0  0
   -1.8811   12.9008   -6.0821 C   0  0  0  0  0  0  0  0  0  0  0  0
   -2.1327   14.0202   -6.1031 N   0  0  0  0  0  0  0  0  0  0  0  0
   -0.6032    7.1150   -6.1303 C   0  0  0  0  0  0  0  0  0  0  0  0
   -0.0422    6.5687   -4.9631 C   0  0  0  0  0  0  0  0  0  0  0  0
    0.3247    5.2464   -4.9678 C   0  0  0  0  0  0  0  0  0  0  0  0
    0.9191    4.4368   -3.8682 C   0  0  0  0  0  0  0  0  0  0  0  0
    1.2429    4.8054   -2.7653 O   0  0  0  0  0  0  0  0  0  0  0  0
    1.0186    3.0679   -4.4378 C   0  0  0  0  0  0  0  0  0  0  0  0
    0.5627    3.0746   -5.7709 C   0  0  0  0  0  0  0  0  0  0  0  0
    0.1414    4.4303   -6.1037 C   0  0  0  0  0  0  0  0  0  0  0  0
   -0.3658    4.9760   -7.2691 C   0  0  0  0  0  0  0  0  0  0  0  0
   -0.7141    6.3175   -7.2759 C   0  0  0  0  0  0  0  0  0  0  0  0
    0.5548    1.9006   -6.4988 C   0  0  0  0  0  0  0  0  0  0  0  0
    0.9634    0.7260   -5.8783 C   0  0  0  0  0  0  0  0  0  0  0  0
    1.3900    0.7115   -4.5516 C   0  0  0  0  0  0  0  0  0  0  0  0
    1.4407    1.9113   -3.8284 C   0  0  0  0  0  0  0  0  0  0  0  0
    1.7359   -0.5393   -3.8703 C   0  0  0  0  0  0  0  0  0  0  0  0
    2.4629   -1.5566   -4.4490 C   0  0  0  0  0  0  0  0  0  0  0  0
    2.9268   -1.4324   -5.7061 F   0  0  0  0  0  0  0  0  0  0  0  0
    2.7702   -2.7464   -3.7651 C   0  0  0  0  0  0  0  0  0  0  0  0
    3.4535   -3.6878   -4.4419 F   0  0  0  0  0  0  0  0  0  0  0  0
    2.3806   -2.9692   -2.4630 C   0  0  0  0  0  0  0  0  0  0  0  0
    1.6530   -1.9249   -1.8276 C   0  0  0  0  0  0  0  0  0  0  0  0
    1.3404   -2.0336   -0.5243 N   0  0  0  0  0  0  0  0  0  0  0  0
    0.6288   -1.1041    0.0581 C   0  0  0  0  0  0  0  0  0  0  0  0
    0.3475   -1.3072    1.5146 C   0  0  0  0  0  0  0  0  0  0  0  0
   -0.8584   -2.2338    1.6984 C   0  0  0  0  0  0  0  0  0  0  0  0
    0.1261   -0.0054   -0.7026 C   0  0  0  0  0  0  0  0  0  0  0  0
    0.4930    0.1550   -1.9474 N   0  0  0  0  0  0  0  0  0  0  0  0
    1.2974   -0.7497   -2.5336 C   0  0  0  0  0  0  0  0  0  0  0  0
   -0.7839    1.0442   -0.1441 C   0  0  0  0  0  0  0  0  0  0  0  0
    0.0317    2.2326    0.3745 C   0  0  0  0  0  0  0  0  0  0  0  0
    2.6838   -4.1876   -1.7072 C   0  0  0  0  0  0  0  0  0  0  0  0
    1.7014   -4.7119   -0.8559 C   0  0  0  0  0  0  0  0  0  0  0  0
    2.0256   -5.7778   -0.0518 C   0  0  0  0  0  0  0  0  0  0  0  0
    1.1988   -6.4393    0.9862 C   0  0  0  0  0  0  0  0  0  0  0  0
    0.0580   -6.1961    1.3021 O   0  0  0  0  0  0  0  0  0  0  0  0
    2.1092   -7.4544    1.5830 C   0  0  0  0  0  0  0  0  0  0  0  0
    3.3541   -7.4195    0.9221 C   0  0  0  0  0  0  0  0  0  0  0  0
    3.3048   -6.3682   -0.0886 C   0  0  0  0  0  0  0  0  0  0  0  0
    4.2558   -5.8861   -0.9660 C   0  0  0  0  0  0  0  0  0  0  0  0
    3.9380   -4.7921   -1.7633 C   0  0  0  0  0  0  0  0  0  0  0  0
    4.3585   -8.2887    1.3039 C   0  0  0  0  0  0  0  0  0  0  0  0
    4.1271   -9.1503    2.3663 C   0  0  0  0  0  0  0  0  0  0  0  0
    2.9232   -9.1334    3.0754 C   0  0  0  0  0  0  0  0  0  0  0  0
    1.8845   -8.2894    2.6471 C   0  0  0  0  0  0  0  0  0  0  0  0
    2.7444   -9.9804    4.2310 C   0  0  0  0  0  0  0  0  0  0  0  0
    2.0332   -9.6918    5.3439 C   0  0  0  0  0  0  0  0  0  0  0  0
    1.6210  -10.7812    6.2775 C   0  0  0  0  0  0  0  0  0  0  0  0
    2.0584  -11.9062    6.3131 O   0  0  0  0  0  0  0  0  0  0  0  0
    0.5321  -10.1998    7.0891 C   0  0  0  0  0  0  0  0  0  0  0  0
   -0.2773  -10.8123    8.0027 C   0  0  0  0  0  0  0  0  0  0  0  0
   -1.2837  -10.0570    8.6448 C   0  0  0  0  0  0  0  0  0  0  0  0
   -2.1420  -10.6404    9.5975 C   0  0  0  0  0  0  0  0  0  0  0  0
   -3.1118   -9.8899   10.2007 C   0  0  0  0  0  0  0  0  0  0  0  0
   -3.9276  -10.4459   11.1057 F   0  0  0  0  0  0  0  0  0  0  0  0
   -3.2667   -8.5260    9.8788 C   0  0  0  0  0  0  0  0  0  0  0  0
   -4.2258   -7.8163   10.4862 F   0  0  0  0  0  0  0  0  0  0  0  0
   -2.4501   -7.9317    8.9586 C   0  0  0  0  0  0  0  0  0  0  0  0
   -1.4385   -8.6775    8.3201 C   0  0  0  0  0  0  0  0  0  0  0  0
   -0.5830   -8.0685    7.3750 C   0  0  0  0  0  0  0  0  0  0  0  0
    0.3944   -8.8172    6.7745 C   0  0  0  0  0  0  0  0  0  0  0  0
    1.4273   -8.4534    5.8102 C   0  0  0  0  0  0  0  0  0  0  0  0
    1.8882   -7.1858    5.5872 C   0  0  0  0  0  0  0  0  0  0  0  0
    3.0562   -6.8830    4.8544 C   0  0  0  0  0  0  0  0  0  0  0  0
    4.0299   -6.5742    4.3320 N   0  0  0  0  0  0  0  0  0  0  0  0
    1.2987   -6.0290    6.1399 C   0  0  0  0  0  0  0  0  0  0  0  0
    0.8471   -5.0594    6.5551 N   0  0  0  0  0  0  0  0  0  0  0  0
   -0.8634    8.9844   -7.1428 H   0  0  0  0  0  0  0  0  0  0  0  0
   -3.8648    8.6942   -1.6549 H   0  0  0  0  0  0  0  0  0  0  0  0
   -5.2749    9.8987    0.0198 H   0  0  0  0  0  0  0  0  0  0  0  0
   -4.7191   14.1139   -2.5299 H   0  0  0  0  0  0  0  0  0  0  0  0
   -3.3350   12.9650   -4.1729 H   0  0  0  0  0  0  0  0  0  0  0  0
    0.1272    7.1752   -4.0883 H   0  0  0  0  0  0  0  0  0  0  0  0
   -0.4912    4.3765   -8.1579 H   0  0  0  0  0  0  0  0  0  0  0  0
   -1.1192    6.7561   -8.1767 H   0  0  0  0  0  0  0  0  0  0  0  0
    0.2208    1.8811   -7.5250 H   0  0  0  0  0  0  0  0  0  0  0  0
    0.9248   -0.1987   -6.4336 H   0  0  0  0  0  0  0  0  0  0  0  0
    1.8030    1.9316   -2.8142 H   0  0  0  0  0  0  0  0  0  0  0  0
    0.1643   -0.3530    2.0075 H   0  0  0  0  0  0  0  0  0  0  0  0
    1.2210   -1.7788    1.9669 H   0  0  0  0  0  0  0  0  0  0  0  0
   -1.7390   -1.8310    1.2016 H   0  0  0  0  0  0  0  0  0  0  0  0
   -1.0782   -2.3486    2.7565 H   0  0  0  0  0  0  0  0  0  0  0  0
   -0.6444   -3.2159    1.2849 H   0  0  0  0  0  0  0  0  0  0  0  0
   -1.3971    0.6324    0.6572 H   0  0  0  0  0  0  0  0  0  0  0  0
   -1.4345    1.3915   -0.9479 H   0  0  0  0  0  0  0  0  0  0  0  0
   -0.6324    2.9781    0.8036 H   0  0  0  0  0  0  0  0  0  0  0  0
    0.5827    2.6938   -0.4409 H   0  0  0  0  0  0  0  0  0  0  0  0
    0.7394    1.9168    1.1383 H   0  0  0  0  0  0  0  0  0  0  0  0
    0.7111   -4.2892   -0.8255 H   0  0  0  0  0  0  0  0  0  0  0  0
    5.2397   -6.3262   -1.0206 H   0  0  0  0  0  0  0  0  0  0  0  0
    4.6930   -4.3873   -2.4199 H   0  0  0  0  0  0  0  0  0  0  0  0
    5.3123   -8.2941    0.7994 H   0  0  0  0  0  0  0  0  0  0  0  0
    4.9117   -9.8171    2.6920 H   0  0  0  0  0  0  0  0  0  0  0  0
    0.9193   -8.3070    3.1321 H   0  0  0  0  0  0  0  0  0  0  0  0
    3.1814  -10.9728    4.1911 H   0  0  0  0  0  0  0  0  0  0  0  0
   -0.1517  -11.8595    8.2323 H   0  0  0  0  0  0  0  0  0  0  0  0
   -2.0373  -11.6827    9.8548 H   0  0  0  0  0  0  0  0  0  0  0  0
   -2.5794   -6.8864    8.7258 H   0  0  0  0  0  0  0  0  0  0  0  0
   -0.7269   -7.0261    7.1393 H   0  0  0  0  0  0  0  0  0  0  0  0
  1  2  2  0  0  0  0
  2  3  1  0  0  0  0
  3  4  2  0  0  0  0
  3  5  1  0  0  0  0
  5  6  2  0  0  0  0
  6  7  1  0  0  0  0
  7  8  2  0  0  0  0
  8  9  1  0  0  0  0
  9 10  1  0  0  0  0
  9 11  2  0  0  0  0
 11 12  1  0  0  0  0
 11 13  1  0  0  0  0
 13 14  2  0  0  0  0
 14 15  1  0  0  0  0
 15 16  2  0  0  0  0
 16 17  1  0  0  0  0
 17 18  2  0  0  0  0
 18 19  1  0  0  0  0
 19 20  3  0  0  0  0
 18 21  1  0  0  0  0
 21 22  3  0  0  0  0
  1 23  1  0  0  0  0
 23 24  2  0  0  0  0
 24 25  1  0  0  0  0
 25 26  1  0  0  0  0
 26 27  2  0  0  0  0
 26 28  1  0  0  0  0
 28 29  2  0  0  0  0
 29 30  1  0  0  0  0
 30 31  1  0  0  0  0
 31 32  2  0  0  0  0
 29 33  1  0  0  0  0
 33 34  2  0  0  0  0
 34 35  1  0  0  0  0
 35 36  2  0  0  0  0
 35 37  1  0  0  0  0
 37 38  2  0  0  0  0
 38 39  1  0  0  0  0
 38 40  1  0  0  0  0
 40 41  1  0  0  0  0
 40 42  2  0  0  0  0
 42 43  1  0  0  0  0
 43 44  2  0  0  0  0
 44 45  1  0  0  0  0
 45 46  1  0  0  0  0
 46 47  1  0  0  0  0
 45 48  2  0  0  0  0
 48 49  1  0  0  0  0
 49 50  2  0  0  0  0
 48 51  1  0  0  0  0
 51 52  1  0  0  0  0
 42 53  1  0  0  0  0
 53 54  2  0  0  0  0
 54 55  1  0  0  0  0
 55 56  1  0  0  0  0
 56 57  2  0  0  0  0
 56 58  1  0  0  0  0
 58 59  2  0  0  0  0
 59 60  1  0  0  0  0
 60 61  1  0  0  0  0
 61 62  2  0  0  0  0
 59 63  1  0  0  0  0
 63 64  2  0  0  0  0
 64 65  1  0  0  0  0
 65 66  2  0  0  0  0
 65 67  1  0  0  0  0
 67 68  2  0  0  0  0
 68 69  1  0  0  0  0
 69 70  2  0  0  0  0
 69 71  1  0  0  0  0
 71 72  2  0  0  0  0
 72 73  1  0  0  0  0
 73 74  2  0  0  0  0
 74 75  1  0  0  0  0
 75 76  1  0  0  0  0
 75 77  2  0  0  0  0
 77 78  1  0  0  0  0
 77 79  1  0  0  0  0
 79 80  2  0  0  0  0
 80 81  1  0  0  0  0
 81 82  2  0  0  0  0
 82 83  1  0  0  0  0
 83 84  2  0  0  0  0
 84 85  1  0  0  0  0
 85 86  3  0  0  0  0
 84 87  1  0  0  0  0
 87 88  3  0  0  0  0
 17  2  1  0  0  0  0
 32 23  1  0  0  0  0
 50 37  1  0  0  0  0
 62 53  1  0  0  0  0
 83 68  1  0  0  0  0
 16  5  1  0  0  0  0
 30 25  2  0  0  0  0
 50 43  1  0  0  0  0
 60 55  2  0  0  0  0
 82 71  1  0  0  0  0
 14  7  1  0  0  0  0
 36 28  1  0  0  0  0
 66 58  1  0  0  0  0
 80 73  1  0  0  0  0
  1 89  1  0  0  0  0
  6 90  1  0  0  0  0
  8 91  1  0  0  0  0
 13 92  1  0  0  0  0
 15 93  1  0  0  0  0
 24 94  1  0  0  0  0
 31 95  1  0  0  0  0
 32 96  1  0  0  0  0
 33 97  1  0  0  0  0
 34 98  1  0  0  0  0
 36 99  1  0  0  0  0
 46100  1  0  0  0  0
 46101  1  0  0  0  0
 47102  1  0  0  0  0
 47103  1  0  0  0  0
 47104  1  0  0  0  0
 51105  1  0  0  0  0
 51106  1  0  0  0  0
 52107  1  0  0  0  0
 52108  1  0  0  0  0
 52109  1  0  0  0  0
 54110  1  0  0  0  0
 61111  1  0  0  0  0
 62112  1  0  0  0  0
 63113  1  0  0  0  0
 64114  1  0  0  0  0
 66115  1  0  0  0  0
 67116  1  0  0  0  0
 72117  1  0  0  0  0
 74118  1  0  0  0  0
 79119  1  0  0  0  0
 81120  1  0  0  0  0
M  END
