
  xtb     02032220023D
 energy: -247.506777877718 gnorm: 0.000323434467 xtb: 6.4.1 (unknown)
123137  0     0  0            999 V2000
    7.7059    1.7057   -5.3347 C   0  0  0  0  0  0  0  0  0  0  0  0
    7.5124    2.9901   -4.9330 C   0  0  0  0  0  0  0  0  0  0  0  0
    8.4245    4.0775   -5.3756 C   0  0  0  0  0  0  0  0  0  0  0  0
    9.5116    3.9564   -5.8898 O   0  0  0  0  0  0  0  0  0  0  0  0
    7.6824    5.3292   -5.1073 C   0  0  0  0  0  0  0  0  0  0  0  0
    8.0091    6.6097   -5.4491 C   0  0  0  0  0  0  0  0  0  0  0  0
    7.1221    7.6578   -5.1142 C   0  0  0  0  0  0  0  0  0  0  0  0
    7.4131    8.9963   -5.4425 C   0  0  0  0  0  0  0  0  0  0  0  0
    6.5371    9.9922   -5.1129 C   0  0  0  0  0  0  0  0  0  0  0  0
    6.8153   11.2656   -5.4273 F   0  0  0  0  0  0  0  0  0  0  0  0
    5.3344    9.6944   -4.4420 C   0  0  0  0  0  0  0  0  0  0  0  0
    4.4937   10.6912   -4.1310 F   0  0  0  0  0  0  0  0  0  0  0  0
    5.0237    8.4057   -4.1107 C   0  0  0  0  0  0  0  0  0  0  0  0
    5.9062    7.3555   -4.4349 C   0  0  0  0  0  0  0  0  0  0  0  0
    5.5971    6.0203   -4.0889 C   0  0  0  0  0  0  0  0  0  0  0  0
    6.4765    5.0231   -4.4141 C   0  0  0  0  0  0  0  0  0  0  0  0
    6.4361    3.5857   -4.1645 C   0  0  0  0  0  0  0  0  0  0  0  0
    5.6905    2.9761   -3.1912 C   0  0  0  0  0  0  0  0  0  0  0  0
    4.7339    3.6417   -2.3970 C   0  0  0  0  0  0  0  0  0  0  0  0
    3.9574    4.1450   -1.7175 N   0  0  0  0  0  0  0  0  0  0  0  0
    5.8477    1.6312   -2.7969 C   0  0  0  0  0  0  0  0  0  0  0  0
    5.9798    0.5669   -2.3853 N   0  0  0  0  0  0  0  0  0  0  0  0
    6.7102    0.6873   -5.3281 C   0  0  0  0  0  0  0  0  0  0  0  0
    5.3419    0.9621   -5.5129 C   0  0  0  0  0  0  0  0  0  0  0  0
    4.3366   -0.0384   -5.2570 C   0  0  0  0  0  0  0  0  0  0  0  0
    3.1105    0.3980   -5.5337 N   0  0  0  0  0  0  0  0  0  0  0  0
    3.1977    1.9375   -5.9493 S   0  0  0  0  0  4  0  0  0  0  0  0
    4.7884    2.1174   -5.8935 N   0  0  0  0  0  0  0  0  0  0  0  0
    4.6348   -1.2718   -4.6357 C   0  0  0  0  0  0  0  0  0  0  0  0
    5.9961   -1.6349   -4.6776 C   0  0  0  0  0  0  0  0  0  0  0  0
    6.5476   -2.7788   -4.2733 N   0  0  0  0  0  0  0  0  0  0  0  0
    8.1457   -2.6701   -4.3926 S   0  0  0  0  0  0  0  0  0  0  0  0
    8.2395   -1.1673   -4.9341 N   0  0  0  0  0  0  0  0  0  0  0  0
    7.0126   -0.6654   -5.0635 C   0  0  0  0  0  0  0  0  0  0  0  0
    3.6362   -1.7576   -3.7418 C   0  0  0  0  0  0  0  0  0  0  0  0
    2.8391   -0.8790   -2.9996 C   0  0  0  0  0  0  0  0  0  0  0  0
    2.0685   -1.6431   -2.0934 C   0  0  0  0  0  0  0  0  0  0  0  0
    2.3728   -3.0393   -2.3170 C   0  0  0  0  0  0  0  0  0  0  0  0
    1.9586   -4.0604   -1.8101 O   0  0  0  0  0  0  0  0  0  0  0  0
    3.3588   -3.0237   -3.3309 N   0  0  0  0  0  0  0  0  0  0  0  0
    3.8762   -4.2409   -3.8965 C   0  0  0  0  0  0  0  0  0  0  0  0
    1.3658   -0.7676   -1.2655 C   0  0  0  0  0  0  0  0  0  0  0  0
    1.7148    0.5104   -1.6291 N   0  0  0  0  0  0  0  0  0  0  0  0
    1.3294    1.7476   -1.0046 C   0  0  0  0  0  0  0  0  0  0  0  0
    2.6383    0.5144   -2.6901 C   0  0  0  0  0  0  0  0  0  0  0  0
    3.0999    1.5432   -3.1589 O   0  0  0  0  0  0  0  0  0  0  0  0
    0.4510   -1.1425   -0.2447 C   0  0  0  0  0  0  0  0  0  0  0  0
   -0.4025   -0.3855    0.5209 C   0  0  0  0  0  0  0  0  0  0  0  0
   -1.1653   -1.1475    1.4283 C   0  0  0  0  0  0  0  0  0  0  0  0
   -2.1037   -0.6763    2.3690 C   0  0  0  0  0  0  0  0  0  0  0  0
   -2.3163    0.7441    2.5810 C   0  0  0  0  0  0  0  0  0  0  0  0
   -3.9140    1.4276    2.5968 S   0  0  0  0  0  0  0  0  0  0  0  0
   -3.3154    3.0177    2.9210 C   0  0  0  0  0  0  0  0  0  0  0  0
   -4.2520    4.1556    3.1287 C   0  0  0  0  0  0  0  0  0  0  0  0
   -4.9158    4.0625    4.5047 C   0  0  0  0  0  0  0  0  0  0  0  0
   -1.9553    3.0046    3.0159 C   0  0  0  0  0  0  0  0  0  0  0  0
   -0.9983    4.3933    3.3398 Cl  0  0  0  0  0  0  0  0  0  0  0  0
   -1.3850    1.7193    2.8173 C   0  0  0  0  0  0  0  0  0  0  0  0
    0.3030    1.4340    2.9661 Cl  0  0  0  0  0  0  0  0  0  0  0  0
   -2.8031   -1.6316    3.0925 C   0  0  0  0  0  0  0  0  0  0  0  0
   -2.5555   -3.0259    2.9586 C   0  0  0  0  0  0  0  0  0  0  0  0
   -1.5568   -3.4997    2.0733 C   0  0  0  0  0  0  0  0  0  0  0  0
   -1.2215   -4.9001    1.9831 C   0  0  0  0  0  0  0  0  0  0  0  0
   -1.1262   -5.8215    2.9946 C   0  0  0  0  0  0  0  0  0  0  0  0
   -0.7156   -7.0902    2.5505 C   0  0  0  0  0  0  0  0  0  0  0  0
   -0.5101   -7.1514    1.2032 C   0  0  0  0  0  0  0  0  0  0  0  0
   -0.0321   -8.2971    0.3817 C   0  0  0  0  0  0  0  0  0  0  0  0
    1.3822   -8.0356   -0.1425 C   0  0  0  0  0  0  0  0  0  0  0  0
   -0.8092   -5.6234    0.4536 S   0  0  0  0  0  0  0  0  0  0  0  0
   -0.9080   -2.5379    1.3053 C   0  0  0  0  0  0  0  0  0  0  0  0
    0.3140   -2.8538    0.1095 S   0  0  0  0  0  0  0  0  0  0  0  0
   -3.4269   -3.7713    3.7652 C   0  0  0  0  0  0  0  0  0  0  0  0
   -4.2935   -3.0055    4.5259 C   0  0  0  0  0  0  0  0  0  0  0  0
   -4.0508   -1.2919    4.2566 S   0  0  0  0  0  0  0  0  0  0  0  0
   -5.2377   -3.6008    5.3877 C   0  0  0  0  0  0  0  0  0  0  0  0
   -6.1772   -3.0383    6.2051 C   0  0  0  0  0  0  0  0  0  0  0  0
   -6.4443   -1.5967    6.3664 C   0  0  0  0  0  0  0  0  0  0  0  0
   -5.8586   -0.6666    5.8485 O   0  0  0  0  0  0  0  0  0  0  0  0
   -7.5823   -1.4993    7.2983 C   0  0  0  0  0  0  0  0  0  0  0  0
   -8.2212   -0.3632    7.7557 C   0  0  0  0  0  0  0  0  0  0  0  0
   -9.2882   -0.4883    8.6377 C   0  0  0  0  0  0  0  0  0  0  0  0
  -10.0282    0.6926    9.1734 C   0  0  0  0  0  0  0  0  0  0  0  0
   -9.6605   -1.7798    9.0185 C   0  0  0  0  0  0  0  0  0  0  0  0
  -10.6935   -1.9113    9.8703 F   0  0  0  0  0  0  0  0  0  0  0  0
   -9.0355   -2.9341    8.5760 C   0  0  0  0  0  0  0  0  0  0  0  0
   -7.9732   -2.7887    7.6970 C   0  0  0  0  0  0  0  0  0  0  0  0
   -7.1076   -3.7704    7.0487 C   0  0  0  0  0  0  0  0  0  0  0  0
   -7.1747   -5.1258    7.2360 C   0  0  0  0  0  0  0  0  0  0  0  0
   -8.1110   -5.7602    8.0813 C   0  0  0  0  0  0  0  0  0  0  0  0
   -8.8434   -6.3400    8.7479 N   0  0  0  0  0  0  0  0  0  0  0  0
   -6.3334   -6.0898    6.6409 C   0  0  0  0  0  0  0  0  0  0  0  0
   -5.6937   -6.9408    6.2093 N   0  0  0  0  0  0  0  0  0  0  0  0
    8.6826    1.4430   -5.7241 H   0  0  0  0  0  0  0  0  0  0  0  0
    8.9308    6.8216   -5.9693 H   0  0  0  0  0  0  0  0  0  0  0  0
    8.3297    9.2409   -5.9561 H   0  0  0  0  0  0  0  0  0  0  0  0
    4.1007    8.1951   -3.5936 H   0  0  0  0  0  0  0  0  0  0  0  0
    4.6669    5.8141   -3.5839 H   0  0  0  0  0  0  0  0  0  0  0  0
    3.5183   -5.0599   -3.2734 H   0  0  0  0  0  0  0  0  0  0  0  0
    4.9654   -4.2189   -3.9076 H   0  0  0  0  0  0  0  0  0  0  0  0
    3.5079   -4.3749   -4.9162 H   0  0  0  0  0  0  0  0  0  0  0  0
    1.4778    1.6983    0.0742 H   0  0  0  0  0  0  0  0  0  0  0  0
    0.2899    1.9960   -1.2285 H   0  0  0  0  0  0  0  0  0  0  0  0
    1.9743    2.5265   -1.4162 H   0  0  0  0  0  0  0  0  0  0  0  0
   -0.5219    0.6751    0.4251 H   0  0  0  0  0  0  0  0  0  0  0  0
   -5.0219    4.1394    2.3547 H   0  0  0  0  0  0  0  0  0  0  0  0
   -3.6941    5.0898    3.0478 H   0  0  0  0  0  0  0  0  0  0  0  0
   -5.4567    3.1237    4.5980 H   0  0  0  0  0  0  0  0  0  0  0  0
   -4.1645    4.1081    5.2891 H   0  0  0  0  0  0  0  0  0  0  0  0
   -5.6120    4.8858    4.6402 H   0  0  0  0  0  0  0  0  0  0  0  0
   -1.2873   -5.5807    4.0301 H   0  0  0  0  0  0  0  0  0  0  0  0
   -0.5752   -7.9299    3.2076 H   0  0  0  0  0  0  0  0  0  0  0  0
   -0.0431   -9.2025    0.9920 H   0  0  0  0  0  0  0  0  0  0  0  0
   -0.7048   -8.4464   -0.4665 H   0  0  0  0  0  0  0  0  0  0  0  0
    2.0758   -7.9175    0.6869 H   0  0  0  0  0  0  0  0  0  0  0  0
    1.4011   -7.1257   -0.7384 H   0  0  0  0  0  0  0  0  0  0  0  0
    1.7149   -8.8670   -0.7588 H   0  0  0  0  0  0  0  0  0  0  0  0
   -3.4536   -4.8462    3.7799 H   0  0  0  0  0  0  0  0  0  0  0  0
   -5.1892   -4.6831    5.3731 H   0  0  0  0  0  0  0  0  0  0  0  0
   -7.8881    0.6089    7.4255 H   0  0  0  0  0  0  0  0  0  0  0  0
  -11.0791    0.6366    8.8909 H   0  0  0  0  0  0  0  0  0  0  0  0
   -9.9870    0.6996   10.2620 H   0  0  0  0  0  0  0  0  0  0  0  0
   -9.6062    1.6185    8.7940 H   0  0  0  0  0  0  0  0  0  0  0  0
   -9.3905   -3.8904    8.9225 H   0  0  0  0  0  0  0  0  0  0  0  0
  1  2  2  0  0  0  0
  2  3  1  0  0  0  0
  3  4  2  0  0  0  0
  3  5  1  0  0  0  0
  5  6  2  0  0  0  0
  6  7  1  0  0  0  0
  7  8  2  0  0  0  0
  8  9  1  0  0  0  0
  9 10  1  0  0  0  0
  9 11  2  0  0  0  0
 11 12  1  0  0  0  0
 11 13  1  0  0  0  0
 13 14  2  0  0  0  0
 14 15  1  0  0  0  0
 15 16  2  0  0  0  0
 16 17  1  0  0  0  0
 17 18  2  0  0  0  0
 18 19  1  0  0  0  0
 19 20  3  0  0  0  0
 18 21  1  0  0  0  0
 21 22  3  0  0  0  0
  1 23  1  0  0  0  0
 23 24  2  0  0  0  0
 24 25  1  0  0  0  0
 25 26  1  0  0  0  0
 26 27  2  0  0  0  0
 27 28  2  0  0  0  0
 25 29  2  0  0  0  0
 29 30  1  0  0  0  0
 30 31  2  0  0  0  0
 31 32  1  0  0  0  0
 32 33  1  0  0  0  0
 33 34  2  0  0  0  0
 29 35  1  0  0  0  0
 35 36  2  0  0  0  0
 36 37  1  0  0  0  0
 37 38  1  0  0  0  0
 38 39  2  0  0  0  0
 38 40  1  0  0  0  0
 40 41  1  0  0  0  0
 37 42  2  0  0  0  0
 42 43  1  0  0  0  0
 43 44  1  0  0  0  0
 43 45  1  0  0  0  0
 45 46  2  0  0  0  0
 42 47  1  0  0  0  0
 47 48  2  0  0  0  0
 48 49  1  0  0  0  0
 49 50  2  0  0  0  0
 50 51  1  0  0  0  0
 51 52  1  0  0  0  0
 52 53  1  0  0  0  0
 53 54  1  0  0  0  0
 54 55  1  0  0  0  0
 53 56  2  0  0  0  0
 56 57  1  0  0  0  0
 56 58  1  0  0  0  0
 58 59  1  0  0  0  0
 50 60  1  0  0  0  0
 60 61  2  0  0  0  0
 61 62  1  0  0  0  0
 62 63  1  0  0  0  0
 63 64  2  0  0  0  0
 64 65  1  0  0  0  0
 65 66  2  0  0  0  0
 66 67  1  0  0  0  0
 67 68  1  0  0  0  0
 66 69  1  0  0  0  0
 62 70  2  0  0  0  0
 70 71  1  0  0  0  0
 61 72  1  0  0  0  0
 72 73  2  0  0  0  0
 73 74  1  0  0  0  0
 73 75  1  0  0  0  0
 75 76  2  0  0  0  0
 76 77  1  0  0  0  0
 77 78  2  0  0  0  0
 77 79  1  0  0  0  0
 79 80  2  0  0  0  0
 80 81  1  0  0  0  0
 81 82  1  0  0  0  0
 81 83  2  0  0  0  0
 83 84  1  0  0  0  0
 83 85  1  0  0  0  0
 85 86  2  0  0  0  0
 86 87  1  0  0  0  0
 87 88  2  0  0  0  0
 88 89  1  0  0  0  0
 89 90  3  0  0  0  0
 88 91  1  0  0  0  0
 91 92  3  0  0  0  0
 17  2  1  0  0  0  0
 34 23  1  0  0  0  0
 40 35  1  0  0  0  0
 71 47  1  0  0  0  0
 87 76  1  0  0  0  0
 16  5  1  0  0  0  0
 28 24  1  0  0  0  0
 34 30  1  0  0  0  0
 45 36  1  0  0  0  0
 70 49  1  0  0  0  0
 86 79  1  0  0  0  0
 14  7  1  0  0  0  0
 58 51  2  0  0  0  0
 74 60  1  0  0  0  0
 69 63  1  0  0  0  0
  1 93  1  0  0  0  0
  6 94  1  0  0  0  0
  8 95  1  0  0  0  0
 13 96  1  0  0  0  0
 15 97  1  0  0  0  0
 41 98  1  0  0  0  0
 41 99  1  0  0  0  0
 41100  1  0  0  0  0
 44101  1  0  0  0  0
 44102  1  0  0  0  0
 44103  1  0  0  0  0
 48104  1  0  0  0  0
 54105  1  0  0  0  0
 54106  1  0  0  0  0
 55107  1  0  0  0  0
 55108  1  0  0  0  0
 55109  1  0  0  0  0
 64110  1  0  0  0  0
 65111  1  0  0  0  0
 67112  1  0  0  0  0
 67113  1  0  0  0  0
 68114  1  0  0  0  0
 68115  1  0  0  0  0
 68116  1  0  0  0  0
 72117  1  0  0  0  0
 75118  1  0  0  0  0
 80119  1  0  0  0  0
 82120  1  0  0  0  0
 82121  1  0  0  0  0
 82122  1  0  0  0  0
 85123  1  0  0  0  0
M  END
