
  xtb     02082216493D
 energy: -453.857458536321 gnorm: 0.000616975817 xtb: 6.4.1 (unknown)
264287  0     0  0            999 V2000
   -7.2212   -6.3800    0.1592 C   0  0  0  0  0  0  0  0  0  0  0  0
   -7.5375   -7.0009    1.3494 C   0  0  0  0  0  0  0  0  0  0  0  0
   -8.1322   -8.3481    1.3457 C   0  0  0  0  0  0  0  0  0  0  0  0
   -8.5719   -8.9579    0.3902 O   0  0  0  0  0  0  0  0  0  0  0  0
   -7.9879   -8.8368    2.7381 C   0  0  0  0  0  0  0  0  0  0  0  0
   -8.2609  -10.0686    3.2559 C   0  0  0  0  0  0  0  0  0  0  0  0
   -7.9800  -10.3196    4.6200 C   0  0  0  0  0  0  0  0  0  0  0  0
   -8.2277  -11.5785    5.1995 C   0  0  0  0  0  0  0  0  0  0  0  0
   -7.9301  -11.8016    6.5151 C   0  0  0  0  0  0  0  0  0  0  0  0
   -8.1638  -13.0045    7.0626 F   0  0  0  0  0  0  0  0  0  0  0  0
   -7.3713  -10.7797    7.3064 C   0  0  0  0  0  0  0  0  0  0  0  0
   -7.0804  -11.0314    8.5915 F   0  0  0  0  0  0  0  0  0  0  0  0
   -7.1237   -9.5453    6.7742 C   0  0  0  0  0  0  0  0  0  0  0  0
   -7.4255   -9.2824    5.4236 C   0  0  0  0  0  0  0  0  0  0  0  0
   -7.1781   -8.0061    4.8665 C   0  0  0  0  0  0  0  0  0  0  0  0
   -7.4507   -7.7918    3.5440 C   0  0  0  0  0  0  0  0  0  0  0  0
   -7.2910   -6.6055    2.7091 C   0  0  0  0  0  0  0  0  0  0  0  0
   -7.1651   -5.3155    3.1748 C   0  0  0  0  0  0  0  0  0  0  0  0
   -7.2883   -4.1900    2.3388 C   0  0  0  0  0  0  0  0  0  0  0  0
   -7.4237   -3.2582    1.6787 N   0  0  0  0  0  0  0  0  0  0  0  0
   -6.9432   -4.9780    4.5203 C   0  0  0  0  0  0  0  0  0  0  0  0
   -6.7253   -4.6436    5.5979 N   0  0  0  0  0  0  0  0  0  0  0  0
   -6.2004   -5.4455   -0.0274 C   0  0  0  0  0  0  0  0  0  0  0  0
   -5.9998   -4.4866   -1.0415 C   0  0  0  0  0  0  0  0  0  0  0  0
   -6.7899   -4.2743   -2.1276 N   0  0  0  0  0  0  0  0  0  0  0  0
   -7.5512   -5.2926   -2.7213 C   0  0  0  0  0  0  0  0  0  0  0  0
   -7.0242   -6.5727   -2.8789 C   0  0  0  0  0  0  0  0  0  0  0  0
   -7.8055   -7.5916   -3.3839 C   0  0  0  0  0  0  0  0  0  0  0  0
   -9.1244   -7.3419   -3.7463 C   0  0  0  0  0  0  0  0  0  0  0  0
  -10.2129   -8.6058   -4.3107 S   0  0  0  0  0  0  0  0  0  0  0  0
   -9.5257  -10.0892   -3.5156 C   0  0  0  0  0  0  0  0  0  0  0  0
   -9.6241   -6.0427   -3.6692 C   0  0  0  0  0  0  0  0  0  0  0  0
   -8.8470   -5.0254   -3.1613 C   0  0  0  0  0  0  0  0  0  0  0  0
   -6.7986   -2.9936   -2.7216 C   0  0  0  0  0  0  0  0  0  0  0  0
   -6.9830   -1.8581   -1.9382 C   0  0  0  0  0  0  0  0  0  0  0  0
   -6.8764   -0.6007   -2.5004 C   0  0  0  0  0  0  0  0  0  0  0  0
   -6.5868   -0.4677   -3.8528 C   0  0  0  0  0  0  0  0  0  0  0  0
   -6.3267    1.0794   -4.6529 S   0  0  0  0  0  0  0  0  0  0  0  0
   -6.1047    2.2479   -3.2841 C   0  0  0  0  0  0  0  0  0  0  0  0
   -6.4840   -1.6075   -4.6508 C   0  0  0  0  0  0  0  0  0  0  0  0
   -6.5900   -2.8613   -4.0928 C   0  0  0  0  0  0  0  0  0  0  0  0
   -4.8681   -3.6855   -0.7450 C   0  0  0  0  0  0  0  0  0  0  0  0
   -4.1344   -2.3307   -1.5176 S   0  0  0  0  0  0  0  0  0  0  0  0
   -2.8615   -2.2967   -0.3061 C   0  0  0  0  0  0  0  0  0  0  0  0
   -3.0507   -3.2360    0.6970 C   0  0  0  0  0  0  0  0  0  0  0  0
   -2.3082   -3.3392    1.8559 N   0  0  0  0  0  0  0  0  0  0  0  0
   -1.5824   -2.2446    2.3606 C   0  0  0  0  0  0  0  0  0  0  0  0
   -2.0815   -0.9446    2.3260 C   0  0  0  0  0  0  0  0  0  0  0  0
   -1.3091    0.1156    2.7572 C   0  0  0  0  0  0  0  0  0  0  0  0
   -0.0398   -0.1159    3.2699 C   0  0  0  0  0  0  0  0  0  0  0  0
    1.0266    1.2032    3.7806 S   0  0  0  0  0  0  0  0  0  0  0  0
   -0.1512    2.3855    4.4960 C   0  0  0  0  0  0  0  0  0  0  0  0
    0.4346   -1.4192    3.3751 C   0  0  0  0  0  0  0  0  0  0  0  0
   -0.3287   -2.4752    2.9199 C   0  0  0  0  0  0  0  0  0  0  0  0
   -2.5784   -4.3941    2.7608 C   0  0  0  0  0  0  0  0  0  0  0  0
   -2.3660   -5.7178    2.3964 C   0  0  0  0  0  0  0  0  0  0  0  0
   -2.7120   -6.7489    3.2519 C   0  0  0  0  0  0  0  0  0  0  0  0
   -3.2809   -6.4634    4.4843 C   0  0  0  0  0  0  0  0  0  0  0  0
   -3.8249   -7.6959    5.6233 S   0  0  0  0  0  0  0  0  0  0  0  0
   -3.8479   -9.2178    4.6330 C   0  0  0  0  0  0  0  0  0  0  0  0
   -3.4397   -5.1346    4.8774 C   0  0  0  0  0  0  0  0  0  0  0  0
   -3.0880   -4.1105    4.0275 C   0  0  0  0  0  0  0  0  0  0  0  0
   -4.1736   -4.0436    0.3990 C   0  0  0  0  0  0  0  0  0  0  0  0
   -4.9034   -5.3963    1.1758 S   0  0  0  0  0  0  0  0  0  0  0  0
   -1.8406   -1.3016   -0.4500 C   0  0  0  0  0  0  0  0  0  0  0  0
   -0.4634   -1.4530   -0.5216 C   0  0  0  0  0  0  0  0  0  0  0  0
    0.1687   -2.6702   -0.6543 N   0  0  0  0  0  0  0  0  0  0  0  0
    1.5592   -2.8217   -0.5094 C   0  0  0  0  0  0  0  0  0  0  0  0
    2.2453   -2.2942    0.5791 C   0  0  0  0  0  0  0  0  0  0  0  0
    3.6055   -2.4990    0.7154 C   0  0  0  0  0  0  0  0  0  0  0  0
    4.2987   -3.2324   -0.2368 C   0  0  0  0  0  0  0  0  0  0  0  0
    6.0395   -3.5334   -0.1407 S   0  0  0  0  0  0  0  0  0  0  0  0
    6.3215   -3.6616    1.6513 C   0  0  0  0  0  0  0  0  0  0  0  0
    3.6194   -3.7461   -1.3381 C   0  0  0  0  0  0  0  0  0  0  0  0
    2.2639   -3.5463   -1.4720 C   0  0  0  0  0  0  0  0  0  0  0  0
   -0.5492   -3.7746   -1.1574 C   0  0  0  0  0  0  0  0  0  0  0  0
   -1.3822   -3.6563   -2.2694 C   0  0  0  0  0  0  0  0  0  0  0  0
   -2.1759   -4.7125   -2.6589 C   0  0  0  0  0  0  0  0  0  0  0  0
   -2.1335   -5.9156   -1.9606 C   0  0  0  0  0  0  0  0  0  0  0  0
   -3.2853   -7.1666   -2.4381 S   0  0  0  0  0  0  0  0  0  0  0  0
   -3.3979   -8.2097   -0.9539 C   0  0  0  0  0  0  0  0  0  0  0  0
   -1.2095   -6.0790   -0.9375 C   0  0  0  0  0  0  0  0  0  0  0  0
   -0.4304   -5.0110   -0.5330 C   0  0  0  0  0  0  0  0  0  0  0  0
    0.1688   -0.1816   -0.5623 C   0  0  0  0  0  0  0  0  0  0  0  0
    1.7937    0.4027   -0.5400 S   0  0  0  0  0  0  0  0  0  0  0  0
    1.2452    2.0764   -0.6820 C   0  0  0  0  0  0  0  0  0  0  0  0
   -0.1281    2.1619   -0.7404 C   0  0  0  0  0  0  0  0  0  0  0  0
   -0.9374    3.3102   -0.8666 N   0  0  0  0  0  0  0  0  0  0  0  0
   -1.6938    3.4296   -2.0369 C   0  0  0  0  0  0  0  0  0  0  0  0
   -2.5641    4.5025   -2.2519 C   0  0  0  0  0  0  0  0  0  0  0  0
   -3.2160    4.6556   -3.4557 C   0  0  0  0  0  0  0  0  0  0  0  0
   -3.0340    3.7445   -4.4916 C   0  0  0  0  0  0  0  0  0  0  0  0
   -3.8915    4.0611   -6.0051 S   0  0  0  0  0  0  0  0  0  0  0  0
   -3.6674    2.5322   -6.9544 C   0  0  0  0  0  0  0  0  0  0  0  0
   -2.1792    2.6739   -4.2912 C   0  0  0  0  0  0  0  0  0  0  0  0
   -1.5200    2.5262   -3.0872 C   0  0  0  0  0  0  0  0  0  0  0  0
   -1.2188    3.9919    0.3308 C   0  0  0  0  0  0  0  0  0  0  0  0
   -2.5197    4.3087    0.7185 C   0  0  0  0  0  0  0  0  0  0  0  0
   -2.7611    5.0409    1.8651 C   0  0  0  0  0  0  0  0  0  0  0  0
   -1.7058    5.4460    2.6691 C   0  0  0  0  0  0  0  0  0  0  0  0
   -1.9104    6.4021    4.1430 S   0  0  0  0  0  0  0  0  0  0  0  0
   -3.4686    7.2814    3.8372 C   0  0  0  0  0  0  0  0  0  0  0  0
   -0.4148    5.0442    2.3431 C   0  0  0  0  0  0  0  0  0  0  0  0
   -0.1751    4.3220    1.1951 C   0  0  0  0  0  0  0  0  0  0  0  0
   -0.7171    0.8805   -0.6384 C   0  0  0  0  0  0  0  0  0  0  0  0
   -2.3598    0.3716   -0.6229 S   0  0  0  0  0  0  0  0  0  0  0  0
    2.3047    3.0468   -0.7001 C   0  0  0  0  0  0  0  0  0  0  0  0
    2.4871    4.2307   -1.3939 C   0  0  0  0  0  0  0  0  0  0  0  0
    1.5087    4.9658   -2.0923 N   0  0  0  0  0  0  0  0  0  0  0  0
    1.2354    4.6476   -3.4255 C   0  0  0  0  0  0  0  0  0  0  0  0
    0.8431    5.6253   -4.3384 C   0  0  0  0  0  0  0  0  0  0  0  0
    0.4666    5.2886   -5.6231 C   0  0  0  0  0  0  0  0  0  0  0  0
    0.5123    3.9659   -6.0375 C   0  0  0  0  0  0  0  0  0  0  0  0
   -0.0239    3.4128   -7.6282 S   0  0  0  0  0  0  0  0  0  0  0  0
   -0.9300    4.8396   -8.2921 C   0  0  0  0  0  0  0  0  0  0  0  0
    1.0226    3.0038   -5.1726 C   0  0  0  0  0  0  0  0  0  0  0  0
    1.3806    3.3378   -3.8852 C   0  0  0  0  0  0  0  0  0  0  0  0
    0.8880    6.0031   -1.3868 C   0  0  0  0  0  0  0  0  0  0  0  0
   -0.3496    6.5155   -1.7829 C   0  0  0  0  0  0  0  0  0  0  0  0
   -1.0126    7.4417   -1.0112 C   0  0  0  0  0  0  0  0  0  0  0  0
   -0.4659    7.9018    0.1826 C   0  0  0  0  0  0  0  0  0  0  0  0
   -1.4492    9.0264    1.1255 S   0  0  0  0  0  0  0  0  0  0  0  0
   -0.4113    9.4205    2.5607 C   0  0  0  0  0  0  0  0  0  0  0  0
    0.7824    7.4400    0.5634 C   0  0  0  0  0  0  0  0  0  0  0  0
    1.4455    6.5067   -0.2107 C   0  0  0  0  0  0  0  0  0  0  0  0
    3.8125    4.6997   -1.2483 C   0  0  0  0  0  0  0  0  0  0  0  0
    4.6639    6.0417   -1.9161 S   0  0  0  0  0  0  0  0  0  0  0  0
    6.1363    5.5608   -1.0486 C   0  0  0  0  0  0  0  0  0  0  0  0
    5.8941    4.4856   -0.1577 C   0  0  0  0  0  0  0  0  0  0  0  0
    6.6808    4.0927    0.8749 N   0  0  0  0  0  0  0  0  0  0  0  0
    7.7178    4.8655    1.4193 C   0  0  0  0  0  0  0  0  0  0  0  0
    8.9053    4.2345    1.7952 C   0  0  0  0  0  0  0  0  0  0  0  0
    9.9637    4.9755    2.2695 C   0  0  0  0  0  0  0  0  0  0  0  0
    9.8589    6.3609    2.3981 C   0  0  0  0  0  0  0  0  0  0  0  0
   11.3055    7.2092    2.9227 S   0  0  0  0  0  0  0  0  0  0  0  0
   10.8094    8.9527    2.9875 C   0  0  0  0  0  0  0  0  0  0  0  0
    8.6492    6.9807    2.0991 C   0  0  0  0  0  0  0  0  0  0  0  0
    7.5926    6.2390    1.6116 C   0  0  0  0  0  0  0  0  0  0  0  0
    6.3642    2.8929    1.5606 C   0  0  0  0  0  0  0  0  0  0  0  0
    5.9944    2.9639    2.8980 C   0  0  0  0  0  0  0  0  0  0  0  0
    5.6067    1.8247    3.5731 C   0  0  0  0  0  0  0  0  0  0  0  0
    5.5968    0.6012    2.9156 C   0  0  0  0  0  0  0  0  0  0  0  0
    5.0801   -0.8914    3.7006 S   0  0  0  0  0  0  0  0  0  0  0  0
    4.2425   -0.3405    5.2101 C   0  0  0  0  0  0  0  0  0  0  0  0
    6.0227    0.5222    1.5904 C   0  0  0  0  0  0  0  0  0  0  0  0
    6.4019    1.6621    0.9124 C   0  0  0  0  0  0  0  0  0  0  0  0
    4.6006    3.9572   -0.3785 C   0  0  0  0  0  0  0  0  0  0  0  0
    3.7295    2.5863    0.2136 S   0  0  0  0  0  0  0  0  0  0  0  0
    7.3076    6.2492   -1.3384 C   0  0  0  0  0  0  0  0  0  0  0  0
    8.5913    5.7830   -1.1029 C   0  0  0  0  0  0  0  0  0  0  0  0
    8.9501    4.3602   -1.0526 C   0  0  0  0  0  0  0  0  0  0  0  0
    8.2077    3.3989   -1.1522 O   0  0  0  0  0  0  0  0  0  0  0  0
   10.4256    4.3262   -0.9532 C   0  0  0  0  0  0  0  0  0  0  0  0
   11.2528    3.2472   -0.8620 C   0  0  0  0  0  0  0  0  0  0  0  0
   12.6447    3.4591   -0.7271 C   0  0  0  0  0  0  0  0  0  0  0  0
   13.5422    2.3807   -0.6145 C   0  0  0  0  0  0  0  0  0  0  0  0
   14.8830    2.6118   -0.4804 C   0  0  0  0  0  0  0  0  0  0  0  0
   15.7358    1.5812   -0.3741 F   0  0  0  0  0  0  0  0  0  0  0  0
   15.3825    3.9276   -0.4514 C   0  0  0  0  0  0  0  0  0  0  0  0
   16.7023    4.1252   -0.3174 F   0  0  0  0  0  0  0  0  0  0  0  0
   14.5352    4.9952   -0.5583 C   0  0  0  0  0  0  0  0  0  0  0  0
   13.1489    4.7905   -0.6983 C   0  0  0  0  0  0  0  0  0  0  0  0
   12.2644    5.8896   -0.8064 C   0  0  0  0  0  0  0  0  0  0  0  0
   10.9225    5.6586   -0.9298 C   0  0  0  0  0  0  0  0  0  0  0  0
    9.7844    6.5698   -1.0096 C   0  0  0  0  0  0  0  0  0  0  0  0
    9.8368    7.9341   -0.8406 C   0  0  0  0  0  0  0  0  0  0  0  0
    8.6985    8.7513   -0.7089 C   0  0  0  0  0  0  0  0  0  0  0  0
    7.8179    9.4674   -0.5272 N   0  0  0  0  0  0  0  0  0  0  0  0
   11.0255    8.6674   -0.6789 C   0  0  0  0  0  0  0  0  0  0  0  0
   11.9542    9.3270   -0.5254 N   0  0  0  0  0  0  0  0  0  0  0  0
   -7.7657   -6.7373   -0.7056 H   0  0  0  0  0  0  0  0  0  0  0  0
   -8.6819  -10.8463    2.6368 H   0  0  0  0  0  0  0  0  0  0  0  0
   -8.6528  -12.3738    4.6074 H   0  0  0  0  0  0  0  0  0  0  0  0
   -6.6926   -8.7713    7.3897 H   0  0  0  0  0  0  0  0  0  0  0  0
   -6.7580   -7.2371    5.4945 H   0  0  0  0  0  0  0  0  0  0  0  0
   -5.9989   -6.7659   -2.6007 H   0  0  0  0  0  0  0  0  0  0  0  0
   -7.3798   -8.5761   -3.4889 H   0  0  0  0  0  0  0  0  0  0  0  0
   -8.6511  -10.4402   -4.0559 H   0  0  0  0  0  0  0  0  0  0  0  0
   -9.2887   -9.8621   -2.4802 H   0  0  0  0  0  0  0  0  0  0  0  0
  -10.3089  -10.8393   -3.5637 H   0  0  0  0  0  0  0  0  0  0  0  0
  -10.6375   -5.8506   -3.9848 H   0  0  0  0  0  0  0  0  0  0  0  0
   -9.2457   -4.0264   -3.0699 H   0  0  0  0  0  0  0  0  0  0  0  0
   -7.1956   -1.9662   -0.8845 H   0  0  0  0  0  0  0  0  0  0  0  0
   -7.0109    0.2648   -1.8726 H   0  0  0  0  0  0  0  0  0  0  0  0
   -7.0434    2.3951   -2.7581 H   0  0  0  0  0  0  0  0  0  0  0  0
   -5.3254    1.8855   -2.6195 H   0  0  0  0  0  0  0  0  0  0  0  0
   -5.7925    3.1802   -3.7448 H   0  0  0  0  0  0  0  0  0  0  0  0
   -6.2942   -1.4935   -5.7068 H   0  0  0  0  0  0  0  0  0  0  0  0
   -6.4817   -3.7446   -4.7043 H   0  0  0  0  0  0  0  0  0  0  0  0
   -3.0814   -0.7639    1.9613 H   0  0  0  0  0  0  0  0  0  0  0  0
   -1.7018    1.1187    2.6890 H   0  0  0  0  0  0  0  0  0  0  0  0
    0.4365    3.0817    5.0857 H   0  0  0  0  0  0  0  0  0  0  0  0
   -0.8454    1.8489    5.1344 H   0  0  0  0  0  0  0  0  0  0  0  0
   -0.6724    2.9251    3.7111 H   0  0  0  0  0  0  0  0  0  0  0  0
    1.4101   -1.5945    3.8024 H   0  0  0  0  0  0  0  0  0  0  0  0
    0.0452   -3.4860    2.9858 H   0  0  0  0  0  0  0  0  0  0  0  0
   -1.9405   -5.9341    1.4300 H   0  0  0  0  0  0  0  0  0  0  0  0
   -2.5422   -7.7667    2.9391 H   0  0  0  0  0  0  0  0  0  0  0  0
   -2.8349   -9.5353    4.4036 H   0  0  0  0  0  0  0  0  0  0  0  0
   -4.3332   -9.9647    5.2536 H   0  0  0  0  0  0  0  0  0  0  0  0
   -4.4284   -9.0569    3.7288 H   0  0  0  0  0  0  0  0  0  0  0  0
   -3.8720   -4.9186    5.8417 H   0  0  0  0  0  0  0  0  0  0  0  0
   -3.2359   -3.0834    4.3261 H   0  0  0  0  0  0  0  0  0  0  0  0
    1.7109   -1.7382    1.3325 H   0  0  0  0  0  0  0  0  0  0  0  0
    4.1125   -2.0878    1.5727 H   0  0  0  0  0  0  0  0  0  0  0  0
    7.2836   -4.1509    1.7646 H   0  0  0  0  0  0  0  0  0  0  0  0
    5.5380   -4.2696    2.0916 H   0  0  0  0  0  0  0  0  0  0  0  0
    6.3511   -2.6800    2.1143 H   0  0  0  0  0  0  0  0  0  0  0  0
    4.1657   -4.3031   -2.0834 H   0  0  0  0  0  0  0  0  0  0  0  0
    1.7385   -3.9540   -2.3230 H   0  0  0  0  0  0  0  0  0  0  0  0
   -1.4255   -2.7225   -2.8096 H   0  0  0  0  0  0  0  0  0  0  0  0
   -2.8493   -4.6096   -3.4960 H   0  0  0  0  0  0  0  0  0  0  0  0
   -2.5139   -8.8342   -0.8611 H   0  0  0  0  0  0  0  0  0  0  0  0
   -4.2733   -8.8361   -1.0970 H   0  0  0  0  0  0  0  0  0  0  0  0
   -3.5338   -7.5799   -0.0789 H   0  0  0  0  0  0  0  0  0  0  0  0
   -1.0980   -7.0330   -0.4456 H   0  0  0  0  0  0  0  0  0  0  0  0
    0.2664   -5.1260    0.2845 H   0  0  0  0  0  0  0  0  0  0  0  0
   -2.7087    5.2481   -1.4886 H   0  0  0  0  0  0  0  0  0  0  0  0
   -3.8701    5.5015   -3.6069 H   0  0  0  0  0  0  0  0  0  0  0  0
   -4.2663    2.6571   -7.8511 H   0  0  0  0  0  0  0  0  0  0  0  0
   -4.0404    1.6921   -6.3764 H   0  0  0  0  0  0  0  0  0  0  0  0
   -2.6217    2.4057   -7.2215 H   0  0  0  0  0  0  0  0  0  0  0  0
   -1.9984    1.9511   -5.0694 H   0  0  0  0  0  0  0  0  0  0  0  0
   -0.8385    1.6969   -2.9901 H   0  0  0  0  0  0  0  0  0  0  0  0
   -3.3565    3.9621    0.1321 H   0  0  0  0  0  0  0  0  0  0  0  0
   -3.7794    5.2793    2.1281 H   0  0  0  0  0  0  0  0  0  0  0  0
   -3.5174    8.0679    4.5837 H   0  0  0  0  0  0  0  0  0  0  0  0
   -4.3130    6.6092    3.9592 H   0  0  0  0  0  0  0  0  0  0  0  0
   -3.4421    7.7124    2.8405 H   0  0  0  0  0  0  0  0  0  0  0  0
    0.4033    5.3152    2.9931 H   0  0  0  0  0  0  0  0  0  0  0  0
    0.8338    4.0238    0.9638 H   0  0  0  0  0  0  0  0  0  0  0  0
    0.8410    6.6639   -4.0464 H   0  0  0  0  0  0  0  0  0  0  0  0
    0.1478    6.0720   -6.2915 H   0  0  0  0  0  0  0  0  0  0  0  0
   -1.6831    5.1589   -7.5770 H   0  0  0  0  0  0  0  0  0  0  0  0
   -1.4070    4.4876   -9.2017 H   0  0  0  0  0  0  0  0  0  0  0  0
   -0.2403    5.6444   -8.5292 H   0  0  0  0  0  0  0  0  0  0  0  0
    1.1175    1.9844   -5.5147 H   0  0  0  0  0  0  0  0  0  0  0  0
    1.7622    2.5710   -3.2294 H   0  0  0  0  0  0  0  0  0  0  0  0
   -0.8166    6.1574   -2.6842 H   0  0  0  0  0  0  0  0  0  0  0  0
   -1.9773    7.8121   -1.3247 H   0  0  0  0  0  0  0  0  0  0  0  0
   -0.2337    8.5229    3.1465 H   0  0  0  0  0  0  0  0  0  0  0  0
   -0.9810   10.1355    3.1462 H   0  0  0  0  0  0  0  0  0  0  0  0
    0.5186    9.8734    2.2298 H   0  0  0  0  0  0  0  0  0  0  0  0
    1.2539    7.7859    1.4690 H   0  0  0  0  0  0  0  0  0  0  0  0
    2.4074    6.1623    0.1345 H   0  0  0  0  0  0  0  0  0  0  0  0
    8.9948    3.1647    1.6843 H   0  0  0  0  0  0  0  0  0  0  0  0
   10.8942    4.4950    2.5296 H   0  0  0  0  0  0  0  0  0  0  0  0
   10.0112    9.0858    3.7116 H   0  0  0  0  0  0  0  0  0  0  0  0
   10.5161    9.2982    2.0009 H   0  0  0  0  0  0  0  0  0  0  0  0
   11.6953    9.4907    3.3104 H   0  0  0  0  0  0  0  0  0  0  0  0
    8.5199    8.0429    2.2276 H   0  0  0  0  0  0  0  0  0  0  0  0
    6.6660    6.7380    1.3715 H   0  0  0  0  0  0  0  0  0  0  0  0
    5.9935    3.9189    3.4027 H   0  0  0  0  0  0  0  0  0  0  0  0
    5.3058    1.9056    4.6046 H   0  0  0  0  0  0  0  0  0  0  0  0
    3.7985   -1.2349    5.6371 H   0  0  0  0  0  0  0  0  0  0  0  0
    4.9611    0.0767    5.9094 H   0  0  0  0  0  0  0  0  0  0  0  0
    3.4662    0.3739    4.9506 H   0  0  0  0  0  0  0  0  0  0  0  0
    6.0407   -0.4310    1.0864 H   0  0  0  0  0  0  0  0  0  0  0  0
    6.7312    1.6189   -0.1142 H   0  0  0  0  0  0  0  0  0  0  0  0
    7.1879    7.2075   -1.8295 H   0  0  0  0  0  0  0  0  0  0  0  0
   10.8548    2.2439   -0.8818 H   0  0  0  0  0  0  0  0  0  0  0  0
   13.1758    1.3662   -0.6357 H   0  0  0  0  0  0  0  0  0  0  0  0
   14.9336    5.9973   -0.5321 H   0  0  0  0  0  0  0  0  0  0  0  0
   12.6746    6.8865   -0.7880 H   0  0  0  0  0  0  0  0  0  0  0  0
  1  2  2  0  0  0  0
  2  3  1  0  0  0  0
  3  4  2  0  0  0  0
  3  5  1  0  0  0  0
  5  6  2  0  0  0  0
  6  7  1  0  0  0  0
  7  8  2  0  0  0  0
  8  9  1  0  0  0  0
  9 10  1  0  0  0  0
  9 11  2  0  0  0  0
 11 12  1  0  0  0  0
 11 13  1  0  0  0  0
 13 14  2  0  0  0  0
 14 15  1  0  0  0  0
 15 16  2  0  0  0  0
 16 17  1  0  0  0  0
 17 18  2  0  0  0  0
 18 19  1  0  0  0  0
 19 20  3  0  0  0  0
 18 21  1  0  0  0  0
 21 22  3  0  0  0  0
  1 23  1  0  0  0  0
 23 24  2  0  0  0  0
 24 25  1  0  0  0  0
 25 26  1  0  0  0  0
 26 27  2  0  0  0  0
 27 28  1  0  0  0  0
 28 29  2  0  0  0  0
 29 30  1  0  0  0  0
 30 31  1  0  0  0  0
 29 32  1  0  0  0  0
 32 33  2  0  0  0  0
 25 34  1  0  0  0  0
 34 35  2  0  0  0  0
 35 36  1  0  0  0  0
 36 37  2  0  0  0  0
 37 38  1  0  0  0  0
 38 39  1  0  0  0  0
 37 40  1  0  0  0  0
 40 41  2  0  0  0  0
 24 42  1  0  0  0  0
 42 43  1  0  0  0  0
 43 44  1  0  0  0  0
 44 45  2  0  0  0  0
 45 46  1  0  0  0  0
 46 47  1  0  0  0  0
 47 48  2  0  0  0  0
 48 49  1  0  0  0  0
 49 50  2  0  0  0  0
 50 51  1  0  0  0  0
 51 52  1  0  0  0  0
 50 53  1  0  0  0  0
 53 54  2  0  0  0  0
 46 55  1  0  0  0  0
 55 56  2  0  0  0  0
 56 57  1  0  0  0  0
 57 58  2  0  0  0  0
 58 59  1  0  0  0  0
 59 60  1  0  0  0  0
 58 61  1  0  0  0  0
 61 62  2  0  0  0  0
 45 63  1  0  0  0  0
 63 64  1  0  0  0  0
 44 65  1  0  0  0  0
 65 66  2  0  0  0  0
 66 67  1  0  0  0  0
 67 68  1  0  0  0  0
 68 69  2  0  0  0  0
 69 70  1  0  0  0  0
 70 71  2  0  0  0  0
 71 72  1  0  0  0  0
 72 73  1  0  0  0  0
 71 74  1  0  0  0  0
 74 75  2  0  0  0  0
 67 76  1  0  0  0  0
 76 77  2  0  0  0  0
 77 78  1  0  0  0  0
 78 79  2  0  0  0  0
 79 80  1  0  0  0  0
 80 81  1  0  0  0  0
 79 82  1  0  0  0  0
 82 83  2  0  0  0  0
 66 84  1  0  0  0  0
 84 85  1  0  0  0  0
 85 86  1  0  0  0  0
 86 87  2  0  0  0  0
 87 88  1  0  0  0  0
 88 89  1  0  0  0  0
 89 90  2  0  0  0  0
 90 91  1  0  0  0  0
 91 92  2  0  0  0  0
 92 93  1  0  0  0  0
 93 94  1  0  0  0  0
 92 95  1  0  0  0  0
 95 96  2  0  0  0  0
 88 97  1  0  0  0  0
 97 98  2  0  0  0  0
 98 99  1  0  0  0  0
 99100  2  0  0  0  0
100101  1  0  0  0  0
101102  1  0  0  0  0
100103  1  0  0  0  0
103104  2  0  0  0  0
 87105  1  0  0  0  0
105106  1  0  0  0  0
 86107  1  0  0  0  0
107108  2  0  0  0  0
108109  1  0  0  0  0
109110  1  0  0  0  0
110111  2  0  0  0  0
111112  1  0  0  0  0
112113  2  0  0  0  0
113114  1  0  0  0  0
114115  1  0  0  0  0
113116  1  0  0  0  0
116117  2  0  0  0  0
109118  1  0  0  0  0
118119  2  0  0  0  0
119120  1  0  0  0  0
120121  2  0  0  0  0
121122  1  0  0  0  0
122123  1  0  0  0  0
121124  1  0  0  0  0
124125  2  0  0  0  0
108126  1  0  0  0  0
126127  1  0  0  0  0
127128  1  0  0  0  0
128129  2  0  0  0  0
129130  1  0  0  0  0
130131  1  0  0  0  0
131132  2  0  0  0  0
132133  1  0  0  0  0
133134  2  0  0  0  0
134135  1  0  0  0  0
135136  1  0  0  0  0
134137  1  0  0  0  0
137138  2  0  0  0  0
130139  1  0  0  0  0
139140  2  0  0  0  0
140141  1  0  0  0  0
141142  2  0  0  0  0
142143  1  0  0  0  0
143144  1  0  0  0  0
142145  1  0  0  0  0
145146  2  0  0  0  0
129147  1  0  0  0  0
147148  1  0  0  0  0
128149  1  0  0  0  0
149150  2  0  0  0  0
150151  1  0  0  0  0
151152  2  0  0  0  0
151153  1  0  0  0  0
153154  2  0  0  0  0
154155  1  0  0  0  0
155156  2  0  0  0  0
156157  1  0  0  0  0
157158  1  0  0  0  0
157159  2  0  0  0  0
159160  1  0  0  0  0
159161  1  0  0  0  0
161162  2  0  0  0  0
162163  1  0  0  0  0
163164  2  0  0  0  0
164165  1  0  0  0  0
165166  2  0  0  0  0
166167  1  0  0  0  0
167168  3  0  0  0  0
166169  1  0  0  0  0
169170  3  0  0  0  0
 17  2  1  0  0  0  0
 64 23  1  0  0  0  0
106 65  1  0  0  0  0
148107  1  0  0  0  0
165150  1  0  0  0  0
 16  5  1  0  0  0  0
 33 26  1  0  0  0  0
 41 34  1  0  0  0  0
 63 42  2  0  0  0  0
 75 68  1  0  0  0  0
 83 76  1  0  0  0  0
105 84  2  0  0  0  0
117110  1  0  0  0  0
125118  1  0  0  0  0
147126  2  0  0  0  0
164153  1  0  0  0  0
 14  7  1  0  0  0  0
 54 47  1  0  0  0  0
 62 55  1  0  0  0  0
 96 89  1  0  0  0  0
104 97  1  0  0  0  0
138131  1  0  0  0  0
146139  1  0  0  0  0
162155  1  0  0  0  0
  1171  1  0  0  0  0
  6172  1  0  0  0  0
  8173  1  0  0  0  0
 13174  1  0  0  0  0
 15175  1  0  0  0  0
 27176  1  0  0  0  0
 28177  1  0  0  0  0
 31178  1  0  0  0  0
 31179  1  0  0  0  0
 31180  1  0  0  0  0
 32181  1  0  0  0  0
 33182  1  0  0  0  0
 35183  1  0  0  0  0
 36184  1  0  0  0  0
 39185  1  0  0  0  0
 39186  1  0  0  0  0
 39187  1  0  0  0  0
 40188  1  0  0  0  0
 41189  1  0  0  0  0
 48190  1  0  0  0  0
 49191  1  0  0  0  0
 52192  1  0  0  0  0
 52193  1  0  0  0  0
 52194  1  0  0  0  0
 53195  1  0  0  0  0
 54196  1  0  0  0  0
 56197  1  0  0  0  0
 57198  1  0  0  0  0
 60199  1  0  0  0  0
 60200  1  0  0  0  0
 60201  1  0  0  0  0
 61202  1  0  0  0  0
 62203  1  0  0  0  0
 69204  1  0  0  0  0
 70205  1  0  0  0  0
 73206  1  0  0  0  0
 73207  1  0  0  0  0
 73208  1  0  0  0  0
 74209  1  0  0  0  0
 75210  1  0  0  0  0
 77211  1  0  0  0  0
 78212  1  0  0  0  0
 81213  1  0  0  0  0
 81214  1  0  0  0  0
 81215  1  0  0  0  0
 82216  1  0  0  0  0
 83217  1  0  0  0  0
 90218  1  0  0  0  0
 91219  1  0  0  0  0
 94220  1  0  0  0  0
 94221  1  0  0  0  0
 94222  1  0  0  0  0
 95223  1  0  0  0  0
 96224  1  0  0  0  0
 98225  1  0  0  0  0
 99226  1  0  0  0  0
102227  1  0  0  0  0
102228  1  0  0  0  0
102229  1  0  0  0  0
103230  1  0  0  0  0
104231  1  0  0  0  0
111232  1  0  0  0  0
112233  1  0  0  0  0
115234  1  0  0  0  0
115235  1  0  0  0  0
115236  1  0  0  0  0
116237  1  0  0  0  0
117238  1  0  0  0  0
119239  1  0  0  0  0
120240  1  0  0  0  0
123241  1  0  0  0  0
123242  1  0  0  0  0
123243  1  0  0  0  0
124244  1  0  0  0  0
125245  1  0  0  0  0
132246  1  0  0  0  0
133247  1  0  0  0  0
136248  1  0  0  0  0
136249  1  0  0  0  0
136250  1  0  0  0  0
137251  1  0  0  0  0
138252  1  0  0  0  0
140253  1  0  0  0  0
141254  1  0  0  0  0
144255  1  0  0  0  0
144256  1  0  0  0  0
144257  1  0  0  0  0
145258  1  0  0  0  0
146259  1  0  0  0  0
149260  1  0  0  0  0
154261  1  0  0  0  0
156262  1  0  0  0  0
161263  1  0  0  0  0
163264  1  0  0  0  0
M  END
