234

C         -1.32620        7.89120       -4.39180
C         -0.37310        8.63320       -5.06070
C          1.04760        8.30900       -5.17710
O          1.67200        7.43460       -4.60050
C          1.60010        9.25200       -6.17080
C          2.87420        9.33990       -6.64820
C          3.17730       10.32570       -7.61490
C          4.47420       10.45920       -8.14600
C          4.73940       11.41960       -9.08180
F          5.97630       11.54300       -9.58760
C          3.72210       12.28620       -9.52520
F          4.01030       13.21900      -10.44490
C          2.45340       12.18140       -9.02720
C          2.14710       11.20190       -8.06200
C          0.83600       11.08730       -7.54220
C          0.56460       10.12300       -6.60940
C         -0.66310        9.77160       -5.89660
C         -1.86000       10.44030       -6.01000
C         -3.00740       10.20130       -5.23140
N         -3.97540       10.09410       -4.61950
C         -2.09120       11.49310       -6.91610
N         -2.35380       12.33960       -7.64730
C         -1.19490        6.76120       -3.59310
C         -2.30610        6.04380       -3.07040
N         -3.61580        6.24390       -3.40590
C         -4.60910        5.95530       -2.44880
C         -4.46130        6.39930       -1.13720
C         -5.42980        6.11160       -0.19760
C         -6.56560        5.38460       -0.53760
C         -7.61500        5.09280        0.48970
C         -6.70910        4.95840       -1.85230
C         -5.74580        5.23600       -2.80200
C         -4.02520        6.61170       -4.70220
C         -5.11320        7.46420       -4.87000
C         -5.51320        7.82910       -6.14020
C         -4.84120        7.36830       -7.26610
C         -5.25740        7.81540       -8.63290
C         -3.77050        6.49910       -7.08720
C         -3.36850        6.11250       -5.82470
C         -1.87820        5.06230       -2.16080
S         -2.68830        3.87460       -1.19700
C         -1.14450        3.24280       -0.62490
C         -0.06750        3.97800       -1.11090
N          1.25680        3.86360       -0.74330
C          2.23320        4.05290       -1.73390
C          3.42710        4.71180       -1.44940
C          4.37820        4.87870       -2.43420
C          4.16360        4.42100       -3.72980
C          5.21670        4.59120       -4.78140
C          2.96130        3.78800       -4.01170
C          2.01030        3.59310       -3.02920
C          1.62490        3.52870        0.56460
C          2.80960        2.83780        0.81190
C          3.17060        2.49860        2.09810
C          2.37030        2.84080        3.18150
C          2.79070        2.49630        4.57420
C          1.19560        3.53870        2.93270
C          0.82540        3.88510        1.64820
C         -0.50010        4.98990       -2.00850
S          0.34260        6.11890       -3.00590
C         -1.20320        2.06980        0.20370
C         -0.18030        1.07690        0.20150
N          0.83590        1.16990       -0.66240
C          1.76960        0.25100       -0.67610
C          2.78460        0.35890       -1.73910
C          2.38310        0.47860       -3.06540
C          3.29010        0.60770       -4.10960
C          4.66760        0.65510       -3.87670
O          5.65230        0.80730       -4.76490
C          5.37680        0.93310       -6.15880
C          6.71430        1.08990       -6.86090
C          5.06590        0.52910       -2.53410
C          4.15780        0.37730       -1.50420
F          4.63070        0.27990       -0.25020
F          6.37770        0.56400       -2.25580
F          2.78810        0.70210       -5.35750
F          1.08370        0.44040       -3.36820
C          1.75620       -0.79250        0.28510
C          2.86890       -1.75140        0.42650
C          3.25210       -2.61190       -0.59720
F          2.61330       -2.56350       -1.77800
C          4.27000       -3.52950       -0.42080
F          4.60270       -4.34970       -1.42900
C          4.97390       -3.65180        0.79170
O          5.89290       -4.62280        0.82130
C          6.81690       -4.75720        1.89790
C          7.90200       -3.68970        1.86050
C          4.59790       -2.76550        1.80570
F          5.20230       -2.76920        3.01080
C          3.57830       -1.84220        1.61520
F          3.30750       -0.99210        2.60680
N          0.72060       -0.95970        1.06780
C         -0.29890       -0.09150        1.01240
C         -1.53160       -0.38130        1.66160
C         -2.52410        0.58520        1.60370
C         -2.34920        1.78810        0.93670
C         -1.83710       -1.71240        2.13210
C         -1.07170       -2.65780        2.78900
N          0.11890       -2.43550        3.47210
C          1.07120       -3.45970        3.33550
C          1.75580       -4.00930        4.41550
C          2.63700       -5.05460        4.21900
C          2.84600       -5.59780        2.95810
C          3.75420       -6.77170        2.75800
C          2.15120       -5.05280        1.88520
C          1.28220       -3.99720        2.06540
C          0.18380       -1.46320        4.47400
C         -0.97360       -0.86190        4.97220
C         -0.90670        0.06240        5.99420
C          0.30590        0.40890        6.57670
C          0.35860        1.38130        7.71630
C          1.45490       -0.19010        6.07960
C          1.40420       -1.09460        5.03760
C         -1.71830       -3.92180        2.81100
S         -1.22120       -5.48800        3.33320
C         -2.78570       -6.15290        2.84920
C         -3.61350       -5.17400        2.23280
N         -4.84410       -5.39820        1.68210
C         -5.17640       -6.59040        1.01050
C         -4.23070       -7.25790        0.23560
C         -4.56750       -8.43580       -0.40000
C         -5.84960       -8.96520       -0.30060
C         -6.20750      -10.25990       -0.96170
C         -6.79550       -8.27000        0.44340
C         -6.46960       -7.09910        1.09860
C         -5.77990       -4.34420        1.68070
C         -5.98360       -3.59480        2.83540
C         -6.89240       -2.55480        2.83390
C         -7.62040       -2.24220        1.69330
C         -8.58940       -1.10080        1.67990
C         -7.41980       -3.00790        0.54900
C         -6.51230       -4.04680        0.53530
C         -2.98480       -3.91780        2.24210
S         -3.41100       -2.34440        1.65200
C         -3.21190       -7.44730        3.12130
C         -2.51980       -8.53590        3.61410
C         -1.08080       -8.60510        3.86090
O         -0.26220       -7.70220        3.81620
C         -0.78670      -10.02200        4.15880
C          0.41390      -10.60510        4.43730
C          0.45950      -11.99620        4.68470
C          1.67160      -12.65140        4.97360
C          1.68770      -13.99820        5.20630
F          2.84490      -14.62010        5.48030
C          0.49560      -14.74600        5.16080
F          0.54070      -16.06640        5.39250
C         -0.69670      -14.13760        4.88370
C         -0.74750      -12.75100        4.63920
C         -1.97820      -12.11390        4.35340
C         -1.99810      -10.76620        4.11480
C         -3.09210       -9.84430        3.81200
C         -4.42220      -10.19090        3.75480
C         -5.49610       -9.29370        3.60810
N         -6.43180       -8.62980        3.52630
C         -4.89730      -11.51170        3.86710
N         -5.35170      -12.56520        3.93130
H         -2.34800        8.22290       -4.52230
H          3.64030        8.66690       -6.29390
H          5.26450        9.80310       -7.81640
H          1.68580       12.85370       -9.37740
H          0.07980       11.76660       -7.90080
H         -3.58930        6.97570       -0.86540
H         -5.30630        6.46210        0.81670
H         -8.27530        4.29620        0.15680
H         -8.21850        5.98280        0.67010
H         -7.15920        4.80330        1.43440
H         -7.58470        4.39380       -2.13760
H         -5.86440        4.89130       -3.81830
H         -5.62950        7.84900       -4.00480
H         -6.34930        8.50150       -6.25710
H         -6.33810        7.75450       -8.74490
H         -4.78790        7.20900       -9.40330
H         -4.96650        8.85460       -8.78850
H         -3.24720        6.11120       -7.94930
H         -2.54010        5.43030       -5.70200
H          3.60000        5.09750       -0.45570
H          5.30030        5.38960       -2.19780
H          5.96220        3.79890       -4.69430
H          5.72840        5.54340       -4.66150
H          4.78190        4.54930       -5.77750
H          2.75850        3.44370       -5.01590
H          1.08690        3.08320       -3.25920
H          3.44470        2.56490       -0.01580
H          4.08640        1.95050        2.26180
H          1.93260        2.46320        5.23960
H          3.48930        3.24590        4.94890
H          3.28900        1.53050        4.58840
H          0.56060        3.82370        3.75930
H         -0.08440        4.44350        1.48560
H          4.74450        1.80930       -6.33600
H          4.85760        0.03850       -6.51910
H          7.34300        0.22700       -6.66090
H          7.22430        1.97970       -6.50260
H          6.55650        1.17620       -7.93160
H          7.25550       -5.74390        1.72910
H          6.29700       -4.76270        2.85900
H          8.38670       -3.68640        0.88720
H          8.64380       -3.90530        2.62380
H          7.49000       -2.70200        2.04890
H         -3.46990        0.38790        2.08750
H         -3.15060        2.51280        0.94940
H          1.57640       -3.63880        5.41320
H          3.15370       -5.47280        5.07080
H          3.16130       -7.68660        2.74270
H          4.28230       -6.70070        1.80890
H          4.47830       -6.85080        3.56590
H          2.28740       -5.46820        0.89670
H          0.74700       -3.57970        1.22580
H         -1.94050       -1.12940        4.57420
H         -1.82020        0.50990        6.36000
H         -0.02290        0.91660        8.62590
H         -0.25770        2.25450        7.50770
H          1.37910        1.70700        7.90330
H          2.41310        0.05330        6.51540
H          2.31990       -1.52150        4.66750
H         -3.23280       -6.85500        0.14250
H         -3.82190       -8.94820       -0.99080
H         -7.15790      -10.17460       -1.48500
H         -6.31210      -11.04370       -0.21100
H         -5.44050      -10.56330       -1.66980
H         -7.79740       -8.66170        0.53030
H         -7.20770       -6.58360        1.69240
H         -5.43340       -3.83830        3.73250
H         -7.04220       -1.98250        3.73780
H         -8.17260       -0.26590        1.11610
H         -8.80440       -0.75940        2.68910
H         -9.52160       -1.39320        1.20070
H         -7.97930       -2.78050       -0.34650
H         -6.35950       -4.62900       -0.36120
H         -4.25290       -7.62740        2.88650
H          1.31670      -10.01430        4.47030
H          2.59360      -12.09250        5.01210
H         -1.60100      -14.72510        4.85310
H         -2.87370      -12.71330        4.32860
