
  xtb     02112215323D
 energy: -426.077762379602 gnorm: 0.000279467474 xtb: 6.4.1 (unknown)
250272  0     0  0            999 V2000
    0.5053   -8.5006    2.3523 C   0  0  0  0  0  0  0  0  0  0  0  0
   -0.4201   -8.9868    3.2423 C   0  0  0  0  0  0  0  0  0  0  0  0
   -0.8938  -10.3807    3.1234 C   0  0  0  0  0  0  0  0  0  0  0  0
   -0.4171  -11.2619    2.4399 O   0  0  0  0  0  0  0  0  0  0  0  0
   -2.1016  -10.4539    3.9775 C   0  0  0  0  0  0  0  0  0  0  0  0
   -2.9954  -11.4736    4.1215 C   0  0  0  0  0  0  0  0  0  0  0  0
   -4.1186  -11.2895    4.9610 C   0  0  0  0  0  0  0  0  0  0  0  0
   -5.0758  -12.3070    5.1365 C   0  0  0  0  0  0  0  0  0  0  0  0
   -6.1604  -12.1010    5.9424 C   0  0  0  0  0  0  0  0  0  0  0  0
   -7.0727  -13.0720    6.1052 F   0  0  0  0  0  0  0  0  0  0  0  0
   -6.3340  -10.8721    6.6070 C   0  0  0  0  0  0  0  0  0  0  0  0
   -7.4086  -10.6962    7.3910 F   0  0  0  0  0  0  0  0  0  0  0  0
   -5.4212   -9.8659    6.4577 C   0  0  0  0  0  0  0  0  0  0  0  0
   -4.2919  -10.0465    5.6350 C   0  0  0  0  0  0  0  0  0  0  0  0
   -3.3395   -9.0123    5.4772 C   0  0  0  0  0  0  0  0  0  0  0  0
   -2.2587   -9.2168    4.6647 C   0  0  0  0  0  0  0  0  0  0  0  0
   -1.1277   -8.3555    4.3237 C   0  0  0  0  0  0  0  0  0  0  0  0
   -0.6859   -7.3040    5.0934 C   0  0  0  0  0  0  0  0  0  0  0  0
   -1.3634   -6.8301    6.2294 C   0  0  0  0  0  0  0  0  0  0  0  0
   -1.8686   -6.4107    7.1728 N   0  0  0  0  0  0  0  0  0  0  0  0
    0.5592   -6.6724    4.9169 C   0  0  0  0  0  0  0  0  0  0  0  0
    1.5916   -6.1704    4.8559 N   0  0  0  0  0  0  0  0  0  0  0  0
    0.7281   -7.1682    1.9925 C   0  0  0  0  0  0  0  0  0  0  0  0
    1.8079   -6.6636    1.2403 C   0  0  0  0  0  0  0  0  0  0  0  0
    2.9052   -7.3909    0.8720 N   0  0  0  0  0  0  0  0  0  0  0  0
    3.3871   -8.4389    1.6890 C   0  0  0  0  0  0  0  0  0  0  0  0
    3.7659   -9.6521    1.1230 C   0  0  0  0  0  0  0  0  0  0  0  0
    4.2211  -10.6760    1.9292 C   0  0  0  0  0  0  0  0  0  0  0  0
    4.3065  -10.5195    3.3081 C   0  0  0  0  0  0  0  0  0  0  0  0
    4.7632  -11.6529    4.1728 C   0  0  0  0  0  0  0  0  0  0  0  0
    3.9384   -9.2978    3.8588 C   0  0  0  0  0  0  0  0  0  0  0  0
    3.4903   -8.2608    3.0646 C   0  0  0  0  0  0  0  0  0  0  0  0
    3.5525   -7.1309   -0.3458 C   0  0  0  0  0  0  0  0  0  0  0  0
    4.9289   -7.3015   -0.4629 C   0  0  0  0  0  0  0  0  0  0  0  0
    5.5421   -7.1649   -1.6923 C   0  0  0  0  0  0  0  0  0  0  0  0
    4.8125   -6.8344   -2.8272 C   0  0  0  0  0  0  0  0  0  0  0  0
    5.4535   -6.7563   -4.1802 C   0  0  0  0  0  0  0  0  0  0  0  0
    3.4464   -6.6141   -2.6908 C   0  0  0  0  0  0  0  0  0  0  0  0
    2.8174   -6.7686   -1.4734 C   0  0  0  0  0  0  0  0  0  0  0  0
    1.6310   -5.2926    0.9652 C   0  0  0  0  0  0  0  0  0  0  0  0
    2.5910   -4.0782    0.1833 S   0  0  0  0  0  0  0  0  0  0  0  0
    1.4156   -2.8457    0.6106 C   0  0  0  0  0  0  0  0  0  0  0  0
    0.2923   -3.3822    1.2426 C   0  0  0  0  0  0  0  0  0  0  0  0
   -0.8635   -2.6817    1.5653 N   0  0  0  0  0  0  0  0  0  0  0  0
   -1.4353   -1.8127    0.6283 C   0  0  0  0  0  0  0  0  0  0  0  0
   -2.0862   -0.6475    1.0337 C   0  0  0  0  0  0  0  0  0  0  0  0
   -2.5669    0.2452    0.0970 C   0  0  0  0  0  0  0  0  0  0  0  0
   -2.4232    0.0107   -1.2649 C   0  0  0  0  0  0  0  0  0  0  0  0
   -2.8901    1.0042   -2.2855 C   0  0  0  0  0  0  0  0  0  0  0  0
   -1.8121   -1.1733   -1.6618 C   0  0  0  0  0  0  0  0  0  0  0  0
   -1.3195   -2.0715   -0.7362 C   0  0  0  0  0  0  0  0  0  0  0  0
   -1.4268   -2.8750    2.8368 C   0  0  0  0  0  0  0  0  0  0  0  0
   -2.8044   -2.8306    3.0230 C   0  0  0  0  0  0  0  0  0  0  0  0
   -3.3400   -3.0001    4.2849 C   0  0  0  0  0  0  0  0  0  0  0  0
   -2.5301   -3.2464    5.3855 C   0  0  0  0  0  0  0  0  0  0  0  0
   -3.1008   -3.4032    6.7583 C   0  0  0  0  0  0  0  0  0  0  0  0
   -1.1571   -3.3304    5.1821 C   0  0  0  0  0  0  0  0  0  0  0  0
   -0.6059   -3.1330    3.9330 C   0  0  0  0  0  0  0  0  0  0  0  0
    0.4515   -4.7613    1.4698 C   0  0  0  0  0  0  0  0  0  0  0  0
   -0.4925   -5.9296    2.3109 S   0  0  0  0  0  0  0  0  0  0  0  0
    1.5857   -1.4509    0.3780 C   0  0  0  0  0  0  0  0  0  0  0  0
    2.1199   -0.7454   -0.6899 C   0  0  0  0  0  0  0  0  0  0  0  0
    2.8656   -1.2722   -1.7367 N   0  0  0  0  0  0  0  0  0  0  0  0
    4.0118   -2.0221   -1.4647 C   0  0  0  0  0  0  0  0  0  0  0  0
    4.6617   -1.9210   -0.2323 C   0  0  0  0  0  0  0  0  0  0  0  0
    5.7914   -2.6665    0.0252 C   0  0  0  0  0  0  0  0  0  0  0  0
    6.3081   -3.5173   -0.9449 C   0  0  0  0  0  0  0  0  0  0  0  0
    7.7527   -4.4453   -0.5272 S   0  0  0  0  0  0  0  0  0  0  0  0
    8.5409   -4.7050   -2.1456 C   0  0  0  0  0  0  0  0  0  0  0  0
    5.6706   -3.6191   -2.1743 C   0  0  0  0  0  0  0  0  0  0  0  0
    4.5321   -2.8845   -2.4289 C   0  0  0  0  0  0  0  0  0  0  0  0
    2.6532   -0.7030   -3.0045 C   0  0  0  0  0  0  0  0  0  0  0  0
    3.7063   -0.2755   -3.8065 C   0  0  0  0  0  0  0  0  0  0  0  0
    3.4612    0.3522   -5.0124 C   0  0  0  0  0  0  0  0  0  0  0  0
    2.1564    0.5756   -5.4322 C   0  0  0  0  0  0  0  0  0  0  0  0
    1.7284    1.4046   -6.9288 S   0  0  0  0  0  0  0  0  0  0  0  0
    3.3076    2.0870   -7.5097 C   0  0  0  0  0  0  0  0  0  0  0  0
    1.0992    0.1285   -4.6419 C   0  0  0  0  0  0  0  0  0  0  0  0
    1.3438   -0.5061   -3.4455 C   0  0  0  0  0  0  0  0  0  0  0  0
    1.7896    0.6298   -0.5961 C   0  0  0  0  0  0  0  0  0  0  0  0
    1.9332    1.9571   -1.6821 S   0  0  0  0  0  0  0  0  0  0  0  0
    1.0870    3.0051   -0.5457 C   0  0  0  0  0  0  0  0  0  0  0  0
    0.6785    2.3357    0.5956 C   0  0  0  0  0  0  0  0  0  0  0  0
   -0.1340    2.8587    1.5828 N   0  0  0  0  0  0  0  0  0  0  0  0
   -1.0470    3.8843    1.2794 C   0  0  0  0  0  0  0  0  0  0  0  0
   -1.7719    3.8792    0.0881 C   0  0  0  0  0  0  0  0  0  0  0  0
   -2.5945    4.9371   -0.2317 C   0  0  0  0  0  0  0  0  0  0  0  0
   -2.7289    6.0096    0.6449 C   0  0  0  0  0  0  0  0  0  0  0  0
   -3.7440    7.3601    0.1240 S   0  0  0  0  0  0  0  0  0  0  0  0
   -2.9980    8.7759    0.9897 C   0  0  0  0  0  0  0  0  0  0  0  0
   -2.0882    5.9707    1.8768 C   0  0  0  0  0  0  0  0  0  0  0  0
   -1.2446    4.9199    2.1861 C   0  0  0  0  0  0  0  0  0  0  0  0
   -0.2757    2.1902    2.8109 C   0  0  0  0  0  0  0  0  0  0  0  0
    0.8356    1.7295    3.5096 C   0  0  0  0  0  0  0  0  0  0  0  0
    0.6850    1.0201    4.6874 C   0  0  0  0  0  0  0  0  0  0  0  0
   -0.5829    0.7572    5.1854 C   0  0  0  0  0  0  0  0  0  0  0  0
   -0.9002   -0.1595    6.6559 S   0  0  0  0  0  0  0  0  0  0  0  0
    0.7068   -0.9028    7.0538 C   0  0  0  0  0  0  0  0  0  0  0  0
   -1.6969    1.2547    4.5102 C   0  0  0  0  0  0  0  0  0  0  0  0
   -1.5473    1.9648    3.3413 C   0  0  0  0  0  0  0  0  0  0  0  0
    1.1140    0.9870    0.5574 C   0  0  0  0  0  0  0  0  0  0  0  0
    0.9026   -0.3713    1.5948 S   0  0  0  0  0  0  0  0  0  0  0  0
    0.8002    4.3384   -0.9930 C   0  0  0  0  0  0  0  0  0  0  0  0
    1.1329    5.5656   -0.4341 C   0  0  0  0  0  0  0  0  0  0  0  0
    1.9518    5.7138    0.6637 N   0  0  0  0  0  0  0  0  0  0  0  0
    2.0125    6.9159    1.3876 C   0  0  0  0  0  0  0  0  0  0  0  0
    0.8587    7.6178    1.7185 C   0  0  0  0  0  0  0  0  0  0  0  0
    0.9413    8.7991    2.4319 C   0  0  0  0  0  0  0  0  0  0  0  0
    2.1667    9.3078    2.8382 C   0  0  0  0  0  0  0  0  0  0  0  0
    2.2577   10.6021    3.5855 C   0  0  0  0  0  0  0  0  0  0  0  0
    3.3151    8.5920    2.5154 C   0  0  0  0  0  0  0  0  0  0  0  0
    3.2468    7.4149    1.7998 C   0  0  0  0  0  0  0  0  0  0  0  0
    2.8698    4.6969    1.0001 C   0  0  0  0  0  0  0  0  0  0  0  0
    3.0090    4.3121    2.3297 C   0  0  0  0  0  0  0  0  0  0  0  0
    3.8755    3.2915    2.6679 C   0  0  0  0  0  0  0  0  0  0  0  0
    4.6080    2.6173    1.6956 C   0  0  0  0  0  0  0  0  0  0  0  0
    5.4965    1.4725    2.0752 C   0  0  0  0  0  0  0  0  0  0  0  0
    4.4925    3.0365    0.3774 C   0  0  0  0  0  0  0  0  0  0  0  0
    3.6473    4.0732    0.0301 C   0  0  0  0  0  0  0  0  0  0  0  0
    0.5799    6.6215   -1.2032 C   0  0  0  0  0  0  0  0  0  0  0  0
    0.5251    8.3417   -1.0776 S   0  0  0  0  0  0  0  0  0  0  0  0
   -0.3662    8.4692   -2.5881 C   0  0  0  0  0  0  0  0  0  0  0  0
   -0.6192    7.2218   -3.1461 C   0  0  0  0  0  0  0  0  0  0  0  0
   -1.4493    6.9914   -4.2658 N   0  0  0  0  0  0  0  0  0  0  0  0
   -2.7824    6.6686   -3.8632 C   0  0  0  0  0  0  0  0  0  0  0  0
   -3.2324    5.3531   -3.8692 C   0  0  0  0  0  0  0  0  0  0  0  0
   -4.5161    5.0581   -3.4493 C   0  0  0  0  0  0  0  0  0  0  0  0
   -5.3724    6.0591   -3.0086 C   0  0  0  0  0  0  0  0  0  0  0  0
   -6.7500    5.7448   -2.5149 C   0  0  0  0  0  0  0  0  0  0  0  0
   -4.9110    7.3702   -3.0084 C   0  0  0  0  0  0  0  0  0  0  0  0
   -3.6307    7.6773   -3.4258 C   0  0  0  0  0  0  0  0  0  0  0  0
   -0.9280    6.3270   -5.3834 C   0  0  0  0  0  0  0  0  0  0  0  0
    0.4192    5.9891   -5.5003 C   0  0  0  0  0  0  0  0  0  0  0  0
    0.8931    5.3980   -6.6566 C   0  0  0  0  0  0  0  0  0  0  0  0
    0.0527    5.1209   -7.7243 C   0  0  0  0  0  0  0  0  0  0  0  0
    0.5686    4.4635   -8.9657 C   0  0  0  0  0  0  0  0  0  0  0  0
   -1.2907    5.4574   -7.6000 C   0  0  0  0  0  0  0  0  0  0  0  0
   -1.7760    6.0583   -6.4586 C   0  0  0  0  0  0  0  0  0  0  0  0
   -0.0920    6.1960   -2.3465 C   0  0  0  0  0  0  0  0  0  0  0  0
   -0.0635    4.4842   -2.5176 S   0  0  0  0  0  0  0  0  0  0  0  0
   -0.8235    9.7476   -2.9809 C   0  0  0  0  0  0  0  0  0  0  0  0
   -1.2250   10.1720   -4.2105 C   0  0  0  0  0  0  0  0  0  0  0  0
   -2.0957   11.3625   -4.3230 C   0  0  0  0  0  0  0  0  0  0  0  0
   -2.3439   12.1683   -3.4570 O   0  0  0  0  0  0  0  0  0  0  0  0
   -2.6502   11.2957   -5.6959 C   0  0  0  0  0  0  0  0  0  0  0  0
   -3.6214   12.0998   -6.2672 C   0  0  0  0  0  0  0  0  0  0  0  0
   -4.2853   13.4261   -5.4235 Cl  0  0  0  0  0  0  0  0  0  0  0  0
   -4.0543   11.7990   -7.5653 C   0  0  0  0  0  0  0  0  0  0  0  0
   -5.2398   12.7746   -8.3181 Cl  0  0  0  0  0  0  0  0  0  0  0  0
   -3.5346   10.6928   -8.2346 C   0  0  0  0  0  0  0  0  0  0  0  0
   -4.1205   10.3112   -9.7947 Cl  0  0  0  0  0  0  0  0  0  0  0  0
   -2.5451    9.8827   -7.6541 C   0  0  0  0  0  0  0  0  0  0  0  0
   -2.0304    8.4885   -8.5076 Cl  0  0  0  0  0  0  0  0  0  0  0  0
   -2.0738   10.2077   -6.3886 C   0  0  0  0  0  0  0  0  0  0  0  0
   -1.0314    9.6288   -5.5411 C   0  0  0  0  0  0  0  0  0  0  0  0
    0.1314    9.0174   -5.9294 C   0  0  0  0  0  0  0  0  0  0  0  0
    1.1890    8.8237   -5.0112 C   0  0  0  0  0  0  0  0  0  0  0  0
    2.0934    8.7107   -4.3136 N   0  0  0  0  0  0  0  0  0  0  0  0
    0.5549    8.6848   -7.2317 C   0  0  0  0  0  0  0  0  0  0  0  0
    1.0355    8.4179   -8.2393 N   0  0  0  0  0  0  0  0  0  0  0  0
    1.0457   -9.2571    1.7937 H   0  0  0  0  0  0  0  0  0  0  0  0
   -2.8537  -12.4074    3.5991 H   0  0  0  0  0  0  0  0  0  0  0  0
   -4.9577  -13.2539    4.6332 H   0  0  0  0  0  0  0  0  0  0  0  0
   -5.5675   -8.9314    6.9765 H   0  0  0  0  0  0  0  0  0  0  0  0
   -3.4966   -8.0774    5.9915 H   0  0  0  0  0  0  0  0  0  0  0  0
    3.6890   -9.7910    0.0544 H   0  0  0  0  0  0  0  0  0  0  0  0
    4.5033  -11.6175    1.4816 H   0  0  0  0  0  0  0  0  0  0  0  0
    3.9513  -12.3692    4.3015 H   0  0  0  0  0  0  0  0  0  0  0  0
    5.0627  -11.2976    5.1555 H   0  0  0  0  0  0  0  0  0  0  0  0
    5.5998  -12.1765    3.7147 H   0  0  0  0  0  0  0  0  0  0  0  0
    4.0070   -9.1488    4.9263 H   0  0  0  0  0  0  0  0  0  0  0  0
    3.2064   -7.3193    3.5102 H   0  0  0  0  0  0  0  0  0  0  0  0
    5.5122   -7.5568    0.4086 H   0  0  0  0  0  0  0  0  0  0  0  0
    6.6071   -7.3312   -1.7645 H   0  0  0  0  0  0  0  0  0  0  0  0
    5.1164   -7.5893   -4.7975 H   0  0  0  0  0  0  0  0  0  0  0  0
    6.5377   -6.8100   -4.1093 H   0  0  0  0  0  0  0  0  0  0  0  0
    5.1743   -5.8363   -4.6918 H   0  0  0  0  0  0  0  0  0  0  0  0
    2.8618   -6.3473   -3.5593 H   0  0  0  0  0  0  0  0  0  0  0  0
    1.7473   -6.6429   -1.3987 H   0  0  0  0  0  0  0  0  0  0  0  0
   -2.1832   -0.4318    2.0870 H   0  0  0  0  0  0  0  0  0  0  0  0
   -3.0554    1.1482    0.4350 H   0  0  0  0  0  0  0  0  0  0  0  0
   -3.4025    0.5029   -3.1047 H   0  0  0  0  0  0  0  0  0  0  0  0
   -3.5652    1.7320   -1.8411 H   0  0  0  0  0  0  0  0  0  0  0  0
   -2.0368    1.5392   -2.7076 H   0  0  0  0  0  0  0  0  0  0  0  0
   -1.7298   -1.3986   -2.7161 H   0  0  0  0  0  0  0  0  0  0  0  0
   -0.8403   -2.9813   -1.0691 H   0  0  0  0  0  0  0  0  0  0  0  0
   -3.4528   -2.6615    2.1758 H   0  0  0  0  0  0  0  0  0  0  0  0
   -4.4118   -2.9478    4.4126 H   0  0  0  0  0  0  0  0  0  0  0  0
   -2.7639   -4.3387    7.2029 H   0  0  0  0  0  0  0  0  0  0  0  0
   -4.1873   -3.3948    6.7328 H   0  0  0  0  0  0  0  0  0  0  0  0
   -2.7619   -2.5862    7.3950 H   0  0  0  0  0  0  0  0  0  0  0  0
   -0.5116   -3.5488    6.0203 H   0  0  0  0  0  0  0  0  0  0  0  0
    0.4661   -3.1764    3.8002 H   0  0  0  0  0  0  0  0  0  0  0  0
    4.2843   -1.2435    0.5185 H   0  0  0  0  0  0  0  0  0  0  0  0
    6.2905   -2.5874    0.9786 H   0  0  0  0  0  0  0  0  0  0  0  0
    9.5559   -5.0265   -1.9346 H   0  0  0  0  0  0  0  0  0  0  0  0
    8.0202   -5.4764   -2.7043 H   0  0  0  0  0  0  0  0  0  0  0  0
    8.5526   -3.7684   -2.6941 H   0  0  0  0  0  0  0  0  0  0  0  0
    6.0520   -4.2776   -2.9359 H   0  0  0  0  0  0  0  0  0  0  0  0
    4.0320   -2.9806   -3.3810 H   0  0  0  0  0  0  0  0  0  0  0  0
    4.7246   -0.4168   -3.4756 H   0  0  0  0  0  0  0  0  0  0  0  0
    4.3002    0.6773   -5.6059 H   0  0  0  0  0  0  0  0  0  0  0  0
    3.7473    2.7019   -6.7301 H   0  0  0  0  0  0  0  0  0  0  0  0
    3.9776    1.2858   -7.8082 H   0  0  0  0  0  0  0  0  0  0  0  0
    3.0639    2.6999   -8.3714 H   0  0  0  0  0  0  0  0  0  0  0  0
    0.0870    0.2956   -4.9765 H   0  0  0  0  0  0  0  0  0  0  0  0
    0.5251   -0.8359   -2.8241 H   0  0  0  0  0  0  0  0  0  0  0  0
   -1.6761    3.0438   -0.5873 H   0  0  0  0  0  0  0  0  0  0  0  0
   -3.1346    4.9501   -1.1661 H   0  0  0  0  0  0  0  0  0  0  0  0
   -1.9209    8.7557    0.8522 H   0  0  0  0  0  0  0  0  0  0  0  0
   -3.4151    9.6598    0.5173 H   0  0  0  0  0  0  0  0  0  0  0  0
   -3.2628    8.7655    2.0429 H   0  0  0  0  0  0  0  0  0  0  0  0
   -2.2312    6.7613    2.5968 H   0  0  0  0  0  0  0  0  0  0  0  0
   -0.7239    4.9057    3.1321 H   0  0  0  0  0  0  0  0  0  0  0  0
    1.8237    1.9348    3.1275 H   0  0  0  0  0  0  0  0  0  0  0  0
    1.5673    0.6773    5.2029 H   0  0  0  0  0  0  0  0  0  0  0  0
    0.5160   -1.5990    7.8646 H   0  0  0  0  0  0  0  0  0  0  0  0
    1.4042   -0.1386    7.3849 H   0  0  0  0  0  0  0  0  0  0  0  0
    1.0821   -1.4368    6.1863 H   0  0  0  0  0  0  0  0  0  0  0  0
   -2.6806    1.0588    4.9086 H   0  0  0  0  0  0  0  0  0  0  0  0
   -2.4170    2.3346    2.8189 H   0  0  0  0  0  0  0  0  0  0  0  0
   -0.1003    7.2138    1.4375 H   0  0  0  0  0  0  0  0  0  0  0  0
    0.0344    9.3314    2.6819 H   0  0  0  0  0  0  0  0  0  0  0  0
    1.3233   10.8248    4.0949 H   0  0  0  0  0  0  0  0  0  0  0  0
    2.4672   11.4166    2.8914 H   0  0  0  0  0  0  0  0  0  0  0  0
    3.0617   10.5719    4.3174 H   0  0  0  0  0  0  0  0  0  0  0  0
    4.2797    8.9685    2.8234 H   0  0  0  0  0  0  0  0  0  0  0  0
    4.1492    6.8759    1.5518 H   0  0  0  0  0  0  0  0  0  0  0  0
    2.4283    4.8130    3.0904 H   0  0  0  0  0  0  0  0  0  0  0  0
    3.9797    3.0037    3.7048 H   0  0  0  0  0  0  0  0  0  0  0  0
    4.9190    0.6941    2.5738 H   0  0  0  0  0  0  0  0  0  0  0  0
    6.2705    1.8032    2.7668 H   0  0  0  0  0  0  0  0  0  0  0  0
    5.9749    1.0425    1.1987 H   0  0  0  0  0  0  0  0  0  0  0  0
    5.0715    2.5476   -0.3928 H   0  0  0  0  0  0  0  0  0  0  0  0
    3.5838    4.3984   -0.9979 H   0  0  0  0  0  0  0  0  0  0  0  0
   -2.5712    4.5648   -4.2002 H   0  0  0  0  0  0  0  0  0  0  0  0
   -4.8502    4.0300   -3.4544 H   0  0  0  0  0  0  0  0  0  0  0  0
   -6.8044    5.9218   -1.4409 H   0  0  0  0  0  0  0  0  0  0  0  0
   -7.0094    4.7072   -2.7088 H   0  0  0  0  0  0  0  0  0  0  0  0
   -7.4853    6.3876   -2.9952 H   0  0  0  0  0  0  0  0  0  0  0  0
   -5.5615    8.1616   -2.6678 H   0  0  0  0  0  0  0  0  0  0  0  0
   -3.2865    8.6994   -3.4089 H   0  0  0  0  0  0  0  0  0  0  0  0
    1.1058    6.1881   -4.6922 H   0  0  0  0  0  0  0  0  0  0  0  0
    1.9429    5.1538   -6.7250 H   0  0  0  0  0  0  0  0  0  0  0  0
    0.5734    3.3799   -8.8360 H   0  0  0  0  0  0  0  0  0  0  0  0
   -0.0619    4.7009   -9.8190 H   0  0  0  0  0  0  0  0  0  0  0  0
    1.5836    4.7917   -9.1784 H   0  0  0  0  0  0  0  0  0  0  0  0
   -1.9681    5.2568   -8.4179 H   0  0  0  0  0  0  0  0  0  0  0  0
   -2.8193    6.3306   -6.3905 H   0  0  0  0  0  0  0  0  0  0  0  0
   -0.9524   10.4683   -2.1791 H   0  0  0  0  0  0  0  0  0  0  0  0
  1  2  2  0  0  0  0
  2  3  1  0  0  0  0
  3  4  2  0  0  0  0
  3  5  1  0  0  0  0
  5  6  2  0  0  0  0
  6  7  1  0  0  0  0
  7  8  2  0  0  0  0
  8  9  1  0  0  0  0
  9 10  1  0  0  0  0
  9 11  2  0  0  0  0
 11 12  1  0  0  0  0
 11 13  1  0  0  0  0
 13 14  2  0  0  0  0
 14 15  1  0  0  0  0
 15 16  2  0  0  0  0
 16 17  1  0  0  0  0
 17 18  2  0  0  0  0
 18 19  1  0  0  0  0
 19 20  3  0  0  0  0
 18 21  1  0  0  0  0
 21 22  3  0  0  0  0
  1 23  1  0  0  0  0
 23 24  2  0  0  0  0
 24 25  1  0  0  0  0
 25 26  1  0  0  0  0
 26 27  2  0  0  0  0
 27 28  1  0  0  0  0
 28 29  2  0  0  0  0
 29 30  1  0  0  0  0
 29 31  1  0  0  0  0
 31 32  2  0  0  0  0
 25 33  1  0  0  0  0
 33 34  2  0  0  0  0
 34 35  1  0  0  0  0
 35 36  2  0  0  0  0
 36 37  1  0  0  0  0
 36 38  1  0  0  0  0
 38 39  2  0  0  0  0
 24 40  1  0  0  0  0
 40 41  1  0  0  0  0
 41 42  1  0  0  0  0
 42 43  2  0  0  0  0
 43 44  1  0  0  0  0
 44 45  1  0  0  0  0
 45 46  2  0  0  0  0
 46 47  1  0  0  0  0
 47 48  2  0  0  0  0
 48 49  1  0  0  0  0
 48 50  1  0  0  0  0
 50 51  2  0  0  0  0
 44 52  1  0  0  0  0
 52 53  2  0  0  0  0
 53 54  1  0  0  0  0
 54 55  2  0  0  0  0
 55 56  1  0  0  0  0
 55 57  1  0  0  0  0
 57 58  2  0  0  0  0
 43 59  1  0  0  0  0
 59 60  1  0  0  0  0
 42 61  1  0  0  0  0
 61 62  2  0  0  0  0
 62 63  1  0  0  0  0
 63 64  1  0  0  0  0
 64 65  2  0  0  0  0
 65 66  1  0  0  0  0
 66 67  2  0  0  0  0
 67 68  1  0  0  0  0
 68 69  1  0  0  0  0
 67 70  1  0  0  0  0
 70 71  2  0  0  0  0
 63 72  1  0  0  0  0
 72 73  2  0  0  0  0
 73 74  1  0  0  0  0
 74 75  2  0  0  0  0
 75 76  1  0  0  0  0
 76 77  1  0  0  0  0
 75 78  1  0  0  0  0
 78 79  2  0  0  0  0
 62 80  1  0  0  0  0
 80 81  1  0  0  0  0
 81 82  1  0  0  0  0
 82 83  2  0  0  0  0
 83 84  1  0  0  0  0
 84 85  1  0  0  0  0
 85 86  2  0  0  0  0
 86 87  1  0  0  0  0
 87 88  2  0  0  0  0
 88 89  1  0  0  0  0
 89 90  1  0  0  0  0
 88 91  1  0  0  0  0
 91 92  2  0  0  0  0
 84 93  1  0  0  0  0
 93 94  2  0  0  0  0
 94 95  1  0  0  0  0
 95 96  2  0  0  0  0
 96 97  1  0  0  0  0
 97 98  1  0  0  0  0
 96 99  1  0  0  0  0
 99100  2  0  0  0  0
 83101  1  0  0  0  0
101102  1  0  0  0  0
 82103  1  0  0  0  0
103104  2  0  0  0  0
104105  1  0  0  0  0
105106  1  0  0  0  0
106107  2  0  0  0  0
107108  1  0  0  0  0
108109  2  0  0  0  0
109110  1  0  0  0  0
109111  1  0  0  0  0
111112  2  0  0  0  0
105113  1  0  0  0  0
113114  2  0  0  0  0
114115  1  0  0  0  0
115116  2  0  0  0  0
116117  1  0  0  0  0
116118  1  0  0  0  0
118119  2  0  0  0  0
104120  1  0  0  0  0
120121  1  0  0  0  0
121122  1  0  0  0  0
122123  2  0  0  0  0
123124  1  0  0  0  0
124125  1  0  0  0  0
125126  2  0  0  0  0
126127  1  0  0  0  0
127128  2  0  0  0  0
128129  1  0  0  0  0
128130  1  0  0  0  0
130131  2  0  0  0  0
124132  1  0  0  0  0
132133  2  0  0  0  0
133134  1  0  0  0  0
134135  2  0  0  0  0
135136  1  0  0  0  0
135137  1  0  0  0  0
137138  2  0  0  0  0
123139  1  0  0  0  0
139140  1  0  0  0  0
122141  1  0  0  0  0
141142  2  0  0  0  0
142143  1  0  0  0  0
143144  2  0  0  0  0
143145  1  0  0  0  0
145146  2  0  0  0  0
146147  1  0  0  0  0
146148  1  0  0  0  0
148149  1  0  0  0  0
148150  2  0  0  0  0
150151  1  0  0  0  0
150152  1  0  0  0  0
152153  1  0  0  0  0
152154  2  0  0  0  0
154155  1  0  0  0  0
155156  2  0  0  0  0
156157  1  0  0  0  0
157158  3  0  0  0  0
156159  1  0  0  0  0
159160  3  0  0  0  0
 17  2  1  0  0  0  0
 60 23  1  0  0  0  0
102 61  1  0  0  0  0
140103  1  0  0  0  0
155142  1  0  0  0  0
 16  5  1  0  0  0  0
 32 26  1  0  0  0  0
 39 33  1  0  0  0  0
 59 40  2  0  0  0  0
 71 64  1  0  0  0  0
 79 72  1  0  0  0  0
101 80  2  0  0  0  0
112106  1  0  0  0  0
119113  1  0  0  0  0
139120  2  0  0  0  0
154145  1  0  0  0  0
 14  7  1  0  0  0  0
 51 45  1  0  0  0  0
 58 52  1  0  0  0  0
 92 85  1  0  0  0  0
100 93  1  0  0  0  0
131125  1  0  0  0  0
138132  1  0  0  0  0
  1161  1  0  0  0  0
  6162  1  0  0  0  0
  8163  1  0  0  0  0
 13164  1  0  0  0  0
 15165  1  0  0  0  0
 27166  1  0  0  0  0
 28167  1  0  0  0  0
 30168  1  0  0  0  0
 30169  1  0  0  0  0
 30170  1  0  0  0  0
 31171  1  0  0  0  0
 32172  1  0  0  0  0
 34173  1  0  0  0  0
 35174  1  0  0  0  0
 37175  1  0  0  0  0
 37176  1  0  0  0  0
 37177  1  0  0  0  0
 38178  1  0  0  0  0
 39179  1  0  0  0  0
 46180  1  0  0  0  0
 47181  1  0  0  0  0
 49182  1  0  0  0  0
 49183  1  0  0  0  0
 49184  1  0  0  0  0
 50185  1  0  0  0  0
 51186  1  0  0  0  0
 53187  1  0  0  0  0
 54188  1  0  0  0  0
 56189  1  0  0  0  0
 56190  1  0  0  0  0
 56191  1  0  0  0  0
 57192  1  0  0  0  0
 58193  1  0  0  0  0
 65194  1  0  0  0  0
 66195  1  0  0  0  0
 69196  1  0  0  0  0
 69197  1  0  0  0  0
 69198  1  0  0  0  0
 70199  1  0  0  0  0
 71200  1  0  0  0  0
 73201  1  0  0  0  0
 74202  1  0  0  0  0
 77203  1  0  0  0  0
 77204  1  0  0  0  0
 77205  1  0  0  0  0
 78206  1  0  0  0  0
 79207  1  0  0  0  0
 86208  1  0  0  0  0
 87209  1  0  0  0  0
 90210  1  0  0  0  0
 90211  1  0  0  0  0
 90212  1  0  0  0  0
 91213  1  0  0  0  0
 92214  1  0  0  0  0
 94215  1  0  0  0  0
 95216  1  0  0  0  0
 98217  1  0  0  0  0
 98218  1  0  0  0  0
 98219  1  0  0  0  0
 99220  1  0  0  0  0
100221  1  0  0  0  0
107222  1  0  0  0  0
108223  1  0  0  0  0
110224  1  0  0  0  0
110225  1  0  0  0  0
110226  1  0  0  0  0
111227  1  0  0  0  0
112228  1  0  0  0  0
114229  1  0  0  0  0
115230  1  0  0  0  0
117231  1  0  0  0  0
117232  1  0  0  0  0
117233  1  0  0  0  0
118234  1  0  0  0  0
119235  1  0  0  0  0
126236  1  0  0  0  0
127237  1  0  0  0  0
129238  1  0  0  0  0
129239  1  0  0  0  0
129240  1  0  0  0  0
130241  1  0  0  0  0
131242  1  0  0  0  0
133243  1  0  0  0  0
134244  1  0  0  0  0
136245  1  0  0  0  0
136246  1  0  0  0  0
136247  1  0  0  0  0
137248  1  0  0  0  0
138249  1  0  0  0  0
141250  1  0  0  0  0
M  END
