
  xtb     02112217203D
 energy: -424.858135130831 gnorm: 0.000704295623 xtb: 6.4.1 (unknown)
234255  0     0  0            999 V2000
   -1.3262    7.8912   -4.3918 C   0  0  0  0  0  0  0  0  0  0  0  0
   -0.3731    8.6332   -5.0607 C   0  0  0  0  0  0  0  0  0  0  0  0
    1.0476    8.3090   -5.1771 C   0  0  0  0  0  0  0  0  0  0  0  0
    1.6720    7.4346   -4.6005 O   0  0  0  0  0  0  0  0  0  0  0  0
    1.6001    9.2520   -6.1708 C   0  0  0  0  0  0  0  0  0  0  0  0
    2.8742    9.3399   -6.6482 C   0  0  0  0  0  0  0  0  0  0  0  0
    3.1773   10.3257   -7.6149 C   0  0  0  0  0  0  0  0  0  0  0  0
    4.4742   10.4592   -8.1460 C   0  0  0  0  0  0  0  0  0  0  0  0
    4.7394   11.4196   -9.0818 C   0  0  0  0  0  0  0  0  0  0  0  0
    5.9763   11.5430   -9.5876 F   0  0  0  0  0  0  0  0  0  0  0  0
    3.7221   12.2862   -9.5252 C   0  0  0  0  0  0  0  0  0  0  0  0
    4.0103   13.2190  -10.4449 F   0  0  0  0  0  0  0  0  0  0  0  0
    2.4534   12.1814   -9.0272 C   0  0  0  0  0  0  0  0  0  0  0  0
    2.1471   11.2019   -8.0620 C   0  0  0  0  0  0  0  0  0  0  0  0
    0.8360   11.0873   -7.5422 C   0  0  0  0  0  0  0  0  0  0  0  0
    0.5646   10.1230   -6.6094 C   0  0  0  0  0  0  0  0  0  0  0  0
   -0.6631    9.7716   -5.8966 C   0  0  0  0  0  0  0  0  0  0  0  0
   -1.8600   10.4403   -6.0100 C   0  0  0  0  0  0  0  0  0  0  0  0
   -3.0074   10.2013   -5.2314 C   0  0  0  0  0  0  0  0  0  0  0  0
   -3.9754   10.0941   -4.6195 N   0  0  0  0  0  0  0  0  0  0  0  0
   -2.0912   11.4931   -6.9161 C   0  0  0  0  0  0  0  0  0  0  0  0
   -2.3538   12.3396   -7.6473 N   0  0  0  0  0  0  0  0  0  0  0  0
   -1.1949    6.7612   -3.5931 C   0  0  0  0  0  0  0  0  0  0  0  0
   -2.3061    6.0438   -3.0704 C   0  0  0  0  0  0  0  0  0  0  0  0
   -3.6158    6.2439   -3.4059 N   0  0  0  0  0  0  0  0  0  0  0  0
   -4.6091    5.9553   -2.4488 C   0  0  0  0  0  0  0  0  0  0  0  0
   -4.4613    6.3993   -1.1372 C   0  0  0  0  0  0  0  0  0  0  0  0
   -5.4298    6.1116   -0.1976 C   0  0  0  0  0  0  0  0  0  0  0  0
   -6.5656    5.3846   -0.5376 C   0  0  0  0  0  0  0  0  0  0  0  0
   -7.6150    5.0928    0.4897 C   0  0  0  0  0  0  0  0  0  0  0  0
   -6.7091    4.9584   -1.8523 C   0  0  0  0  0  0  0  0  0  0  0  0
   -5.7458    5.2360   -2.8020 C   0  0  0  0  0  0  0  0  0  0  0  0
   -4.0252    6.6117   -4.7022 C   0  0  0  0  0  0  0  0  0  0  0  0
   -5.1132    7.4642   -4.8700 C   0  0  0  0  0  0  0  0  0  0  0  0
   -5.5132    7.8291   -6.1402 C   0  0  0  0  0  0  0  0  0  0  0  0
   -4.8412    7.3683   -7.2661 C   0  0  0  0  0  0  0  0  0  0  0  0
   -5.2574    7.8154   -8.6329 C   0  0  0  0  0  0  0  0  0  0  0  0
   -3.7705    6.4991   -7.0872 C   0  0  0  0  0  0  0  0  0  0  0  0
   -3.3685    6.1125   -5.8247 C   0  0  0  0  0  0  0  0  0  0  0  0
   -1.8782    5.0623   -2.1608 C   0  0  0  0  0  0  0  0  0  0  0  0
   -2.6883    3.8746   -1.1970 S   0  0  0  0  0  0  0  0  0  0  0  0
   -1.1445    3.2428   -0.6249 C   0  0  0  0  0  0  0  0  0  0  0  0
   -0.0675    3.9780   -1.1109 C   0  0  0  0  0  0  0  0  0  0  0  0
    1.2568    3.8636   -0.7433 N   0  0  0  0  0  0  0  0  0  0  0  0
    2.2332    4.0529   -1.7339 C   0  0  0  0  0  0  0  0  0  0  0  0
    3.4271    4.7118   -1.4494 C   0  0  0  0  0  0  0  0  0  0  0  0
    4.3782    4.8787   -2.4342 C   0  0  0  0  0  0  0  0  0  0  0  0
    4.1636    4.4210   -3.7298 C   0  0  0  0  0  0  0  0  0  0  0  0
    5.2167    4.5912   -4.7814 C   0  0  0  0  0  0  0  0  0  0  0  0
    2.9613    3.7880   -4.0117 C   0  0  0  0  0  0  0  0  0  0  0  0
    2.0103    3.5931   -3.0292 C   0  0  0  0  0  0  0  0  0  0  0  0
    1.6249    3.5287    0.5646 C   0  0  0  0  0  0  0  0  0  0  0  0
    2.8096    2.8378    0.8119 C   0  0  0  0  0  0  0  0  0  0  0  0
    3.1706    2.4986    2.0981 C   0  0  0  0  0  0  0  0  0  0  0  0
    2.3703    2.8408    3.1815 C   0  0  0  0  0  0  0  0  0  0  0  0
    2.7907    2.4963    4.5742 C   0  0  0  0  0  0  0  0  0  0  0  0
    1.1956    3.5387    2.9327 C   0  0  0  0  0  0  0  0  0  0  0  0
    0.8254    3.8851    1.6482 C   0  0  0  0  0  0  0  0  0  0  0  0
   -0.5001    4.9899   -2.0085 C   0  0  0  0  0  0  0  0  0  0  0  0
    0.3426    6.1189   -3.0059 S   0  0  0  0  0  0  0  0  0  0  0  0
   -1.2032    2.0698    0.2037 C   0  0  0  0  0  0  0  0  0  0  0  0
   -0.1803    1.0769    0.2015 C   0  0  0  0  0  0  0  0  0  0  0  0
    0.8359    1.1699   -0.6624 N   0  0  0  0  0  0  0  0  0  0  0  0
    1.7696    0.2510   -0.6761 C   0  0  0  0  0  0  0  0  0  0  0  0
    2.7846    0.3589   -1.7391 C   0  0  0  0  0  0  0  0  0  0  0  0
    2.3831    0.4786   -3.0654 C   0  0  0  0  0  0  0  0  0  0  0  0
    3.2901    0.6077   -4.1096 C   0  0  0  0  0  0  0  0  0  0  0  0
    4.6676    0.6551   -3.8767 C   0  0  0  0  0  0  0  0  0  0  0  0
    5.6523    0.8073   -4.7649 O   0  0  0  0  0  0  0  0  0  0  0  0
    5.3768    0.9331   -6.1588 C   0  0  0  0  0  0  0  0  0  0  0  0
    6.7143    1.0899   -6.8609 C   0  0  0  0  0  0  0  0  0  0  0  0
    5.0659    0.5291   -2.5341 C   0  0  0  0  0  0  0  0  0  0  0  0
    4.1578    0.3773   -1.5042 C   0  0  0  0  0  0  0  0  0  0  0  0
    4.6307    0.2799   -0.2502 F   0  0  0  0  0  0  0  0  0  0  0  0
    6.3777    0.5640   -2.2558 F   0  0  0  0  0  0  0  0  0  0  0  0
    2.7881    0.7021   -5.3575 F   0  0  0  0  0  0  0  0  0  0  0  0
    1.0837    0.4404   -3.3682 F   0  0  0  0  0  0  0  0  0  0  0  0
    1.7562   -0.7925    0.2851 C   0  0  0  0  0  0  0  0  0  0  0  0
    2.8689   -1.7514    0.4265 C   0  0  0  0  0  0  0  0  0  0  0  0
    3.2521   -2.6119   -0.5972 C   0  0  0  0  0  0  0  0  0  0  0  0
    2.6133   -2.5635   -1.7780 F   0  0  0  0  0  0  0  0  0  0  0  0
    4.2700   -3.5295   -0.4208 C   0  0  0  0  0  0  0  0  0  0  0  0
    4.6027   -4.3497   -1.4290 F   0  0  0  0  0  0  0  0  0  0  0  0
    4.9739   -3.6518    0.7917 C   0  0  0  0  0  0  0  0  0  0  0  0
    5.8929   -4.6228    0.8213 O   0  0  0  0  0  0  0  0  0  0  0  0
    6.8169   -4.7572    1.8979 C   0  0  0  0  0  0  0  0  0  0  0  0
    7.9020   -3.6897    1.8605 C   0  0  0  0  0  0  0  0  0  0  0  0
    4.5979   -2.7655    1.8057 C   0  0  0  0  0  0  0  0  0  0  0  0
    5.2023   -2.7692    3.0108 F   0  0  0  0  0  0  0  0  0  0  0  0
    3.5783   -1.8422    1.6152 C   0  0  0  0  0  0  0  0  0  0  0  0
    3.3075   -0.9921    2.6068 F   0  0  0  0  0  0  0  0  0  0  0  0
    0.7206   -0.9597    1.0678 N   0  0  0  0  0  0  0  0  0  0  0  0
   -0.2989   -0.0915    1.0124 C   0  0  0  0  0  0  0  0  0  0  0  0
   -1.5316   -0.3813    1.6616 C   0  0  0  0  0  0  0  0  0  0  0  0
   -2.5241    0.5852    1.6037 C   0  0  0  0  0  0  0  0  0  0  0  0
   -2.3492    1.7881    0.9367 C   0  0  0  0  0  0  0  0  0  0  0  0
   -1.8371   -1.7124    2.1321 C   0  0  0  0  0  0  0  0  0  0  0  0
   -1.0717   -2.6578    2.7890 C   0  0  0  0  0  0  0  0  0  0  0  0
    0.1189   -2.4355    3.4721 N   0  0  0  0  0  0  0  0  0  0  0  0
    1.0712   -3.4597    3.3355 C   0  0  0  0  0  0  0  0  0  0  0  0
    1.7558   -4.0093    4.4155 C   0  0  0  0  0  0  0  0  0  0  0  0
    2.6370   -5.0546    4.2190 C   0  0  0  0  0  0  0  0  0  0  0  0
    2.8460   -5.5978    2.9581 C   0  0  0  0  0  0  0  0  0  0  0  0
    3.7542   -6.7717    2.7580 C   0  0  0  0  0  0  0  0  0  0  0  0
    2.1512   -5.0528    1.8852 C   0  0  0  0  0  0  0  0  0  0  0  0
    1.2822   -3.9972    2.0654 C   0  0  0  0  0  0  0  0  0  0  0  0
    0.1838   -1.4632    4.4740 C   0  0  0  0  0  0  0  0  0  0  0  0
   -0.9736   -0.8619    4.9722 C   0  0  0  0  0  0  0  0  0  0  0  0
   -0.9067    0.0624    5.9942 C   0  0  0  0  0  0  0  0  0  0  0  0
    0.3059    0.4089    6.5767 C   0  0  0  0  0  0  0  0  0  0  0  0
    0.3586    1.3813    7.7163 C   0  0  0  0  0  0  0  0  0  0  0  0
    1.4549   -0.1901    6.0796 C   0  0  0  0  0  0  0  0  0  0  0  0
    1.4042   -1.0946    5.0376 C   0  0  0  0  0  0  0  0  0  0  0  0
   -1.7183   -3.9218    2.8110 C   0  0  0  0  0  0  0  0  0  0  0  0
   -1.2212   -5.4880    3.3332 S   0  0  0  0  0  0  0  0  0  0  0  0
   -2.7857   -6.1529    2.8492 C   0  0  0  0  0  0  0  0  0  0  0  0
   -3.6135   -5.1740    2.2328 C   0  0  0  0  0  0  0  0  0  0  0  0
   -4.8441   -5.3982    1.6821 N   0  0  0  0  0  0  0  0  0  0  0  0
   -5.1764   -6.5904    1.0105 C   0  0  0  0  0  0  0  0  0  0  0  0
   -4.2307   -7.2579    0.2356 C   0  0  0  0  0  0  0  0  0  0  0  0
   -4.5675   -8.4358   -0.4000 C   0  0  0  0  0  0  0  0  0  0  0  0
   -5.8496   -8.9652   -0.3006 C   0  0  0  0  0  0  0  0  0  0  0  0
   -6.2075  -10.2599   -0.9617 C   0  0  0  0  0  0  0  0  0  0  0  0
   -6.7955   -8.2700    0.4434 C   0  0  0  0  0  0  0  0  0  0  0  0
   -6.4696   -7.0991    1.0986 C   0  0  0  0  0  0  0  0  0  0  0  0
   -5.7799   -4.3442    1.6807 C   0  0  0  0  0  0  0  0  0  0  0  0
   -5.9836   -3.5948    2.8354 C   0  0  0  0  0  0  0  0  0  0  0  0
   -6.8924   -2.5548    2.8339 C   0  0  0  0  0  0  0  0  0  0  0  0
   -7.6204   -2.2422    1.6933 C   0  0  0  0  0  0  0  0  0  0  0  0
   -8.5894   -1.1008    1.6799 C   0  0  0  0  0  0  0  0  0  0  0  0
   -7.4198   -3.0079    0.5490 C   0  0  0  0  0  0  0  0  0  0  0  0
   -6.5123   -4.0468    0.5353 C   0  0  0  0  0  0  0  0  0  0  0  0
   -2.9848   -3.9178    2.2421 C   0  0  0  0  0  0  0  0  0  0  0  0
   -3.4110   -2.3444    1.6520 S   0  0  0  0  0  0  0  0  0  0  0  0
   -3.2119   -7.4473    3.1213 C   0  0  0  0  0  0  0  0  0  0  0  0
   -2.5198   -8.5359    3.6141 C   0  0  0  0  0  0  0  0  0  0  0  0
   -1.0808   -8.6051    3.8609 C   0  0  0  0  0  0  0  0  0  0  0  0
   -0.2622   -7.7022    3.8162 O   0  0  0  0  0  0  0  0  0  0  0  0
   -0.7867  -10.0220    4.1588 C   0  0  0  0  0  0  0  0  0  0  0  0
    0.4139  -10.6051    4.4373 C   0  0  0  0  0  0  0  0  0  0  0  0
    0.4595  -11.9962    4.6847 C   0  0  0  0  0  0  0  0  0  0  0  0
    1.6716  -12.6514    4.9736 C   0  0  0  0  0  0  0  0  0  0  0  0
    1.6877  -13.9982    5.2063 C   0  0  0  0  0  0  0  0  0  0  0  0
    2.8449  -14.6201    5.4803 F   0  0  0  0  0  0  0  0  0  0  0  0
    0.4956  -14.7460    5.1608 C   0  0  0  0  0  0  0  0  0  0  0  0
    0.5407  -16.0664    5.3925 F   0  0  0  0  0  0  0  0  0  0  0  0
   -0.6967  -14.1376    4.8837 C   0  0  0  0  0  0  0  0  0  0  0  0
   -0.7475  -12.7510    4.6392 C   0  0  0  0  0  0  0  0  0  0  0  0
   -1.9782  -12.1139    4.3534 C   0  0  0  0  0  0  0  0  0  0  0  0
   -1.9981  -10.7662    4.1148 C   0  0  0  0  0  0  0  0  0  0  0  0
   -3.0921   -9.8443    3.8120 C   0  0  0  0  0  0  0  0  0  0  0  0
   -4.4222  -10.1909    3.7548 C   0  0  0  0  0  0  0  0  0  0  0  0
   -5.4961   -9.2937    3.6081 C   0  0  0  0  0  0  0  0  0  0  0  0
   -6.4318   -8.6298    3.5263 N   0  0  0  0  0  0  0  0  0  0  0  0
   -4.8973  -11.5117    3.8671 C   0  0  0  0  0  0  0  0  0  0  0  0
   -5.3517  -12.5652    3.9313 N   0  0  0  0  0  0  0  0  0  0  0  0
   -2.3480    8.2229   -4.5223 H   0  0  0  0  0  0  0  0  0  0  0  0
    3.6403    8.6669   -6.2939 H   0  0  0  0  0  0  0  0  0  0  0  0
    5.2645    9.8031   -7.8164 H   0  0  0  0  0  0  0  0  0  0  0  0
    1.6858   12.8537   -9.3774 H   0  0  0  0  0  0  0  0  0  0  0  0
    0.0798   11.7666   -7.9008 H   0  0  0  0  0  0  0  0  0  0  0  0
   -3.5893    6.9757   -0.8654 H   0  0  0  0  0  0  0  0  0  0  0  0
   -5.3063    6.4621    0.8167 H   0  0  0  0  0  0  0  0  0  0  0  0
   -8.2753    4.2962    0.1568 H   0  0  0  0  0  0  0  0  0  0  0  0
   -8.2185    5.9828    0.6701 H   0  0  0  0  0  0  0  0  0  0  0  0
   -7.1592    4.8033    1.4344 H   0  0  0  0  0  0  0  0  0  0  0  0
   -7.5847    4.3938   -2.1376 H   0  0  0  0  0  0  0  0  0  0  0  0
   -5.8644    4.8913   -3.8183 H   0  0  0  0  0  0  0  0  0  0  0  0
   -5.6295    7.8490   -4.0048 H   0  0  0  0  0  0  0  0  0  0  0  0
   -6.3493    8.5015   -6.2571 H   0  0  0  0  0  0  0  0  0  0  0  0
   -6.3381    7.7545   -8.7449 H   0  0  0  0  0  0  0  0  0  0  0  0
   -4.7879    7.2090   -9.4033 H   0  0  0  0  0  0  0  0  0  0  0  0
   -4.9665    8.8546   -8.7885 H   0  0  0  0  0  0  0  0  0  0  0  0
   -3.2472    6.1112   -7.9493 H   0  0  0  0  0  0  0  0  0  0  0  0
   -2.5401    5.4303   -5.7020 H   0  0  0  0  0  0  0  0  0  0  0  0
    3.6000    5.0975   -0.4557 H   0  0  0  0  0  0  0  0  0  0  0  0
    5.3003    5.3896   -2.1978 H   0  0  0  0  0  0  0  0  0  0  0  0
    5.9622    3.7989   -4.6943 H   0  0  0  0  0  0  0  0  0  0  0  0
    5.7284    5.5434   -4.6615 H   0  0  0  0  0  0  0  0  0  0  0  0
    4.7819    4.5493   -5.7775 H   0  0  0  0  0  0  0  0  0  0  0  0
    2.7585    3.4437   -5.0159 H   0  0  0  0  0  0  0  0  0  0  0  0
    1.0869    3.0832   -3.2592 H   0  0  0  0  0  0  0  0  0  0  0  0
    3.4447    2.5649   -0.0158 H   0  0  0  0  0  0  0  0  0  0  0  0
    4.0864    1.9505    2.2618 H   0  0  0  0  0  0  0  0  0  0  0  0
    1.9326    2.4632    5.2396 H   0  0  0  0  0  0  0  0  0  0  0  0
    3.4893    3.2459    4.9489 H   0  0  0  0  0  0  0  0  0  0  0  0
    3.2890    1.5305    4.5884 H   0  0  0  0  0  0  0  0  0  0  0  0
    0.5606    3.8237    3.7593 H   0  0  0  0  0  0  0  0  0  0  0  0
   -0.0844    4.4435    1.4856 H   0  0  0  0  0  0  0  0  0  0  0  0
    4.7445    1.8093   -6.3360 H   0  0  0  0  0  0  0  0  0  0  0  0
    4.8576    0.0385   -6.5191 H   0  0  0  0  0  0  0  0  0  0  0  0
    7.3430    0.2270   -6.6609 H   0  0  0  0  0  0  0  0  0  0  0  0
    7.2243    1.9797   -6.5026 H   0  0  0  0  0  0  0  0  0  0  0  0
    6.5565    1.1762   -7.9316 H   0  0  0  0  0  0  0  0  0  0  0  0
    7.2555   -5.7439    1.7291 H   0  0  0  0  0  0  0  0  0  0  0  0
    6.2970   -4.7627    2.8590 H   0  0  0  0  0  0  0  0  0  0  0  0
    8.3867   -3.6864    0.8872 H   0  0  0  0  0  0  0  0  0  0  0  0
    8.6438   -3.9053    2.6238 H   0  0  0  0  0  0  0  0  0  0  0  0
    7.4900   -2.7020    2.0489 H   0  0  0  0  0  0  0  0  0  0  0  0
   -3.4699    0.3879    2.0875 H   0  0  0  0  0  0  0  0  0  0  0  0
   -3.1506    2.5128    0.9494 H   0  0  0  0  0  0  0  0  0  0  0  0
    1.5764   -3.6388    5.4132 H   0  0  0  0  0  0  0  0  0  0  0  0
    3.1537   -5.4728    5.0708 H   0  0  0  0  0  0  0  0  0  0  0  0
    3.1613   -7.6866    2.7427 H   0  0  0  0  0  0  0  0  0  0  0  0
    4.2823   -6.7007    1.8089 H   0  0  0  0  0  0  0  0  0  0  0  0
    4.4783   -6.8508    3.5659 H   0  0  0  0  0  0  0  0  0  0  0  0
    2.2874   -5.4682    0.8967 H   0  0  0  0  0  0  0  0  0  0  0  0
    0.7470   -3.5797    1.2258 H   0  0  0  0  0  0  0  0  0  0  0  0
   -1.9405   -1.1294    4.5742 H   0  0  0  0  0  0  0  0  0  0  0  0
   -1.8202    0.5099    6.3600 H   0  0  0  0  0  0  0  0  0  0  0  0
   -0.0229    0.9166    8.6259 H   0  0  0  0  0  0  0  0  0  0  0  0
   -0.2577    2.2545    7.5077 H   0  0  0  0  0  0  0  0  0  0  0  0
    1.3791    1.7070    7.9033 H   0  0  0  0  0  0  0  0  0  0  0  0
    2.4131    0.0533    6.5154 H   0  0  0  0  0  0  0  0  0  0  0  0
    2.3199   -1.5215    4.6675 H   0  0  0  0  0  0  0  0  0  0  0  0
   -3.2328   -6.8550    0.1425 H   0  0  0  0  0  0  0  0  0  0  0  0
   -3.8219   -8.9482   -0.9908 H   0  0  0  0  0  0  0  0  0  0  0  0
   -7.1579  -10.1746   -1.4850 H   0  0  0  0  0  0  0  0  0  0  0  0
   -6.3121  -11.0437   -0.2110 H   0  0  0  0  0  0  0  0  0  0  0  0
   -5.4405  -10.5633   -1.6698 H   0  0  0  0  0  0  0  0  0  0  0  0
   -7.7974   -8.6617    0.5303 H   0  0  0  0  0  0  0  0  0  0  0  0
   -7.2077   -6.5836    1.6924 H   0  0  0  0  0  0  0  0  0  0  0  0
   -5.4334   -3.8383    3.7325 H   0  0  0  0  0  0  0  0  0  0  0  0
   -7.0422   -1.9825    3.7378 H   0  0  0  0  0  0  0  0  0  0  0  0
   -8.1726   -0.2659    1.1161 H   0  0  0  0  0  0  0  0  0  0  0  0
   -8.8044   -0.7594    2.6891 H   0  0  0  0  0  0  0  0  0  0  0  0
   -9.5216   -1.3932    1.2007 H   0  0  0  0  0  0  0  0  0  0  0  0
   -7.9793   -2.7805   -0.3465 H   0  0  0  0  0  0  0  0  0  0  0  0
   -6.3595   -4.6290   -0.3612 H   0  0  0  0  0  0  0  0  0  0  0  0
   -4.2529   -7.6274    2.8865 H   0  0  0  0  0  0  0  0  0  0  0  0
    1.3167  -10.0143    4.4703 H   0  0  0  0  0  0  0  0  0  0  0  0
    2.5936  -12.0925    5.0121 H   0  0  0  0  0  0  0  0  0  0  0  0
   -1.6010  -14.7251    4.8531 H   0  0  0  0  0  0  0  0  0  0  0  0
   -2.8737  -12.7133    4.3286 H   0  0  0  0  0  0  0  0  0  0  0  0
  1  2  2  0  0  0  0
  2  3  1  0  0  0  0
  3  4  2  0  0  0  0
  3  5  1  0  0  0  0
  5  6  2  0  0  0  0
  6  7  1  0  0  0  0
  7  8  2  0  0  0  0
  8  9  1  0  0  0  0
  9 10  1  0  0  0  0
  9 11  2  0  0  0  0
 11 12  1  0  0  0  0
 11 13  1  0  0  0  0
 13 14  2  0  0  0  0
 14 15  1  0  0  0  0
 15 16  2  0  0  0  0
 16 17  1  0  0  0  0
 17 18  2  0  0  0  0
 18 19  1  0  0  0  0
 19 20  3  0  0  0  0
 18 21  1  0  0  0  0
 21 22  3  0  0  0  0
  1 23  1  0  0  0  0
 23 24  2  0  0  0  0
 24 25  1  0  0  0  0
 25 26  1  0  0  0  0
 26 27  2  0  0  0  0
 27 28  1  0  0  0  0
 28 29  2  0  0  0  0
 29 30  1  0  0  0  0
 29 31  1  0  0  0  0
 31 32  2  0  0  0  0
 25 33  1  0  0  0  0
 33 34  2  0  0  0  0
 34 35  1  0  0  0  0
 35 36  2  0  0  0  0
 36 37  1  0  0  0  0
 36 38  1  0  0  0  0
 38 39  2  0  0  0  0
 24 40  1  0  0  0  0
 40 41  1  0  0  0  0
 41 42  1  0  0  0  0
 42 43  2  0  0  0  0
 43 44  1  0  0  0  0
 44 45  1  0  0  0  0
 45 46  2  0  0  0  0
 46 47  1  0  0  0  0
 47 48  2  0  0  0  0
 48 49  1  0  0  0  0
 48 50  1  0  0  0  0
 50 51  2  0  0  0  0
 44 52  1  0  0  0  0
 52 53  2  0  0  0  0
 53 54  1  0  0  0  0
 54 55  2  0  0  0  0
 55 56  1  0  0  0  0
 55 57  1  0  0  0  0
 57 58  2  0  0  0  0
 43 59  1  0  0  0  0
 59 60  1  0  0  0  0
 42 61  1  0  0  0  0
 61 62  1  0  0  0  0
 62 63  2  0  0  0  0
 63 64  1  0  0  0  0
 64 65  1  0  0  0  0
 65 66  2  0  0  0  0
 66 67  1  0  0  0  0
 67 68  2  0  0  0  0
 68 69  1  0  0  0  0
 69 70  1  0  0  0  0
 70 71  1  0  0  0  0
 68 72  1  0  0  0  0
 72 73  2  0  0  0  0
 73 74  1  0  0  0  0
 72 75  1  0  0  0  0
 67 76  1  0  0  0  0
 66 77  1  0  0  0  0
 64 78  2  0  0  0  0
 78 79  1  0  0  0  0
 79 80  2  0  0  0  0
 80 81  1  0  0  0  0
 80 82  1  0  0  0  0
 82 83  1  0  0  0  0
 82 84  2  0  0  0  0
 84 85  1  0  0  0  0
 85 86  1  0  0  0  0
 86 87  1  0  0  0  0
 84 88  1  0  0  0  0
 88 89  1  0  0  0  0
 88 90  2  0  0  0  0
 90 91  1  0  0  0  0
 78 92  1  0  0  0  0
 92 93  2  0  0  0  0
 93 94  1  0  0  0  0
 94 95  2  0  0  0  0
 95 96  1  0  0  0  0
 94 97  1  0  0  0  0
 97 98  2  0  0  0  0
 98 99  1  0  0  0  0
 99100  1  0  0  0  0
100101  2  0  0  0  0
101102  1  0  0  0  0
102103  2  0  0  0  0
103104  1  0  0  0  0
103105  1  0  0  0  0
105106  2  0  0  0  0
 99107  1  0  0  0  0
107108  2  0  0  0  0
108109  1  0  0  0  0
109110  2  0  0  0  0
110111  1  0  0  0  0
110112  1  0  0  0  0
112113  2  0  0  0  0
 98114  1  0  0  0  0
114115  1  0  0  0  0
115116  1  0  0  0  0
116117  2  0  0  0  0
117118  1  0  0  0  0
118119  1  0  0  0  0
119120  2  0  0  0  0
120121  1  0  0  0  0
121122  2  0  0  0  0
122123  1  0  0  0  0
122124  1  0  0  0  0
124125  2  0  0  0  0
118126  1  0  0  0  0
126127  2  0  0  0  0
127128  1  0  0  0  0
128129  2  0  0  0  0
129130  1  0  0  0  0
129131  1  0  0  0  0
131132  2  0  0  0  0
117133  1  0  0  0  0
133134  1  0  0  0  0
116135  1  0  0  0  0
135136  2  0  0  0  0
136137  1  0  0  0  0
137138  2  0  0  0  0
137139  1  0  0  0  0
139140  2  0  0  0  0
140141  1  0  0  0  0
141142  2  0  0  0  0
142143  1  0  0  0  0
143144  1  0  0  0  0
143145  2  0  0  0  0
145146  1  0  0  0  0
145147  1  0  0  0  0
147148  2  0  0  0  0
148149  1  0  0  0  0
149150  2  0  0  0  0
150151  1  0  0  0  0
151152  2  0  0  0  0
152153  1  0  0  0  0
153154  3  0  0  0  0
152155  1  0  0  0  0
155156  3  0  0  0  0
 17  2  1  0  0  0  0
 60 23  1  0  0  0  0
 96 61  2  0  0  0  0
134 97  1  0  0  0  0
151136  1  0  0  0  0
 16  5  1  0  0  0  0
 32 26  1  0  0  0  0
 39 33  1  0  0  0  0
 59 40  2  0  0  0  0
 93 62  1  0  0  0  0
106100  1  0  0  0  0
113107  1  0  0  0  0
133114  2  0  0  0  0
150139  1  0  0  0  0
 14  7  1  0  0  0  0
 51 45  1  0  0  0  0
 58 52  1  0  0  0  0
 73 65  1  0  0  0  0
 90 79  1  0  0  0  0
125119  1  0  0  0  0
132126  1  0  0  0  0
148141  1  0  0  0  0
  1157  1  0  0  0  0
  6158  1  0  0  0  0
  8159  1  0  0  0  0
 13160  1  0  0  0  0
 15161  1  0  0  0  0
 27162  1  0  0  0  0
 28163  1  0  0  0  0
 30164  1  0  0  0  0
 30165  1  0  0  0  0
 30166  1  0  0  0  0
 31167  1  0  0  0  0
 32168  1  0  0  0  0
 34169  1  0  0  0  0
 35170  1  0  0  0  0
 37171  1  0  0  0  0
 37172  1  0  0  0  0
 37173  1  0  0  0  0
 38174  1  0  0  0  0
 39175  1  0  0  0  0
 46176  1  0  0  0  0
 47177  1  0  0  0  0
 49178  1  0  0  0  0
 49179  1  0  0  0  0
 49180  1  0  0  0  0
 50181  1  0  0  0  0
 51182  1  0  0  0  0
 53183  1  0  0  0  0
 54184  1  0  0  0  0
 56185  1  0  0  0  0
 56186  1  0  0  0  0
 56187  1  0  0  0  0
 57188  1  0  0  0  0
 58189  1  0  0  0  0
 70190  1  0  0  0  0
 70191  1  0  0  0  0
 71192  1  0  0  0  0
 71193  1  0  0  0  0
 71194  1  0  0  0  0
 86195  1  0  0  0  0
 86196  1  0  0  0  0
 87197  1  0  0  0  0
 87198  1  0  0  0  0
 87199  1  0  0  0  0
 95200  1  0  0  0  0
 96201  1  0  0  0  0
101202  1  0  0  0  0
102203  1  0  0  0  0
104204  1  0  0  0  0
104205  1  0  0  0  0
104206  1  0  0  0  0
105207  1  0  0  0  0
106208  1  0  0  0  0
108209  1  0  0  0  0
109210  1  0  0  0  0
111211  1  0  0  0  0
111212  1  0  0  0  0
111213  1  0  0  0  0
112214  1  0  0  0  0
113215  1  0  0  0  0
120216  1  0  0  0  0
121217  1  0  0  0  0
123218  1  0  0  0  0
123219  1  0  0  0  0
123220  1  0  0  0  0
124221  1  0  0  0  0
125222  1  0  0  0  0
127223  1  0  0  0  0
128224  1  0  0  0  0
130225  1  0  0  0  0
130226  1  0  0  0  0
130227  1  0  0  0  0
131228  1  0  0  0  0
132229  1  0  0  0  0
135230  1  0  0  0  0
140231  1  0  0  0  0
142232  1  0  0  0  0
147233  1  0  0  0  0
149234  1  0  0  0  0
M  END
