
  xtb     02102218383D
 energy: -240.655834854308 gnorm: 0.000356490242 xtb: 6.4.1 (unknown)
125136  0     0  0            999 V2000
    2.0890    6.6911    0.9140 C   0  0  0  0  0  0  0  0  0  0  0  0
    2.3348    6.9626   -0.3902 C   0  0  0  0  0  0  0  0  0  0  0  0
    2.5248    5.9214   -1.4407 C   0  0  0  0  0  0  0  0  0  0  0  0
    2.4103    4.7220   -1.3333 O   0  0  0  0  0  0  0  0  0  0  0  0
    2.9899    6.6505   -2.6360 C   0  0  0  0  0  0  0  0  0  0  0  0
    3.3166    6.1418   -3.8602 C   0  0  0  0  0  0  0  0  0  0  0  0
    3.7414    7.0229   -4.8785 C   0  0  0  0  0  0  0  0  0  0  0  0
    4.0785    6.5521   -6.1626 C   0  0  0  0  0  0  0  0  0  0  0  0
    4.4893    7.4264   -7.1292 C   0  0  0  0  0  0  0  0  0  0  0  0
    4.8098    6.9780   -8.3501 F   0  0  0  0  0  0  0  0  0  0  0  0
    4.5808    8.8061   -6.8546 C   0  0  0  0  0  0  0  0  0  0  0  0
    4.9862    9.6389   -7.8218 F   0  0  0  0  0  0  0  0  0  0  0  0
    4.2605    9.2927   -5.6184 C   0  0  0  0  0  0  0  0  0  0  0  0
    3.8316    8.4178   -4.5994 C   0  0  0  0  0  0  0  0  0  0  0  0
    3.4922    8.9133   -3.3200 C   0  0  0  0  0  0  0  0  0  0  0  0
    3.0693    8.0416   -2.3498 C   0  0  0  0  0  0  0  0  0  0  0  0
    2.6390    8.2595   -0.9726 C   0  0  0  0  0  0  0  0  0  0  0  0
    2.4648    9.4766   -0.3725 C   0  0  0  0  0  0  0  0  0  0  0  0
    1.9584    9.6698    0.9313 C   0  0  0  0  0  0  0  0  0  0  0  0
    1.5331    9.9096    1.9700 N   0  0  0  0  0  0  0  0  0  0  0  0
    2.7419   10.7113   -0.9976 C   0  0  0  0  0  0  0  0  0  0  0  0
    2.9529   11.7427   -1.4544 N   0  0  0  0  0  0  0  0  0  0  0  0
    1.6816    5.3967    1.4149 C   0  0  0  0  0  0  0  0  0  0  0  0
    0.6702    4.6538    0.7700 C   0  0  0  0  0  0  0  0  0  0  0  0
    0.0150    5.2861   -0.2221 O   0  0  0  0  0  0  0  0  0  0  0  0
   -0.8864    4.5846   -1.0563 C   0  0  0  0  0  0  0  0  0  0  0  0
    0.4115    3.3808    1.2735 C   0  0  0  0  0  0  0  0  0  0  0  0
   -0.4872    2.5785    0.6569 F   0  0  0  0  0  0  0  0  0  0  0  0
    1.0806    2.8506    2.3718 C   0  0  0  0  0  0  0  0  0  0  0  0
    2.0265    3.6253    3.0696 C   0  0  0  0  0  0  0  0  0  0  0  0
    2.5528    3.0412    4.1707 O   0  0  0  0  0  0  0  0  0  0  0  0
    3.6282    3.6493    4.8562 C   0  0  0  0  0  0  0  0  0  0  0  0
    2.2895    4.8936    2.5700 C   0  0  0  0  0  0  0  0  0  0  0  0
    3.2170    5.6945    3.1491 F   0  0  0  0  0  0  0  0  0  0  0  0
    0.8344    1.4492    2.7431 C   0  0  0  0  0  0  0  0  0  0  0  0
   -0.4574    0.9704    2.9950 C   0  0  0  0  0  0  0  0  0  0  0  0
   -1.6638    1.7144    3.1474 C   0  0  0  0  0  0  0  0  0  0  0  0
   -2.7565    0.9448    3.3452 C   0  0  0  0  0  0  0  0  0  0  0  0
   -4.1609    1.3798    3.5811 C   0  0  0  0  0  0  0  0  0  0  0  0
   -4.5966    1.0870    5.0181 C   0  0  0  0  0  0  0  0  0  0  0  0
   -2.3732   -0.7609    3.3587 S   0  0  0  0  0  0  0  0  0  0  0  0
   -0.6856   -0.4192    3.1118 C   0  0  0  0  0  0  0  0  0  0  0  0
    0.3296   -1.3620    2.9814 C   0  0  0  0  0  0  0  0  0  0  0  0
    1.6367   -0.8739    2.8504 C   0  0  0  0  0  0  0  0  0  0  0  0
    1.8641    0.5162    2.7412 C   0  0  0  0  0  0  0  0  0  0  0  0
    3.5533    0.8549    2.5165 S   0  0  0  0  0  0  0  0  0  0  0  0
    3.9500   -0.8435    2.6234 C   0  0  0  0  0  0  0  0  0  0  0  0
    5.3753   -1.2703    2.5594 C   0  0  0  0  0  0  0  0  0  0  0  0
    6.1480   -0.8099    3.7970 C   0  0  0  0  0  0  0  0  0  0  0  0
    2.8538   -1.6130    2.7994 C   0  0  0  0  0  0  0  0  0  0  0  0
    0.0066   -2.7778    2.7812 C   0  0  0  0  0  0  0  0  0  0  0  0
   -0.8110   -3.5323    3.6069 C   0  0  0  0  0  0  0  0  0  0  0  0
   -1.2036   -3.1010    4.8474 O   0  0  0  0  0  0  0  0  0  0  0  0
   -0.2488   -2.4871    5.7027 C   0  0  0  0  0  0  0  0  0  0  0  0
    0.9763   -3.3595    5.9437 C   0  0  0  0  0  0  0  0  0  0  0  0
   -1.3220   -4.8016    3.1804 C   0  0  0  0  0  0  0  0  0  0  0  0
   -2.1988   -5.5593    3.8531 O   0  0  0  0  0  0  0  0  0  0  0  0
   -2.7006   -5.2774    5.1515 C   0  0  0  0  0  0  0  0  0  0  0  0
   -3.6841   -6.3912    5.4780 C   0  0  0  0  0  0  0  0  0  0  0  0
   -0.9903   -5.3276    1.9205 C   0  0  0  0  0  0  0  0  0  0  0  0
   -0.0417   -4.6300    1.1372 C   0  0  0  0  0  0  0  0  0  0  0  0
    0.4462   -3.3539    1.5647 C   0  0  0  0  0  0  0  0  0  0  0  0
    1.3032   -2.8269    0.6933 N   0  0  0  0  0  0  0  0  0  0  0  0
    1.5044   -3.8609   -0.5200 S   0  0  0  0  0  0  0  0  0  0  0  0
    0.5149   -5.0225   -0.0042 N   0  0  0  0  0  0  0  0  0  0  0  0
   -1.5407   -6.5753    1.4888 C   0  0  0  0  0  0  0  0  0  0  0  0
   -1.8256   -6.8816    0.1936 C   0  0  0  0  0  0  0  0  0  0  0  0
   -1.9684   -5.8798   -0.8945 C   0  0  0  0  0  0  0  0  0  0  0  0
   -2.0144   -4.6735   -0.7976 O   0  0  0  0  0  0  0  0  0  0  0  0
   -2.2030   -6.6641   -2.1241 C   0  0  0  0  0  0  0  0  0  0  0  0
   -2.3215   -6.2148   -3.4068 C   0  0  0  0  0  0  0  0  0  0  0  0
   -2.5424   -7.1481   -4.4436 C   0  0  0  0  0  0  0  0  0  0  0  0
   -2.6570   -6.7404   -5.7868 C   0  0  0  0  0  0  0  0  0  0  0  0
   -2.8717   -7.6646   -6.7702 C   0  0  0  0  0  0  0  0  0  0  0  0
   -2.9802   -7.2747   -8.0488 F   0  0  0  0  0  0  0  0  0  0  0  0
   -2.9810   -9.0333   -6.4542 C   0  0  0  0  0  0  0  0  0  0  0  0
   -3.1912   -9.9174   -7.4399 F   0  0  0  0  0  0  0  0  0  0  0  0
   -2.8742   -9.4595   -5.1603 C   0  0  0  0  0  0  0  0  0  0  0  0
   -2.6516   -8.5320   -4.1222 C   0  0  0  0  0  0  0  0  0  0  0  0
   -2.5364   -8.9647   -2.7812 C   0  0  0  0  0  0  0  0  0  0  0  0
   -2.3105   -8.0426   -1.7924 C   0  0  0  0  0  0  0  0  0  0  0  0
   -2.1337   -8.1906   -0.3490 C   0  0  0  0  0  0  0  0  0  0  0  0
   -2.2142   -9.3713    0.3426 C   0  0  0  0  0  0  0  0  0  0  0  0
   -2.0512   -9.5152    1.7363 C   0  0  0  0  0  0  0  0  0  0  0  0
   -1.9386   -9.7227    2.8604 N   0  0  0  0  0  0  0  0  0  0  0  0
   -2.4941  -10.6187   -0.2533 C   0  0  0  0  0  0  0  0  0  0  0  0
   -2.7185  -11.6621   -0.6769 N   0  0  0  0  0  0  0  0  0  0  0  0
    2.2572    7.4556    1.6625 H   0  0  0  0  0  0  0  0  0  0  0  0
    3.2473    5.0812   -4.0485 H   0  0  0  0  0  0  0  0  0  0  0  0
    4.0140    5.4991   -6.3876 H   0  0  0  0  0  0  0  0  0  0  0  0
    4.3348   10.3516   -5.4263 H   0  0  0  0  0  0  0  0  0  0  0  0
    3.5782    9.9725   -3.1388 H   0  0  0  0  0  0  0  0  0  0  0  0
   -1.7679    4.2456   -0.5073 H   0  0  0  0  0  0  0  0  0  0  0  0
   -0.4008    3.7330   -1.5361 H   0  0  0  0  0  0  0  0  0  0  0  0
   -1.1888    5.3059   -1.8143 H   0  0  0  0  0  0  0  0  0  0  0  0
    3.3329    4.5949    5.3167 H   0  0  0  0  0  0  0  0  0  0  0  0
    4.4822    3.8144    4.1956 H   0  0  0  0  0  0  0  0  0  0  0  0
    3.9048    2.9393    5.6338 H   0  0  0  0  0  0  0  0  0  0  0  0
   -1.6960    2.7892    3.1172 H   0  0  0  0  0  0  0  0  0  0  0  0
   -4.2374    2.4504    3.3812 H   0  0  0  0  0  0  0  0  0  0  0  0
   -4.8257    0.8533    2.8917 H   0  0  0  0  0  0  0  0  0  0  0  0
   -3.9575    1.6151    5.7222 H   0  0  0  0  0  0  0  0  0  0  0  0
   -5.6238    1.4068    5.1728 H   0  0  0  0  0  0  0  0  0  0  0  0
   -4.5287    0.0207    5.2213 H   0  0  0  0  0  0  0  0  0  0  0  0
    5.8428   -0.8451    1.6680 H   0  0  0  0  0  0  0  0  0  0  0  0
    5.4144   -2.3585    2.4809 H   0  0  0  0  0  0  0  0  0  0  0  0
    7.1846   -1.1309    3.7354 H   0  0  0  0  0  0  0  0  0  0  0  0
    6.1228    0.2747    3.8735 H   0  0  0  0  0  0  0  0  0  0  0  0
    5.7063   -1.2306    4.6976 H   0  0  0  0  0  0  0  0  0  0  0  0
    2.8958   -2.6836    2.8891 H   0  0  0  0  0  0  0  0  0  0  0  0
   -0.8033   -2.3385    6.6328 H   0  0  0  0  0  0  0  0  0  0  0  0
    0.0587   -1.5087    5.3191 H   0  0  0  0  0  0  0  0  0  0  0  0
    0.6820   -4.3380    6.3172 H   0  0  0  0  0  0  0  0  0  0  0  0
    1.5375   -3.4921    5.0214 H   0  0  0  0  0  0  0  0  0  0  0  0
    1.6204   -2.8825    6.6766 H   0  0  0  0  0  0  0  0  0  0  0  0
   -3.1972   -4.3026    5.1624 H   0  0  0  0  0  0  0  0  0  0  0  0
   -1.8830   -5.2673    5.8803 H   0  0  0  0  0  0  0  0  0  0  0  0
   -4.5036   -6.3863    4.7649 H   0  0  0  0  0  0  0  0  0  0  0  0
   -4.0816   -6.2490    6.4785 H   0  0  0  0  0  0  0  0  0  0  0  0
   -3.1867   -7.3559    5.4240 H   0  0  0  0  0  0  0  0  0  0  0  0
   -1.7319   -7.2980    2.2709 H   0  0  0  0  0  0  0  0  0  0  0  0
   -2.2406   -5.1613   -3.6274 H   0  0  0  0  0  0  0  0  0  0  0  0
   -2.5760   -5.6959   -6.0441 H   0  0  0  0  0  0  0  0  0  0  0  0
   -2.9603  -10.5113   -4.9363 H   0  0  0  0  0  0  0  0  0  0  0  0
   -2.6278  -10.0182   -2.5723 H   0  0  0  0  0  0  0  0  0  0  0  0
  1  2  2  0  0  0  0
  2  3  1  0  0  0  0
  3  4  2  0  0  0  0
  3  5  1  0  0  0  0
  5  6  2  0  0  0  0
  6  7  1  0  0  0  0
  7  8  2  0  0  0  0
  8  9  1  0  0  0  0
  9 10  1  0  0  0  0
  9 11  2  0  0  0  0
 11 12  1  0  0  0  0
 11 13  1  0  0  0  0
 13 14  2  0  0  0  0
 14 15  1  0  0  0  0
 15 16  2  0  0  0  0
 16 17  1  0  0  0  0
 17 18  2  0  0  0  0
 18 19  1  0  0  0  0
 19 20  3  0  0  0  0
 18 21  1  0  0  0  0
 21 22  3  0  0  0  0
  1 23  1  0  0  0  0
 23 24  2  0  0  0  0
 24 25  1  0  0  0  0
 25 26  1  0  0  0  0
 24 27  1  0  0  0  0
 27 28  1  0  0  0  0
 27 29  2  0  0  0  0
 29 30  1  0  0  0  0
 30 31  1  0  0  0  0
 31 32  1  0  0  0  0
 30 33  2  0  0  0  0
 33 34  1  0  0  0  0
 29 35  1  0  0  0  0
 35 36  2  0  0  0  0
 36 37  1  0  0  0  0
 37 38  2  0  0  0  0
 38 39  1  0  0  0  0
 39 40  1  0  0  0  0
 38 41  1  0  0  0  0
 41 42  1  0  0  0  0
 42 43  2  0  0  0  0
 43 44  1  0  0  0  0
 44 45  2  0  0  0  0
 45 46  1  0  0  0  0
 46 47  1  0  0  0  0
 47 48  1  0  0  0  0
 48 49  1  0  0  0  0
 47 50  2  0  0  0  0
 43 51  1  0  0  0  0
 51 52  2  0  0  0  0
 52 53  1  0  0  0  0
 53 54  1  0  0  0  0
 54 55  1  0  0  0  0
 52 56  1  0  0  0  0
 56 57  1  0  0  0  0
 57 58  1  0  0  0  0
 58 59  1  0  0  0  0
 56 60  2  0  0  0  0
 60 61  1  0  0  0  0
 61 62  1  0  0  0  0
 62 63  2  0  0  0  0
 63 64  1  0  0  0  0
 64 65  1  0  0  0  0
 60 66  1  0  0  0  0
 66 67  2  0  0  0  0
 67 68  1  0  0  0  0
 68 69  2  0  0  0  0
 68 70  1  0  0  0  0
 70 71  2  0  0  0  0
 71 72  1  0  0  0  0
 72 73  2  0  0  0  0
 73 74  1  0  0  0  0
 74 75  1  0  0  0  0
 74 76  2  0  0  0  0
 76 77  1  0  0  0  0
 76 78  1  0  0  0  0
 78 79  2  0  0  0  0
 79 80  1  0  0  0  0
 80 81  2  0  0  0  0
 81 82  1  0  0  0  0
 82 83  2  0  0  0  0
 83 84  1  0  0  0  0
 84 85  3  0  0  0  0
 83 86  1  0  0  0  0
 86 87  3  0  0  0  0
 17  2  1  0  0  0  0
 33 23  1  0  0  0  0
 45 35  1  0  0  0  0
 62 51  1  0  0  0  0
 82 67  1  0  0  0  0
 16  5  1  0  0  0  0
 42 36  1  0  0  0  0
 50 44  1  0  0  0  0
 65 61  2  0  0  0  0
 81 70  1  0  0  0  0
 14  7  1  0  0  0  0
 79 72  1  0  0  0  0
  1 88  1  0  0  0  0
  6 89  1  0  0  0  0
  8 90  1  0  0  0  0
 13 91  1  0  0  0  0
 15 92  1  0  0  0  0
 26 93  1  0  0  0  0
 26 94  1  0  0  0  0
 26 95  1  0  0  0  0
 32 96  1  0  0  0  0
 32 97  1  0  0  0  0
 32 98  1  0  0  0  0
 37 99  1  0  0  0  0
 39100  1  0  0  0  0
 39101  1  0  0  0  0
 40102  1  0  0  0  0
 40103  1  0  0  0  0
 40104  1  0  0  0  0
 48105  1  0  0  0  0
 48106  1  0  0  0  0
 49107  1  0  0  0  0
 49108  1  0  0  0  0
 49109  1  0  0  0  0
 50110  1  0  0  0  0
 54111  1  0  0  0  0
 54112  1  0  0  0  0
 55113  1  0  0  0  0
 55114  1  0  0  0  0
 55115  1  0  0  0  0
 58116  1  0  0  0  0
 58117  1  0  0  0  0
 59118  1  0  0  0  0
 59119  1  0  0  0  0
 59120  1  0  0  0  0
 66121  1  0  0  0  0
 71122  1  0  0  0  0
 73123  1  0  0  0  0
 78124  1  0  0  0  0
 80125  1  0  0  0  0
M  END
