166

C         -0.40860      -13.28900       -2.46090
C          0.51260      -14.25390       -2.15960
C          1.73110      -14.15220       -1.31910
O          2.04170      -13.29610       -0.51830
C          2.52570      -15.35850       -1.62270
C          3.77630      -15.67820       -1.17920
C          4.36550      -16.88820       -1.60710
C          5.65540      -17.26590       -1.18630
C          6.20290      -18.44100       -1.61870
F          7.43070      -18.79950       -1.21840
C          5.48640      -19.28780       -2.48810
F          6.04870      -20.43380       -2.89520
C          4.23320      -18.94820       -2.91400
C          3.63970      -17.74320       -2.48650
C          2.34330      -17.38580       -2.92230
C          1.79070      -16.20740       -2.49330
C          0.50160      -15.57900       -2.76580
C         -0.53770      -16.17890       -3.42590
C         -1.82610      -15.63510       -3.62050
N         -2.90460      -15.28740       -3.80690
C         -0.47320      -17.47760       -3.97520
N         -0.48400      -18.52420       -4.44640
C         -0.50520      -11.93870       -2.05880
C          0.22680      -11.18880       -1.17070
C         -0.14890       -9.83470       -1.13150
C          0.42970       -8.81540       -0.34670
C          1.60040       -9.07860        0.46910
S          1.64790       -8.65090        2.15310
C          3.25050       -9.27210        2.34470
C          3.96160       -9.17280        3.64840
C          4.54770       -7.77230        3.84280
C          3.71490       -9.76160        1.15990
Cl         5.27130      -10.44870        0.95280
C          2.78190       -9.65980        0.09460
Cl         3.16080      -10.13930       -1.50690
C         -0.15380       -7.56290       -0.42640
C         -1.26670       -7.27650       -1.26000
C         -1.84910       -8.29370       -2.04470
C         -3.01790       -8.03510       -2.85980
C         -4.12710       -7.30470       -2.53190
C         -5.09220       -7.27000       -3.55640
C         -4.72710       -7.96630       -4.66830
C         -5.46240       -8.10970       -5.95550
C         -4.89810       -7.16860       -7.02270
S         -3.16820       -8.69200       -4.46470
C         -1.25190       -9.54860       -1.97890
S         -1.75490      -10.96920       -2.84130
C         -1.59920       -5.90200       -1.22830
C         -0.79720       -5.16040       -0.40610
S          0.41640       -6.13670        0.39080
C         -0.83680       -3.75060       -0.18620
C         -1.73710       -2.85000       -0.68070
C         -1.46230       -1.50910       -0.31350
C         -2.16660       -0.34940       -0.66830
C         -3.42460       -0.39840       -1.48110
C         -4.63200       -0.69180       -0.58830
C         -1.65680        0.84440       -0.19580
C         -0.49000        0.93890        0.60740
C          0.20210       -0.22110        0.97970
C          1.45790       -0.17210        1.79580
C          2.67240        0.08750        0.90190
C         -0.30190       -1.41410        0.49870
S          0.40020       -2.98470        0.78540
C         -0.16920        2.28540        0.90990
C         -1.03610        3.19070        0.37170
S         -2.32520        2.42260       -0.53130
C         -0.95800        4.61140        0.43780
C         -1.80750        5.52160       -0.12090
C         -1.40340        6.86370        0.06720
C         -2.03920        8.02860       -0.40150
C         -3.20190        7.95800       -1.26890
S         -4.65040        8.85470       -0.92000
C         -5.44640        8.27200       -2.34090
C         -6.85420        8.64730       -2.64660
C         -7.83720        7.70390       -1.94900
C         -4.62770        7.42860       -3.03120
Cl        -5.06960        6.65430       -4.49720
C         -3.35270        7.25110       -2.43060
Cl        -2.11580        6.30930       -3.15740
C         -1.48290        9.24080       -0.02000
C         -0.32060        9.33320        0.79010
C          0.35320        8.16670        1.21930
C          1.59640        8.21810        1.95770
C          2.69690        7.42210        1.79120
C          3.76170        7.74940        2.65170
C          3.48390        8.78000        3.49640
C          4.36210        9.41350        4.51820
C          4.66720       10.87100        4.16780
S          1.88080        9.37850        3.22860
C         -0.21470        6.95910        0.83460
S          0.38590        5.37870        1.25750
C          0.08330       10.66760        0.96320
C         -0.69790       11.58460        0.30480
S         -2.03830       10.80960       -0.52010
C         -0.54880       12.99020        0.27250
C          0.54640       13.72620        0.61560
C          0.37510       15.16980        0.93690
O         -0.58340       15.86130        0.68460
C          1.59540       15.54780        1.68190
C          1.88850       16.72200        2.31280
C          3.11230       16.84050        3.01000
C          3.46450       18.03070        3.67570
C          4.64880       18.11610        4.35270
F          4.98180       19.24870        4.98650
C          5.53080       17.01780        4.39480
F          6.68350       17.12890        5.06860
C          5.21790       15.85020        3.75770
C          4.00640       15.73130        3.04760
C          3.68160       14.53190        2.37420
C          2.49750       14.44620        1.69270
C          1.92360       13.37050        0.88800
C          2.64780       12.35940        0.31110
C          2.14190       11.48950       -0.67700
N          1.80060       10.78460       -1.51560
C          3.99830       12.09110        0.60540
N          5.08270       11.79870        0.84520
H         -1.17310      -13.56830       -3.17690
H          4.30890      -15.01410       -0.51550
H          6.21650      -16.62830       -0.52120
H          3.69800      -19.60840       -3.57860
H          1.82410      -18.05250       -3.59130
H          1.00150      -11.61050       -0.55910
H          3.26480       -9.38950        4.46010
H          4.76310       -9.91320        3.66740
H          3.75630       -7.02680        3.82290
H          5.06190       -7.71230        4.79810
H          5.25690       -7.54730        3.05030
H         -4.26650       -6.84820       -1.56800
H         -6.03110       -6.75230       -3.46800
H         -6.51720       -7.88230       -5.78680
H         -5.38460       -9.14000       -6.30960
H         -5.44510       -7.28570       -7.95460
H         -3.84910       -7.39120       -7.20440
H         -4.98100       -6.13370       -6.69780
H         -2.37910       -5.47290       -1.82860
H         -2.57030       -3.13850       -1.29460
H         -3.34190       -1.16630       -2.25190
H         -3.56850        0.56570       -1.97390
H         -4.50830       -1.64540       -0.07980
H         -5.54120       -0.72780       -1.18310
H         -4.74060        0.08650        0.16340
H          1.38250        0.61290        2.54990
H          1.58760       -1.12820        2.30790
H          2.77400       -0.70720        0.16660
H          3.57930        0.12360        1.50010
H          2.56380        1.03250        0.37470
H          0.68210        2.58750        1.49370
H         -2.69960        5.23180       -0.64530
H         -7.00340        8.59580       -3.72680
H         -7.03540        9.67100       -2.31560
H         -7.67860        6.68130       -2.28190
H         -7.69890        7.74490       -0.87130
H         -8.85880        7.99170       -2.18160
H          2.75970        6.65500        1.04110
H          4.70680        7.23680        2.64200
H          5.29210        8.84480        4.57650
H          3.87580        9.37460        5.49730
H          3.74780       11.45420        4.15190
H          5.13650       10.93440        3.18810
H          5.33820       11.30130        4.90700
H          0.90850       10.95650        1.58560
H         -1.43040       13.56570        0.00950
H          1.19620       17.54950        2.28270
H          2.80020       18.88030        3.65420
H          5.90560       15.01980        3.79530
H          4.37370       13.70650        2.42330
