166

C         -7.25930       -5.41880       -8.22730
C         -6.81390       -6.44300       -9.00160
C         -7.57840       -6.85840      -10.20920
O         -8.72760       -6.59250      -10.47170
C         -6.60480       -7.60210      -11.03840
C         -6.75660       -8.09920      -12.30070
C         -5.66870       -8.75970      -12.91480
C         -5.77640       -9.29530      -14.21310
C         -4.70910       -9.92610      -14.78830
F         -4.81350      -10.43540      -16.02350
C         -3.48940      -10.04790      -14.09290
F         -2.45960      -10.67050      -14.68190
C         -3.35380       -9.53870      -12.83210
C         -4.43640       -8.88550      -12.20930
C         -4.31030       -8.36890      -10.89980
C         -5.38190       -7.74380      -10.32080
C         -5.56350       -7.17770       -8.98910
C         -4.83470       -7.50870       -7.87790
C         -5.26890       -7.22330       -6.56450
N         -5.63220       -7.07210       -5.48640
C         -3.61730       -8.21490       -7.91950
N         -2.59910       -8.74530       -7.91050
C         -6.51070       -4.63030       -7.31420
C         -7.01460       -3.84520       -6.30950
C         -6.02100       -3.20050       -5.54040
C         -6.19060       -2.39240       -4.39840
C         -7.50650       -2.10260       -3.85510
S         -8.61910       -3.37660       -3.44800
C         -9.80940       -2.26070       -2.87350
C        -11.09310       -2.73340       -2.28620
C        -10.93370       -3.02590       -0.79210
C         -9.35550       -0.98060       -2.99210
Cl       -10.25970        0.40150       -2.52730
C         -8.05290       -0.88580       -3.55000
Cl        -7.30540        0.62050       -3.88230
C         -5.03600       -1.91350       -3.79590
C         -3.73000       -2.21160       -4.26510
C         -3.55530       -3.03430       -5.39610
C         -2.25120       -3.50140       -5.81360
C         -1.21500       -3.92110       -5.02450
C         -0.13530       -4.44880       -5.75790
C         -0.33180       -4.43110       -7.10490
C          0.55630       -4.94100       -8.18560
C         -0.12470       -6.05440       -8.98380
S         -1.87400       -3.74580       -7.49600
C         -4.71670       -3.47070       -6.02330
S         -4.76510       -4.50200       -7.41910
C         -2.73490       -1.61920       -3.45410
C         -3.23460       -0.94240       -2.37860
S         -4.98350       -0.97330       -2.33180
C         -2.50150       -0.30150       -1.33900
C         -2.99790        0.29420       -0.21700
C         -1.99620        0.75830        0.67110
C         -2.16860        1.39460        1.91120
C         -3.50000        1.62640        2.48750
C         -4.41750        0.58330        2.60280
C         -5.65330        0.81450        3.17530
C         -5.99860        2.07280        3.63750
C         -5.09400        3.11880        3.51600
S         -5.39280        4.76340        4.09140
C         -7.21210        4.88920        4.20320
C         -7.87780        4.81570        2.84270
C         -3.84730        2.88940        2.94530
C         -1.01460        1.76170        2.58560
C          0.28510        1.52550        2.07670
C          0.45920        0.90930        0.82590
C          1.80730        0.69850        0.28070
C          2.22700       -0.55630       -0.15060
C          3.51710       -0.73780       -0.61720
C          4.40530        0.32220       -0.65700
C          3.98900        1.57470       -0.23170
S          5.11240        2.96230       -0.25230
C          6.25290        2.42940        1.08060
C          5.54280        2.31910        2.41470
C          2.69700        1.76780        0.22310
C         -0.69220        0.52010        0.16380
S         -0.74830       -0.29100       -1.37970
C          1.29000        1.90420        3.00050
C          0.80810        2.41760        4.16780
S         -0.94680        2.47800        4.17260
C          1.56640        2.84720        5.32030
C          2.95990        2.66510        5.35830
C          3.64870        3.04480        6.48290
C          5.10430        2.92660        6.76640
O          5.96230        2.47710        6.04540
C          5.25320        3.46970        8.14410
C          3.98850        3.86720        8.62820
C          2.99540        3.61150        7.59570
C          1.62690        3.80610        7.55930
C          0.92940        3.42250        6.42410
C          3.86600        4.35860        9.91610
C          5.00310        4.44670       10.70100
C          6.26960        4.09540       10.21400
C          6.38710        3.58350        8.90980
C          7.40240        4.19730       11.09850
C          8.67960        4.51500       10.76590
C          9.10270        5.16890        9.49410
O          8.43730        5.38990        8.50900
C         10.49980        5.59220        9.71860
C         11.32350        6.26900        8.86540
C         12.63600        6.58150        9.28240
C         13.52850        7.27320        8.44040
C         14.79200        7.56650        8.87060
F         15.63970        8.22590        8.07030
C         15.21820        7.18120       10.15810
F         16.46220        7.48230       10.55190
C         14.37560        6.50880       10.99770
C         13.06580        6.19070       10.58420
C         12.18900        5.49400       11.44560
C         10.92160        5.19400       11.01710
C          9.82180        4.49290       11.66840
C          9.88660        3.85350       12.87680
C         11.03350        3.83450       13.69930
N         11.93210        3.79120       14.41180
C          8.83990        3.10400       13.45670
N          8.04520        2.46720       13.98660
H         -8.29290       -5.12430       -8.37780
H         -7.69440       -7.99170      -12.82420
H         -6.70300       -9.21000      -14.75890
H         -2.41460       -9.64380      -12.31190
H         -3.36700       -8.47130      -10.38700
H         -8.06740       -3.77530       -6.10350
H        -11.41620       -3.63940       -2.80120
H        -11.84980       -1.95940       -2.42800
H        -10.62110       -2.12840       -0.26430
H        -10.18590       -3.79980       -0.63700
H        -11.87850       -3.36430       -0.37580
H         -1.24940       -3.90930       -3.95010
H          0.75450       -4.84050       -5.29810
H          0.81930       -4.12420       -8.86390
H          1.47600       -5.31620       -7.73260
H         -0.41390       -6.87340       -8.32900
H          0.55020       -6.43760       -9.74480
H         -1.01950       -5.67290       -9.47170
H         -1.68160       -1.67550       -3.66030
H         -4.05280        0.39810       -0.03500
H         -4.14870       -0.40820        2.27080
H         -6.35950        0.00310        3.27380
H         -6.96330        2.21900        4.09640
H         -7.37330        5.86380        4.66380
H         -7.57380        4.12020        4.88510
H         -8.95460        4.93170        2.95070
H         -7.50440        5.60870        2.19890
H         -7.67730        3.86060        2.36140
H         -3.15720        3.71390        2.84810
H          1.54780       -1.39390       -0.09950
H          3.83480       -1.71500       -0.94910
H          5.41240        0.18290       -1.02000
H          7.01890        3.20300        1.10230
H          6.70380        1.48290        0.78340
H          4.81920        1.50470        2.38790
H          5.02370        3.24870        2.64120
H          6.25630        2.12150        3.21200
H          2.38190        2.75550        0.52470
H          2.33500        1.77090        2.79360
H          3.49350        2.22160        4.53400
H          1.10240        4.24280        8.39550
H         -0.14120        3.56500        6.38720
H          2.90600        4.65470       10.31060
H          4.92170        4.81860       11.71240
H          7.33550        3.24560        8.52580
H          7.17820        4.02140       12.14440
H         10.97690        6.55860        7.88500
H         13.21730        7.57490        7.45250
H         14.71810        6.21990       11.97900
H         12.54090        5.21910       12.42670
