
  xtb     02102218343D
 energy: -311.907233574246 gnorm: 0.000694242757 xtb: 6.4.1 (unknown)
166184  0     0  0            999 V2000
   -0.4086  -13.2890   -2.4609 C   0  0  0  0  0  0  0  0  0  0  0  0
    0.5126  -14.2539   -2.1596 C   0  0  0  0  0  0  0  0  0  0  0  0
    1.7311  -14.1522   -1.3191 C   0  0  0  0  0  0  0  0  0  0  0  0
    2.0417  -13.2961   -0.5183 O   0  0  0  0  0  0  0  0  0  0  0  0
    2.5257  -15.3585   -1.6227 C   0  0  0  0  0  0  0  0  0  0  0  0
    3.7763  -15.6782   -1.1792 C   0  0  0  0  0  0  0  0  0  0  0  0
    4.3655  -16.8882   -1.6071 C   0  0  0  0  0  0  0  0  0  0  0  0
    5.6554  -17.2659   -1.1863 C   0  0  0  0  0  0  0  0  0  0  0  0
    6.2029  -18.4410   -1.6187 C   0  0  0  0  0  0  0  0  0  0  0  0
    7.4307  -18.7995   -1.2184 F   0  0  0  0  0  0  0  0  0  0  0  0
    5.4864  -19.2878   -2.4881 C   0  0  0  0  0  0  0  0  0  0  0  0
    6.0487  -20.4338   -2.8952 F   0  0  0  0  0  0  0  0  0  0  0  0
    4.2332  -18.9482   -2.9140 C   0  0  0  0  0  0  0  0  0  0  0  0
    3.6397  -17.7432   -2.4865 C   0  0  0  0  0  0  0  0  0  0  0  0
    2.3433  -17.3858   -2.9223 C   0  0  0  0  0  0  0  0  0  0  0  0
    1.7907  -16.2074   -2.4933 C   0  0  0  0  0  0  0  0  0  0  0  0
    0.5016  -15.5790   -2.7658 C   0  0  0  0  0  0  0  0  0  0  0  0
   -0.5377  -16.1789   -3.4259 C   0  0  0  0  0  0  0  0  0  0  0  0
   -1.8261  -15.6351   -3.6205 C   0  0  0  0  0  0  0  0  0  0  0  0
   -2.9046  -15.2874   -3.8069 N   0  0  0  0  0  0  0  0  0  0  0  0
   -0.4732  -17.4776   -3.9752 C   0  0  0  0  0  0  0  0  0  0  0  0
   -0.4840  -18.5242   -4.4464 N   0  0  0  0  0  0  0  0  0  0  0  0
   -0.5052  -11.9387   -2.0588 C   0  0  0  0  0  0  0  0  0  0  0  0
    0.2268  -11.1888   -1.1707 C   0  0  0  0  0  0  0  0  0  0  0  0
   -0.1489   -9.8347   -1.1315 C   0  0  0  0  0  0  0  0  0  0  0  0
    0.4297   -8.8154   -0.3467 C   0  0  0  0  0  0  0  0  0  0  0  0
    1.6004   -9.0786    0.4691 C   0  0  0  0  0  0  0  0  0  0  0  0
    1.6479   -8.6509    2.1531 S   0  0  0  0  0  0  0  0  0  0  0  0
    3.2505   -9.2721    2.3447 C   0  0  0  0  0  0  0  0  0  0  0  0
    3.9616   -9.1728    3.6484 C   0  0  0  0  0  0  0  0  0  0  0  0
    4.5477   -7.7723    3.8428 C   0  0  0  0  0  0  0  0  0  0  0  0
    3.7149   -9.7616    1.1599 C   0  0  0  0  0  0  0  0  0  0  0  0
    5.2713  -10.4487    0.9528 Cl  0  0  0  0  0  0  0  0  0  0  0  0
    2.7819   -9.6598    0.0946 C   0  0  0  0  0  0  0  0  0  0  0  0
    3.1608  -10.1393   -1.5069 Cl  0  0  0  0  0  0  0  0  0  0  0  0
   -0.1538   -7.5629   -0.4264 C   0  0  0  0  0  0  0  0  0  0  0  0
   -1.2667   -7.2765   -1.2600 C   0  0  0  0  0  0  0  0  0  0  0  0
   -1.8491   -8.2937   -2.0447 C   0  0  0  0  0  0  0  0  0  0  0  0
   -3.0179   -8.0351   -2.8598 C   0  0  0  0  0  0  0  0  0  0  0  0
   -4.1271   -7.3047   -2.5319 C   0  0  0  0  0  0  0  0  0  0  0  0
   -5.0922   -7.2700   -3.5564 C   0  0  0  0  0  0  0  0  0  0  0  0
   -4.7271   -7.9663   -4.6683 C   0  0  0  0  0  0  0  0  0  0  0  0
   -5.4624   -8.1097   -5.9555 C   0  0  0  0  0  0  0  0  0  0  0  0
   -4.8981   -7.1686   -7.0227 C   0  0  0  0  0  0  0  0  0  0  0  0
   -3.1682   -8.6920   -4.4647 S   0  0  0  0  0  0  0  0  0  0  0  0
   -1.2519   -9.5486   -1.9789 C   0  0  0  0  0  0  0  0  0  0  0  0
   -1.7549  -10.9692   -2.8413 S   0  0  0  0  0  0  0  0  0  0  0  0
   -1.5992   -5.9020   -1.2283 C   0  0  0  0  0  0  0  0  0  0  0  0
   -0.7972   -5.1604   -0.4061 C   0  0  0  0  0  0  0  0  0  0  0  0
    0.4164   -6.1367    0.3908 S   0  0  0  0  0  0  0  0  0  0  0  0
   -0.8368   -3.7506   -0.1862 C   0  0  0  0  0  0  0  0  0  0  0  0
   -1.7371   -2.8500   -0.6807 C   0  0  0  0  0  0  0  0  0  0  0  0
   -1.4623   -1.5091   -0.3135 C   0  0  0  0  0  0  0  0  0  0  0  0
   -2.1666   -0.3494   -0.6683 C   0  0  0  0  0  0  0  0  0  0  0  0
   -3.4246   -0.3984   -1.4811 C   0  0  0  0  0  0  0  0  0  0  0  0
   -4.6320   -0.6918   -0.5883 C   0  0  0  0  0  0  0  0  0  0  0  0
   -1.6568    0.8444   -0.1958 C   0  0  0  0  0  0  0  0  0  0  0  0
   -0.4900    0.9389    0.6074 C   0  0  0  0  0  0  0  0  0  0  0  0
    0.2021   -0.2211    0.9797 C   0  0  0  0  0  0  0  0  0  0  0  0
    1.4579   -0.1721    1.7958 C   0  0  0  0  0  0  0  0  0  0  0  0
    2.6724    0.0875    0.9019 C   0  0  0  0  0  0  0  0  0  0  0  0
   -0.3019   -1.4141    0.4987 C   0  0  0  0  0  0  0  0  0  0  0  0
    0.4002   -2.9847    0.7854 S   0  0  0  0  0  0  0  0  0  0  0  0
   -0.1692    2.2854    0.9099 C   0  0  0  0  0  0  0  0  0  0  0  0
   -1.0361    3.1907    0.3717 C   0  0  0  0  0  0  0  0  0  0  0  0
   -2.3252    2.4226   -0.5313 S   0  0  0  0  0  0  0  0  0  0  0  0
   -0.9580    4.6114    0.4378 C   0  0  0  0  0  0  0  0  0  0  0  0
   -1.8075    5.5216   -0.1209 C   0  0  0  0  0  0  0  0  0  0  0  0
   -1.4034    6.8637    0.0672 C   0  0  0  0  0  0  0  0  0  0  0  0
   -2.0392    8.0286   -0.4015 C   0  0  0  0  0  0  0  0  0  0  0  0
   -3.2019    7.9580   -1.2689 C   0  0  0  0  0  0  0  0  0  0  0  0
   -4.6504    8.8547   -0.9200 S   0  0  0  0  0  0  0  0  0  0  0  0
   -5.4464    8.2720   -2.3409 C   0  0  0  0  0  0  0  0  0  0  0  0
   -6.8542    8.6473   -2.6466 C   0  0  0  0  0  0  0  0  0  0  0  0
   -7.8372    7.7039   -1.9490 C   0  0  0  0  0  0  0  0  0  0  0  0
   -4.6277    7.4286   -3.0312 C   0  0  0  0  0  0  0  0  0  0  0  0
   -5.0696    6.6543   -4.4972 Cl  0  0  0  0  0  0  0  0  0  0  0  0
   -3.3527    7.2511   -2.4306 C   0  0  0  0  0  0  0  0  0  0  0  0
   -2.1158    6.3093   -3.1574 Cl  0  0  0  0  0  0  0  0  0  0  0  0
   -1.4829    9.2408   -0.0200 C   0  0  0  0  0  0  0  0  0  0  0  0
   -0.3206    9.3332    0.7901 C   0  0  0  0  0  0  0  0  0  0  0  0
    0.3532    8.1667    1.2193 C   0  0  0  0  0  0  0  0  0  0  0  0
    1.5964    8.2181    1.9577 C   0  0  0  0  0  0  0  0  0  0  0  0
    2.6969    7.4221    1.7912 C   0  0  0  0  0  0  0  0  0  0  0  0
    3.7617    7.7494    2.6517 C   0  0  0  0  0  0  0  0  0  0  0  0
    3.4839    8.7800    3.4964 C   0  0  0  0  0  0  0  0  0  0  0  0
    4.3621    9.4135    4.5182 C   0  0  0  0  0  0  0  0  0  0  0  0
    4.6672   10.8710    4.1678 C   0  0  0  0  0  0  0  0  0  0  0  0
    1.8808    9.3785    3.2286 S   0  0  0  0  0  0  0  0  0  0  0  0
   -0.2147    6.9591    0.8346 C   0  0  0  0  0  0  0  0  0  0  0  0
    0.3859    5.3787    1.2575 S   0  0  0  0  0  0  0  0  0  0  0  0
    0.0833   10.6676    0.9632 C   0  0  0  0  0  0  0  0  0  0  0  0
   -0.6979   11.5846    0.3048 C   0  0  0  0  0  0  0  0  0  0  0  0
   -2.0383   10.8096   -0.5201 S   0  0  0  0  0  0  0  0  0  0  0  0
   -0.5488   12.9902    0.2725 C   0  0  0  0  0  0  0  0  0  0  0  0
    0.5464   13.7262    0.6156 C   0  0  0  0  0  0  0  0  0  0  0  0
    0.3751   15.1698    0.9369 C   0  0  0  0  0  0  0  0  0  0  0  0
   -0.5834   15.8613    0.6846 O   0  0  0  0  0  0  0  0  0  0  0  0
    1.5954   15.5478    1.6819 C   0  0  0  0  0  0  0  0  0  0  0  0
    1.8885   16.7220    2.3128 C   0  0  0  0  0  0  0  0  0  0  0  0
    3.1123   16.8405    3.0100 C   0  0  0  0  0  0  0  0  0  0  0  0
    3.4645   18.0307    3.6757 C   0  0  0  0  0  0  0  0  0  0  0  0
    4.6488   18.1161    4.3527 C   0  0  0  0  0  0  0  0  0  0  0  0
    4.9818   19.2487    4.9865 F   0  0  0  0  0  0  0  0  0  0  0  0
    5.5308   17.0178    4.3948 C   0  0  0  0  0  0  0  0  0  0  0  0
    6.6835   17.1289    5.0686 F   0  0  0  0  0  0  0  0  0  0  0  0
    5.2179   15.8502    3.7577 C   0  0  0  0  0  0  0  0  0  0  0  0
    4.0064   15.7313    3.0476 C   0  0  0  0  0  0  0  0  0  0  0  0
    3.6816   14.5319    2.3742 C   0  0  0  0  0  0  0  0  0  0  0  0
    2.4975   14.4462    1.6927 C   0  0  0  0  0  0  0  0  0  0  0  0
    1.9236   13.3705    0.8880 C   0  0  0  0  0  0  0  0  0  0  0  0
    2.6478   12.3594    0.3111 C   0  0  0  0  0  0  0  0  0  0  0  0
    2.1419   11.4895   -0.6770 C   0  0  0  0  0  0  0  0  0  0  0  0
    1.8006   10.7846   -1.5156 N   0  0  0  0  0  0  0  0  0  0  0  0
    3.9983   12.0911    0.6054 C   0  0  0  0  0  0  0  0  0  0  0  0
    5.0827   11.7987    0.8452 N   0  0  0  0  0  0  0  0  0  0  0  0
   -1.1731  -13.5683   -3.1769 H   0  0  0  0  0  0  0  0  0  0  0  0
    4.3089  -15.0141   -0.5155 H   0  0  0  0  0  0  0  0  0  0  0  0
    6.2165  -16.6283   -0.5212 H   0  0  0  0  0  0  0  0  0  0  0  0
    3.6980  -19.6084   -3.5786 H   0  0  0  0  0  0  0  0  0  0  0  0
    1.8241  -18.0525   -3.5913 H   0  0  0  0  0  0  0  0  0  0  0  0
    1.0015  -11.6105   -0.5591 H   0  0  0  0  0  0  0  0  0  0  0  0
    3.2648   -9.3895    4.4601 H   0  0  0  0  0  0  0  0  0  0  0  0
    4.7631   -9.9132    3.6674 H   0  0  0  0  0  0  0  0  0  0  0  0
    3.7563   -7.0268    3.8229 H   0  0  0  0  0  0  0  0  0  0  0  0
    5.0619   -7.7123    4.7981 H   0  0  0  0  0  0  0  0  0  0  0  0
    5.2569   -7.5473    3.0503 H   0  0  0  0  0  0  0  0  0  0  0  0
   -4.2665   -6.8482   -1.5680 H   0  0  0  0  0  0  0  0  0  0  0  0
   -6.0311   -6.7523   -3.4680 H   0  0  0  0  0  0  0  0  0  0  0  0
   -6.5172   -7.8823   -5.7868 H   0  0  0  0  0  0  0  0  0  0  0  0
   -5.3846   -9.1400   -6.3096 H   0  0  0  0  0  0  0  0  0  0  0  0
   -5.4451   -7.2857   -7.9546 H   0  0  0  0  0  0  0  0  0  0  0  0
   -3.8491   -7.3912   -7.2044 H   0  0  0  0  0  0  0  0  0  0  0  0
   -4.9810   -6.1337   -6.6978 H   0  0  0  0  0  0  0  0  0  0  0  0
   -2.3791   -5.4729   -1.8286 H   0  0  0  0  0  0  0  0  0  0  0  0
   -2.5703   -3.1385   -1.2946 H   0  0  0  0  0  0  0  0  0  0  0  0
   -3.3419   -1.1663   -2.2519 H   0  0  0  0  0  0  0  0  0  0  0  0
   -3.5685    0.5657   -1.9739 H   0  0  0  0  0  0  0  0  0  0  0  0
   -4.5083   -1.6454   -0.0798 H   0  0  0  0  0  0  0  0  0  0  0  0
   -5.5412   -0.7278   -1.1831 H   0  0  0  0  0  0  0  0  0  0  0  0
   -4.7406    0.0865    0.1634 H   0  0  0  0  0  0  0  0  0  0  0  0
    1.3825    0.6129    2.5499 H   0  0  0  0  0  0  0  0  0  0  0  0
    1.5876   -1.1282    2.3079 H   0  0  0  0  0  0  0  0  0  0  0  0
    2.7740   -0.7072    0.1666 H   0  0  0  0  0  0  0  0  0  0  0  0
    3.5793    0.1236    1.5001 H   0  0  0  0  0  0  0  0  0  0  0  0
    2.5638    1.0325    0.3747 H   0  0  0  0  0  0  0  0  0  0  0  0
    0.6821    2.5875    1.4937 H   0  0  0  0  0  0  0  0  0  0  0  0
   -2.6996    5.2318   -0.6453 H   0  0  0  0  0  0  0  0  0  0  0  0
   -7.0034    8.5958   -3.7268 H   0  0  0  0  0  0  0  0  0  0  0  0
   -7.0354    9.6710   -2.3156 H   0  0  0  0  0  0  0  0  0  0  0  0
   -7.6786    6.6813   -2.2819 H   0  0  0  0  0  0  0  0  0  0  0  0
   -7.6989    7.7449   -0.8713 H   0  0  0  0  0  0  0  0  0  0  0  0
   -8.8588    7.9917   -2.1816 H   0  0  0  0  0  0  0  0  0  0  0  0
    2.7597    6.6550    1.0411 H   0  0  0  0  0  0  0  0  0  0  0  0
    4.7068    7.2368    2.6420 H   0  0  0  0  0  0  0  0  0  0  0  0
    5.2921    8.8448    4.5765 H   0  0  0  0  0  0  0  0  0  0  0  0
    3.8758    9.3746    5.4973 H   0  0  0  0  0  0  0  0  0  0  0  0
    3.7478   11.4542    4.1519 H   0  0  0  0  0  0  0  0  0  0  0  0
    5.1365   10.9344    3.1881 H   0  0  0  0  0  0  0  0  0  0  0  0
    5.3382   11.3013    4.9070 H   0  0  0  0  0  0  0  0  0  0  0  0
    0.9085   10.9565    1.5856 H   0  0  0  0  0  0  0  0  0  0  0  0
   -1.4304   13.5657    0.0095 H   0  0  0  0  0  0  0  0  0  0  0  0
    1.1962   17.5495    2.2827 H   0  0  0  0  0  0  0  0  0  0  0  0
    2.8002   18.8803    3.6542 H   0  0  0  0  0  0  0  0  0  0  0  0
    5.9056   15.0198    3.7953 H   0  0  0  0  0  0  0  0  0  0  0  0
    4.3737   13.7065    2.4233 H   0  0  0  0  0  0  0  0  0  0  0  0
  1  2  2  0  0  0  0
  2  3  1  0  0  0  0
  3  4  2  0  0  0  0
  3  5  1  0  0  0  0
  5  6  2  0  0  0  0
  6  7  1  0  0  0  0
  7  8  2  0  0  0  0
  8  9  1  0  0  0  0
  9 10  1  0  0  0  0
  9 11  2  0  0  0  0
 11 12  1  0  0  0  0
 11 13  1  0  0  0  0
 13 14  2  0  0  0  0
 14 15  1  0  0  0  0
 15 16  2  0  0  0  0
 16 17  1  0  0  0  0
 17 18  2  0  0  0  0
 18 19  1  0  0  0  0
 19 20  3  0  0  0  0
 18 21  1  0  0  0  0
 21 22  3  0  0  0  0
  1 23  1  0  0  0  0
 23 24  2  0  0  0  0
 24 25  1  0  0  0  0
 25 26  2  0  0  0  0
 26 27  1  0  0  0  0
 27 28  1  0  0  0  0
 28 29  1  0  0  0  0
 29 30  1  0  0  0  0
 30 31  1  0  0  0  0
 29 32  2  0  0  0  0
 32 33  1  0  0  0  0
 32 34  1  0  0  0  0
 34 35  1  0  0  0  0
 26 36  1  0  0  0  0
 36 37  2  0  0  0  0
 37 38  1  0  0  0  0
 38 39  1  0  0  0  0
 39 40  2  0  0  0  0
 40 41  1  0  0  0  0
 41 42  2  0  0  0  0
 42 43  1  0  0  0  0
 43 44  1  0  0  0  0
 42 45  1  0  0  0  0
 38 46  2  0  0  0  0
 46 47  1  0  0  0  0
 37 48  1  0  0  0  0
 48 49  2  0  0  0  0
 49 50  1  0  0  0  0
 49 51  1  0  0  0  0
 51 52  2  0  0  0  0
 52 53  1  0  0  0  0
 53 54  2  0  0  0  0
 54 55  1  0  0  0  0
 55 56  1  0  0  0  0
 54 57  1  0  0  0  0
 57 58  2  0  0  0  0
 58 59  1  0  0  0  0
 59 60  1  0  0  0  0
 60 61  1  0  0  0  0
 59 62  2  0  0  0  0
 62 63  1  0  0  0  0
 58 64  1  0  0  0  0
 64 65  2  0  0  0  0
 65 66  1  0  0  0  0
 65 67  1  0  0  0  0
 67 68  2  0  0  0  0
 68 69  1  0  0  0  0
 69 70  2  0  0  0  0
 70 71  1  0  0  0  0
 71 72  1  0  0  0  0
 72 73  1  0  0  0  0
 73 74  1  0  0  0  0
 74 75  1  0  0  0  0
 73 76  2  0  0  0  0
 76 77  1  0  0  0  0
 76 78  1  0  0  0  0
 78 79  1  0  0  0  0
 70 80  1  0  0  0  0
 80 81  2  0  0  0  0
 81 82  1  0  0  0  0
 82 83  1  0  0  0  0
 83 84  2  0  0  0  0
 84 85  1  0  0  0  0
 85 86  2  0  0  0  0
 86 87  1  0  0  0  0
 87 88  1  0  0  0  0
 86 89  1  0  0  0  0
 82 90  2  0  0  0  0
 90 91  1  0  0  0  0
 81 92  1  0  0  0  0
 92 93  2  0  0  0  0
 93 94  1  0  0  0  0
 93 95  1  0  0  0  0
 95 96  2  0  0  0  0
 96 97  1  0  0  0  0
 97 98  2  0  0  0  0
 97 99  1  0  0  0  0
 99100  2  0  0  0  0
100101  1  0  0  0  0
101102  2  0  0  0  0
102103  1  0  0  0  0
103104  1  0  0  0  0
103105  2  0  0  0  0
105106  1  0  0  0  0
105107  1  0  0  0  0
107108  2  0  0  0  0
108109  1  0  0  0  0
109110  2  0  0  0  0
110111  1  0  0  0  0
111112  2  0  0  0  0
112113  1  0  0  0  0
113114  3  0  0  0  0
112115  1  0  0  0  0
115116  3  0  0  0  0
 17  2  1  0  0  0  0
 47 23  1  0  0  0  0
 63 51  1  0  0  0  0
 91 67  1  0  0  0  0
111 96  1  0  0  0  0
 16  5  1  0  0  0  0
 46 25  1  0  0  0  0
 62 53  1  0  0  0  0
 90 69  1  0  0  0  0
110 99  1  0  0  0  0
 14  7  1  0  0  0  0
 34 27  2  0  0  0  0
 50 36  1  0  0  0  0
 66 57  1  0  0  0  0
 78 71  2  0  0  0  0
 94 80  1  0  0  0  0
108101  1  0  0  0  0
 45 39  1  0  0  0  0
 89 83  1  0  0  0  0
  1117  1  0  0  0  0
  6118  1  0  0  0  0
  8119  1  0  0  0  0
 13120  1  0  0  0  0
 15121  1  0  0  0  0
 24122  1  0  0  0  0
 30123  1  0  0  0  0
 30124  1  0  0  0  0
 31125  1  0  0  0  0
 31126  1  0  0  0  0
 31127  1  0  0  0  0
 40128  1  0  0  0  0
 41129  1  0  0  0  0
 43130  1  0  0  0  0
 43131  1  0  0  0  0
 44132  1  0  0  0  0
 44133  1  0  0  0  0
 44134  1  0  0  0  0
 48135  1  0  0  0  0
 52136  1  0  0  0  0
 55137  1  0  0  0  0
 55138  1  0  0  0  0
 56139  1  0  0  0  0
 56140  1  0  0  0  0
 56141  1  0  0  0  0
 60142  1  0  0  0  0
 60143  1  0  0  0  0
 61144  1  0  0  0  0
 61145  1  0  0  0  0
 61146  1  0  0  0  0
 64147  1  0  0  0  0
 68148  1  0  0  0  0
 74149  1  0  0  0  0
 74150  1  0  0  0  0
 75151  1  0  0  0  0
 75152  1  0  0  0  0
 75153  1  0  0  0  0
 84154  1  0  0  0  0
 85155  1  0  0  0  0
 87156  1  0  0  0  0
 87157  1  0  0  0  0
 88158  1  0  0  0  0
 88159  1  0  0  0  0
 88160  1  0  0  0  0
 92161  1  0  0  0  0
 95162  1  0  0  0  0
100163  1  0  0  0  0
102164  1  0  0  0  0
107165  1  0  0  0  0
109166  1  0  0  0  0
M  END
