
  xtb     02102220353D
 energy: -259.410492843782 gnorm: 0.000339660993 xtb: 6.4.1 (unknown)
131145  0     0  0            999 V2000
    7.2376   -5.3066    0.4017 C   0  0  0  0  0  0  0  0  0  0  0  0
    7.4653   -6.5522   -0.1154 C   0  0  0  0  0  0  0  0  0  0  0  0
    6.5061   -7.3620   -0.8873 C   0  0  0  0  0  0  0  0  0  0  0  0
    5.3351   -7.1250   -1.1077 O   0  0  0  0  0  0  0  0  0  0  0  0
    7.2560   -8.5423   -1.3558 C   0  0  0  0  0  0  0  0  0  0  0  0
    6.8232   -9.5633   -2.1514 C   0  0  0  0  0  0  0  0  0  0  0  0
    7.7271  -10.5913   -2.4991 C   0  0  0  0  0  0  0  0  0  0  0  0
    7.3379  -11.6634   -3.3254 C   0  0  0  0  0  0  0  0  0  0  0  0
    8.2356  -12.6406   -3.6522 C   0  0  0  0  0  0  0  0  0  0  0  0
    7.8646  -13.6586   -4.4407 F   0  0  0  0  0  0  0  0  0  0  0  0
    9.5578  -12.5900   -3.1669 C   0  0  0  0  0  0  0  0  0  0  0  0
   10.4157  -13.5617   -3.5044 F   0  0  0  0  0  0  0  0  0  0  0  0
    9.9645  -11.5631   -2.3620 C   0  0  0  0  0  0  0  0  0  0  0  0
    9.0637  -10.5385   -2.0077 C   0  0  0  0  0  0  0  0  0  0  0  0
    9.4792   -9.4700   -1.1805 C   0  0  0  0  0  0  0  0  0  0  0  0
    8.5868   -8.4813   -0.8578 C   0  0  0  0  0  0  0  0  0  0  0  0
    8.7273   -7.2699   -0.0528 C   0  0  0  0  0  0  0  0  0  0  0  0
    9.8538   -6.9132    0.6416 C   0  0  0  0  0  0  0  0  0  0  0  0
   10.0028   -5.7658    1.4493 C   0  0  0  0  0  0  0  0  0  0  0  0
   10.2098   -4.8630    2.1287 N   0  0  0  0  0  0  0  0  0  0  0  0
   11.0433   -7.6728    0.6573 C   0  0  0  0  0  0  0  0  0  0  0  0
   12.0388   -8.2419    0.7108 N   0  0  0  0  0  0  0  0  0  0  0  0
    6.0870   -4.4934    0.3658 C   0  0  0  0  0  0  0  0  0  0  0  0
    6.0959   -3.2086    0.8823 C   0  0  0  0  0  0  0  0  0  0  0  0
    4.8815   -2.5246    0.7344 C   0  0  0  0  0  0  0  0  0  0  0  0
    4.5891   -1.1852    1.0833 C   0  0  0  0  0  0  0  0  0  0  0  0
    5.5675   -0.3484    1.7531 C   0  0  0  0  0  0  0  0  0  0  0  0
    6.3438   -0.8763    3.2195 S   0  0  0  0  0  0  0  0  0  0  0  0
    7.2407    0.5947    3.3696 C   0  0  0  0  0  0  0  0  0  0  0  0
    8.1356    0.8353    4.5341 C   0  0  0  0  0  0  0  0  0  0  0  0
    7.3369    1.3278    5.7435 C   0  0  0  0  0  0  0  0  0  0  0  0
    6.9446    1.4365    2.3390 C   0  0  0  0  0  0  0  0  0  0  0  0
    7.6432    2.9909    2.1424 Cl  0  0  0  0  0  0  0  0  0  0  0  0
    5.9993    0.9067    1.4201 C   0  0  0  0  0  0  0  0  0  0  0  0
    5.5404    1.7407   -0.0030 Cl  0  0  0  0  0  0  0  0  0  0  0  0
    3.3218   -0.7234    0.7662 C   0  0  0  0  0  0  0  0  0  0  0  0
    2.3439   -1.5357    0.1303 C   0  0  0  0  0  0  0  0  0  0  0  0
    2.6394   -2.8632   -0.2369 C   0  0  0  0  0  0  0  0  0  0  0  0
    1.6707   -3.6848   -0.9311 C   0  0  0  0  0  0  0  0  0  0  0  0
    0.8368   -3.3301   -1.9566 C   0  0  0  0  0  0  0  0  0  0  0  0
    0.0391   -4.3956   -2.4151 C   0  0  0  0  0  0  0  0  0  0  0  0
    0.2469   -5.5580   -1.7355 C   0  0  0  0  0  0  0  0  0  0  0  0
   -0.3706   -6.8937   -1.9655 C   0  0  0  0  0  0  0  0  0  0  0  0
    0.6259   -7.8449   -2.6323 C   0  0  0  0  0  0  0  0  0  0  0  0
    1.4575   -5.3602   -0.5154 S   0  0  0  0  0  0  0  0  0  0  0  0
    3.9089   -3.3323    0.0862 C   0  0  0  0  0  0  0  0  0  0  0  0
    4.5295   -4.9069   -0.3157 S   0  0  0  0  0  0  0  0  0  0  0  0
    1.1172   -0.8575   -0.0153 C   0  0  0  0  0  0  0  0  0  0  0  0
    1.1251    0.4284    0.4542 C   0  0  0  0  0  0  0  0  0  0  0  0
    2.6906    0.8525    1.1296 S   0  0  0  0  0  0  0  0  0  0  0  0
    0.0415    1.3773    0.4056 C   0  0  0  0  0  0  0  0  0  0  0  0
    0.1962    2.6938    0.8168 C   0  0  0  0  0  0  0  0  0  0  0  0
    1.3702    3.1188    1.3120 F   0  0  0  0  0  0  0  0  0  0  0  0
   -0.8126    3.6587    0.7018 C   0  0  0  0  0  0  0  0  0  0  0  0
   -0.4891    4.9193    1.0196 F   0  0  0  0  0  0  0  0  0  0  0  0
   -2.0620    3.3566    0.2022 C   0  0  0  0  0  0  0  0  0  0  0  0
   -2.2938    2.0024   -0.1679 C   0  0  0  0  0  0  0  0  0  0  0  0
   -3.5292    1.6338   -0.5366 N   0  0  0  0  0  0  0  0  0  0  0  0
   -3.7597    0.4093   -0.9347 C   0  0  0  0  0  0  0  0  0  0  0  0
   -5.1712    0.0903   -1.3209 C   0  0  0  0  0  0  0  0  0  0  0  0
   -5.3725    0.3162   -2.8217 C   0  0  0  0  0  0  0  0  0  0  0  0
   -2.6910   -0.5254   -1.0070 C   0  0  0  0  0  0  0  0  0  0  0  0
   -1.5024   -0.1979   -0.5663 N   0  0  0  0  0  0  0  0  0  0  0  0
   -1.2529    1.0378   -0.1093 C   0  0  0  0  0  0  0  0  0  0  0  0
   -2.8296   -1.9335   -1.5040 C   0  0  0  0  0  0  0  0  0  0  0  0
   -2.9137   -2.9069   -0.3257 C   0  0  0  0  0  0  0  0  0  0  0  0
   -3.0909    4.3636    0.0133 C   0  0  0  0  0  0  0  0  0  0  0  0
   -3.4146    5.3181    0.9864 C   0  0  0  0  0  0  0  0  0  0  0  0
   -4.4234    6.3417    0.7768 C   0  0  0  0  0  0  0  0  0  0  0  0
   -4.4925    7.1765    1.8167 N   0  0  0  0  0  0  0  0  0  0  0  0
   -3.4784    6.6836    2.9498 S   0  0  0  0  0  4  0  0  0  0  0  0
   -2.8592    5.4206    2.2011 N   0  0  0  0  0  0  0  0  0  0  0  0
   -5.1729    6.4231   -0.4114 C   0  0  0  0  0  0  0  0  0  0  0  0
   -4.8138    5.4854   -1.4007 C   0  0  0  0  0  0  0  0  0  0  0  0
   -5.3518    5.4026   -2.6202 N   0  0  0  0  0  0  0  0  0  0  0  0
   -4.6469    4.2056   -3.4173 S   0  0  0  0  0  0  0  0  0  0  0  0
   -3.6390    3.7085   -2.2814 N   0  0  0  0  0  0  0  0  0  0  0  0
   -3.8068    4.4647   -1.1891 C   0  0  0  0  0  0  0  0  0  0  0  0
   -6.1597    7.4133   -0.6877 C   0  0  0  0  0  0  0  0  0  0  0  0
   -7.0020    7.9874    0.2141 C   0  0  0  0  0  0  0  0  0  0  0  0
   -7.3347    7.4317    1.5530 C   0  0  0  0  0  0  0  0  0  0  0  0
   -6.9597    6.3893    2.0425 O   0  0  0  0  0  0  0  0  0  0  0  0
   -8.3540    8.3433    2.1118 C   0  0  0  0  0  0  0  0  0  0  0  0
   -8.9724    8.2825    3.3455 C   0  0  0  0  0  0  0  0  0  0  0  0
   -9.9294    9.2339    3.6795 C   0  0  0  0  0  0  0  0  0  0  0  0
  -10.6300    9.2378    4.9982 C   0  0  0  0  0  0  0  0  0  0  0  0
  -10.2265   10.2112    2.7266 C   0  0  0  0  0  0  0  0  0  0  0  0
  -11.1568   11.1326    3.0386 F   0  0  0  0  0  0  0  0  0  0  0  0
   -9.6276   10.2908    1.4806 C   0  0  0  0  0  0  0  0  0  0  0  0
   -8.6705    9.3366    1.1700 C   0  0  0  0  0  0  0  0  0  0  0  0
   -7.8532    9.1399   -0.0229 C   0  0  0  0  0  0  0  0  0  0  0  0
   -7.8490    9.9475   -1.1284 C   0  0  0  0  0  0  0  0  0  0  0  0
   -8.6958   11.0647   -1.2935 C   0  0  0  0  0  0  0  0  0  0  0  0
   -9.3612   11.9784   -1.4927 N   0  0  0  0  0  0  0  0  0  0  0  0
   -7.0035    9.7997   -2.2493 C   0  0  0  0  0  0  0  0  0  0  0  0
   -6.3471    9.7705   -3.1908 N   0  0  0  0  0  0  0  0  0  0  0  0
    8.0699   -4.8275    0.9035 H   0  0  0  0  0  0  0  0  0  0  0  0
    5.8067   -9.5828   -2.5140 H   0  0  0  0  0  0  0  0  0  0  0  0
    6.3296  -11.7162   -3.7053 H   0  0  0  0  0  0  0  0  0  0  0  0
   10.9802  -11.5397   -1.9990 H   0  0  0  0  0  0  0  0  0  0  0  0
   10.4979   -9.4600   -0.8290 H   0  0  0  0  0  0  0  0  0  0  0  0
    6.9724   -2.7819    1.3366 H   0  0  0  0  0  0  0  0  0  0  0  0
    8.6524   -0.0906    4.7928 H   0  0  0  0  0  0  0  0  0  0  0  0
    8.8776    1.5853    4.2549 H   0  0  0  0  0  0  0  0  0  0  0  0
    8.0033    1.5045    6.5833 H   0  0  0  0  0  0  0  0  0  0  0  0
    6.8236    2.2556    5.5040 H   0  0  0  0  0  0  0  0  0  0  0  0
    6.5969    0.5860    6.0345 H   0  0  0  0  0  0  0  0  0  0  0  0
    0.8354   -2.3505   -2.4003 H   0  0  0  0  0  0  0  0  0  0  0  0
   -0.6623   -4.3070   -3.2265 H   0  0  0  0  0  0  0  0  0  0  0  0
   -0.6895   -7.3214   -1.0119 H   0  0  0  0  0  0  0  0  0  0  0  0
   -1.2509   -6.7751   -2.6011 H   0  0  0  0  0  0  0  0  0  0  0  0
    0.1736   -8.8223   -2.7807 H   0  0  0  0  0  0  0  0  0  0  0  0
    0.9335   -7.4522   -3.5987 H   0  0  0  0  0  0  0  0  0  0  0  0
    1.5104   -7.9581   -2.0097 H   0  0  0  0  0  0  0  0  0  0  0  0
    0.2370   -1.2990   -0.4382 H   0  0  0  0  0  0  0  0  0  0  0  0
   -5.8292    0.7632   -0.7699 H   0  0  0  0  0  0  0  0  0  0  0  0
   -5.4180   -0.9390   -1.0588 H   0  0  0  0  0  0  0  0  0  0  0  0
   -4.7355   -0.3432   -3.4069 H   0  0  0  0  0  0  0  0  0  0  0  0
   -5.1231    1.3435   -3.0752 H   0  0  0  0  0  0  0  0  0  0  0  0
   -6.4086    0.1287   -3.0921 H   0  0  0  0  0  0  0  0  0  0  0  0
   -1.9423   -2.1764   -2.0905 H   0  0  0  0  0  0  0  0  0  0  0  0
   -3.7094   -2.0380   -2.1365 H   0  0  0  0  0  0  0  0  0  0  0  0
   -3.7925   -2.7030    0.2822 H   0  0  0  0  0  0  0  0  0  0  0  0
   -2.9704   -3.9296   -0.6898 H   0  0  0  0  0  0  0  0  0  0  0  0
   -2.0306   -2.8102    0.3006 H   0  0  0  0  0  0  0  0  0  0  0  0
   -6.2330    7.6877   -1.7330 H   0  0  0  0  0  0  0  0  0  0  0  0
   -8.7050    7.5016    4.0410 H   0  0  0  0  0  0  0  0  0  0  0  0
  -11.7086    9.1970    4.8510 H   0  0  0  0  0  0  0  0  0  0  0  0
  -10.4123   10.1606    5.5354 H   0  0  0  0  0  0  0  0  0  0  0  0
  -10.3192    8.3920    5.6042 H   0  0  0  0  0  0  0  0  0  0  0  0
   -9.9213   11.0754    0.8032 H   0  0  0  0  0  0  0  0  0  0  0  0
  1  2  2  0  0  0  0
  2  3  1  0  0  0  0
  3  4  2  0  0  0  0
  3  5  1  0  0  0  0
  5  6  2  0  0  0  0
  6  7  1  0  0  0  0
  7  8  2  0  0  0  0
  8  9  1  0  0  0  0
  9 10  1  0  0  0  0
  9 11  2  0  0  0  0
 11 12  1  0  0  0  0
 11 13  1  0  0  0  0
 13 14  2  0  0  0  0
 14 15  1  0  0  0  0
 15 16  2  0  0  0  0
 16 17  1  0  0  0  0
 17 18  2  0  0  0  0
 18 19  1  0  0  0  0
 19 20  3  0  0  0  0
 18 21  1  0  0  0  0
 21 22  3  0  0  0  0
  1 23  1  0  0  0  0
 23 24  2  0  0  0  0
 24 25  1  0  0  0  0
 25 26  2  0  0  0  0
 26 27  1  0  0  0  0
 27 28  1  0  0  0  0
 28 29  1  0  0  0  0
 29 30  1  0  0  0  0
 30 31  1  0  0  0  0
 29 32  2  0  0  0  0
 32 33  1  0  0  0  0
 32 34  1  0  0  0  0
 34 35  1  0  0  0  0
 26 36  1  0  0  0  0
 36 37  2  0  0  0  0
 37 38  1  0  0  0  0
 38 39  1  0  0  0  0
 39 40  2  0  0  0  0
 40 41  1  0  0  0  0
 41 42  2  0  0  0  0
 42 43  1  0  0  0  0
 43 44  1  0  0  0  0
 42 45  1  0  0  0  0
 38 46  2  0  0  0  0
 46 47  1  0  0  0  0
 37 48  1  0  0  0  0
 48 49  2  0  0  0  0
 49 50  1  0  0  0  0
 49 51  1  0  0  0  0
 51 52  2  0  0  0  0
 52 53  1  0  0  0  0
 52 54  1  0  0  0  0
 54 55  1  0  0  0  0
 54 56  2  0  0  0  0
 56 57  1  0  0  0  0
 57 58  2  0  0  0  0
 58 59  1  0  0  0  0
 59 60  1  0  0  0  0
 60 61  1  0  0  0  0
 59 62  2  0  0  0  0
 62 63  1  0  0  0  0
 63 64  2  0  0  0  0
 62 65  1  0  0  0  0
 65 66  1  0  0  0  0
 56 67  1  0  0  0  0
 67 68  2  0  0  0  0
 68 69  1  0  0  0  0
 69 70  1  0  0  0  0
 70 71  2  0  0  0  0
 71 72  2  0  0  0  0
 69 73  2  0  0  0  0
 73 74  1  0  0  0  0
 74 75  2  0  0  0  0
 75 76  1  0  0  0  0
 76 77  1  0  0  0  0
 77 78  2  0  0  0  0
 73 79  1  0  0  0  0
 79 80  2  0  0  0  0
 80 81  1  0  0  0  0
 81 82  2  0  0  0  0
 81 83  1  0  0  0  0
 83 84  2  0  0  0  0
 84 85  1  0  0  0  0
 85 86  1  0  0  0  0
 85 87  2  0  0  0  0
 87 88  1  0  0  0  0
 87 89  1  0  0  0  0
 89 90  2  0  0  0  0
 90 91  1  0  0  0  0
 91 92  2  0  0  0  0
 92 93  1  0  0  0  0
 93 94  3  0  0  0  0
 92 95  1  0  0  0  0
 95 96  3  0  0  0  0
 17  2  1  0  0  0  0
 47 23  1  0  0  0  0
 64 51  1  0  0  0  0
 78 67  1  0  0  0  0
 91 80  1  0  0  0  0
 16  5  1  0  0  0  0
 46 25  1  0  0  0  0
 64 57  1  0  0  0  0
 72 68  1  0  0  0  0
 78 74  1  0  0  0  0
 90 83  1  0  0  0  0
 14  7  1  0  0  0  0
 34 27  2  0  0  0  0
 50 36  1  0  0  0  0
 45 39  1  0  0  0  0
  1 97  1  0  0  0  0
  6 98  1  0  0  0  0
  8 99  1  0  0  0  0
 13100  1  0  0  0  0
 15101  1  0  0  0  0
 24102  1  0  0  0  0
 30103  1  0  0  0  0
 30104  1  0  0  0  0
 31105  1  0  0  0  0
 31106  1  0  0  0  0
 31107  1  0  0  0  0
 40108  1  0  0  0  0
 41109  1  0  0  0  0
 43110  1  0  0  0  0
 43111  1  0  0  0  0
 44112  1  0  0  0  0
 44113  1  0  0  0  0
 44114  1  0  0  0  0
 48115  1  0  0  0  0
 60116  1  0  0  0  0
 60117  1  0  0  0  0
 61118  1  0  0  0  0
 61119  1  0  0  0  0
 61120  1  0  0  0  0
 65121  1  0  0  0  0
 65122  1  0  0  0  0
 66123  1  0  0  0  0
 66124  1  0  0  0  0
 66125  1  0  0  0  0
 79126  1  0  0  0  0
 84127  1  0  0  0  0
 86128  1  0  0  0  0
 86129  1  0  0  0  0
 86130  1  0  0  0  0
 89131  1  0  0  0  0
M  END
