202

C         -5.26900       -3.28040        1.83900
C         -6.09710       -3.21750        0.74100
C         -5.92710       -2.24740       -0.35490
O         -5.03150       -1.43420       -0.48670
C         -7.14190       -2.37300       -1.18590
C         -7.46630       -1.68480       -2.32740
C         -8.67390       -2.00180       -2.96060
C         -9.23580       -1.45130       -4.14680
C        -10.42610       -2.00590       -4.46480
S        -10.94000       -3.22690       -3.35310
C         -9.50420       -3.00190       -2.40430
C         -9.17930       -3.69500       -1.24330
C         -7.98470       -3.36980       -0.63440
C         -7.33770       -3.91610        0.55070
C         -7.74930       -5.01690        1.26320
C         -8.93930       -5.72560        1.01620
N         -9.88890       -6.35540        0.86750
C         -6.97880       -5.62770        2.27070
N         -6.37850       -6.21780        3.05340
C         -3.92540       -2.88700        1.87700
C         -2.93580       -2.84440        0.87440
N         -3.05500       -3.25200       -0.43060
C         -2.32320       -2.57990       -1.42930
C         -1.81800       -3.27790       -2.52210
C         -1.14730       -2.61540       -3.53210
C         -0.94890       -1.24350       -3.45290
S         -0.10360       -0.30110       -4.68580
C         -0.27530       -1.32010       -6.17860
C         -1.43440       -0.54600       -2.34950
C         -2.12440       -1.20130       -1.35550
C         -3.95780       -4.25320       -0.80730
C         -4.69870       -4.13660       -1.98670
C         -5.64180       -5.08550       -2.31160
C         -5.87010       -6.17750       -1.47500
S         -7.16630       -7.26960       -1.94760
C         -7.21690       -8.50680       -0.62270
C         -5.08990       -6.33100       -0.33330
C         -4.14840       -5.37730       -0.00560
C         -1.71910       -2.35870        1.40580
S         -0.13640       -2.11930        0.73570
C          0.41440       -1.44510        2.25940
C         -0.55330       -1.49000        3.24790
N         -0.32200       -1.05720        4.54670
C          0.83640       -1.50170        5.19670
C          1.30570       -2.79300        4.96630
C          2.44770       -3.25580        5.58790
C          3.14130       -2.43190        6.46300
S          4.61250       -2.92380        7.31090
C          4.71490       -4.71160        7.00340
C          2.68420       -1.13540        6.69000
C          1.54800       -0.67160        6.06280
C         -1.27470       -0.24130        5.16250
C         -1.49050       -0.28610        6.53980
C         -2.45830        0.50780        7.11400
C         -3.24610        1.34760        6.32950
S         -4.46130        2.31310        7.17490
C         -5.39980        3.09890        5.83420
C         -3.03600        1.39520        4.95910
C         -2.05010        0.61750        4.38700
C         -1.76120       -2.03020        2.75490
S         -3.29210       -2.39040        3.45510
C          1.63120       -0.70180        2.30090
C          2.80850       -0.94130        1.62780
N          3.20630       -2.18780        1.11340
C          4.30410       -2.75830        1.76630
C          5.20780       -3.60860        1.12650
C          6.27440       -4.14290        1.81670
C          6.48790       -3.82610        3.15480
S          7.86640       -4.57830        3.97220
C          8.19260       -3.43800        5.35030
C          5.60920       -2.96320        3.79170
C          4.52950       -2.44450        3.10760
C          2.84200       -2.53700       -0.19440
C          2.63110       -1.56180       -1.16940
C          2.35580       -1.92370       -2.46930
C          2.27450       -3.26660       -2.82090
S          2.04850       -3.63490       -4.53660
C          1.66510       -5.40980       -4.56170
C          2.41320       -4.24200       -1.84440
C          2.68620       -3.87690       -0.54120
C          3.61360        0.21410        1.57610
S          4.97700        0.60180        0.60280
C          4.70880        2.32280        0.89930
C          3.75430        2.54190        1.89950
N          3.44090        3.76040        2.44770
C          2.16210        3.96140        3.01080
C          1.01010        3.74490        2.25750
C         -0.23160        3.92890        2.82750
C         -0.34520        4.33310        4.15550
S         -1.97360        4.55350        4.79100
C         -1.72900        4.63660        6.58700
C          0.80290        4.56700        4.90190
C          2.04550        4.38130        4.33150
C          4.40990        4.75490        2.63900
C          4.03110        6.09810        2.58810
C          4.97140        7.09000        2.74760
C          6.31150        6.76980        2.96470
S          7.42640        8.12500        3.13210
C          9.06500        7.34570        3.09500
C          6.68560        5.43440        3.04810
C          5.74210        4.43770        2.89000
C          3.08910        1.32640        2.21680
S          1.59070        0.92210        2.99740
C          5.09220        3.15300       -0.19350
C          5.39360        4.49220       -0.36050
C          5.48090        4.85260       -1.70000
S          5.87800        6.50150       -2.21420
C          4.19110        7.21260       -2.31100
C          3.53490        7.33260       -0.95140
C          5.21680        3.81650       -2.60790
S          4.94120        2.33840       -1.73320
C          5.04940        4.00400       -3.98570
C          4.59990        3.10760       -4.92660
C          4.38250        1.67640       -4.69940
O          4.58350        1.04390       -3.67470
C          3.90180        1.11770       -5.96890
C          3.54260       -0.18050       -6.23680
C          3.11840       -0.47820       -7.53440
C          2.70190       -1.72820       -8.07350
C          2.35990       -1.64240       -9.37700
S          2.51980       -0.04740      -10.03220
C          3.07430        0.55410       -8.50020
C          3.43410        1.86970       -8.22470
C          3.85250        2.15030       -6.93830
C          4.25670        3.40330       -6.30350
C          4.22310        4.63900       -6.90040
C          4.44580        5.86960       -6.24930
N          4.56000        6.91510       -5.78630
C          3.89790        4.85190       -8.25550
N          3.65220        5.09300       -9.35100
H         -5.68410       -3.62050        2.78100
H         -6.80680       -0.92970       -2.72710
H         -8.76010       -0.67680       -4.72110
H        -11.05780       -1.77480       -5.30030
H         -9.84560       -4.44620       -0.85260
H         -1.96300       -4.34700       -2.58590
H         -0.77680       -3.17620       -4.37450
H          0.01090       -0.68030       -7.00740
H         -1.31070       -1.62850       -6.28480
H          0.39230       -2.17440       -6.12670
H         -1.28720        0.52170       -2.29770
H         -2.55800       -0.64680       -0.53890
H         -4.54300       -3.28560       -2.63180
H         -6.23370       -4.98050       -3.20800
H         -7.40930       -8.02800        0.33280
H         -8.04570       -9.16150       -0.87310
H         -6.28960       -9.07190       -0.60490
H         -5.21340       -7.18160        0.31680
H         -3.56180       -5.50220        0.89230
H          0.76830       -3.44490        4.29380
H          2.78350       -4.25810        5.37840
H          5.54190       -5.06720        7.61090
H          3.79340       -5.18930        7.32220
H          4.91800       -4.90540        5.95340
H          3.23560       -0.49410        7.36060
H          1.20590        0.33790        6.23420
H         -0.90560       -0.95380        7.15400
H         -2.62740        0.47390        8.17950
H         -4.76160        3.77990        5.27780
H         -6.19660        3.65250        6.32140
H         -5.82160        2.33510        5.18780
H         -3.61890        2.04230        4.32560
H         -1.87550        0.68280        3.32330
H          5.08980       -3.83390        0.07840
H          6.96690       -4.80190        1.31570
H          8.24080       -2.42200        4.97080
H          7.43050       -3.53040        6.11850
H          9.15640       -3.73210        5.75360
H          5.75220       -2.68090        4.82190
H          3.85280       -1.78730        3.63210
H          2.71370       -0.51530       -0.92300
H          2.22950       -1.16130       -3.22160
H          0.82590       -5.61140       -3.90210
H          2.54010       -5.98580       -4.27480
H          1.39580       -5.64340       -5.58750
H          2.32370       -5.29030       -2.08150
H          2.79490       -4.63910        0.21580
H          1.09660        3.43320        1.22710
H         -1.12740        3.76380        2.24940
H         -1.23910        5.56710        6.85880
H         -2.72080        4.60310        7.02720
H         -1.15750        3.77210        6.91200
H          0.74330        4.89260        5.92760
H          2.93780        4.56080        4.91300
H          2.99820        6.35430        2.40650
H          4.68310        8.12850        2.69530
H          9.77670        8.16500        3.07290
H          9.21960        6.75000        3.99020
H          9.16420        6.74550        2.19550
H          7.70830        5.15380        3.24050
H          6.04510        3.40380        2.95690
H          5.57240        5.19160        0.43350
H          3.61010        6.59120       -2.99210
H          4.34830        8.18780       -2.76830
H          4.15850        7.91750       -0.27890
H          3.37750        6.35000       -0.50900
H          2.56970        7.82530       -1.05200
H          5.25300        5.01800       -4.31100
H          3.58370       -0.94250       -5.47400
H          2.67180       -2.63270       -7.49310
H          2.01550       -2.42670      -10.02280
H          3.38260        2.61790       -8.99800
