
  xtb     02082200033D
 energy: -351.792949773813 gnorm: 0.000942025701 xtb: 6.4.1 (unknown)
199218  0     0  0            999 V2000
    2.7478   -2.7673    9.1269 C   0  0  0  0  0  0  0  0  0  0  0  0
    3.9082   -2.5071    9.7795 C   0  0  0  0  0  0  0  0  0  0  0  0
    3.8945   -2.4017   11.2688 C   0  0  0  0  0  0  0  0  0  0  0  0
    3.0089   -2.7493   12.0141 O   0  0  0  0  0  0  0  0  0  0  0  0
    5.1599   -1.7279   11.6182 C   0  0  0  0  0  0  0  0  0  0  0  0
    5.5779   -1.2860   12.8504 C   0  0  0  0  0  0  0  0  0  0  0  0
    6.8199   -0.6482   12.9293 C   0  0  0  0  0  0  0  0  0  0  0  0
    7.4780   -0.1041   14.0686 C   0  0  0  0  0  0  0  0  0  0  0  0
    8.6736    0.4459   13.7653 C   0  0  0  0  0  0  0  0  0  0  0  0
    9.0787    0.3420   12.0864 S   0  0  0  0  0  0  0  0  0  0  0  0
    7.5876   -0.4804   11.7518 C   0  0  0  0  0  0  0  0  0  0  0  0
    7.1707   -0.9353   10.5061 C   0  0  0  0  0  0  0  0  0  0  0  0
    5.9450   -1.5690   10.4470 C   0  0  0  0  0  0  0  0  0  0  0  0
    5.2426   -2.1811    9.3263 C   0  0  0  0  0  0  0  0  0  0  0  0
    5.8139   -2.5704    8.1432 C   0  0  0  0  0  0  0  0  0  0  0  0
    5.1602   -3.3735    7.1881 C   0  0  0  0  0  0  0  0  0  0  0  0
    4.6746   -4.0396    6.3891 N   0  0  0  0  0  0  0  0  0  0  0  0
    7.1358   -2.2621    7.7668 C   0  0  0  0  0  0  0  0  0  0  0  0
    8.1931   -2.0071    7.3987 N   0  0  0  0  0  0  0  0  0  0  0  0
    2.3984   -2.5547    7.7565 C   0  0  0  0  0  0  0  0  0  0  0  0
    1.3510   -3.2730    7.1831 C   0  0  0  0  0  0  0  0  0  0  0  0
    0.7386   -4.2136    7.9138 F   0  0  0  0  0  0  0  0  0  0  0  0
    0.8819   -3.0609    5.8859 C   0  0  0  0  0  0  0  0  0  0  0  0
   -0.1646   -3.7979    5.4742 F   0  0  0  0  0  0  0  0  0  0  0  0
    1.3754   -2.0573    5.0604 C   0  0  0  0  0  0  0  0  0  0  0  0
    2.4995   -1.3584    5.5752 C   0  0  0  0  0  0  0  0  0  0  0  0
    2.9888   -1.5816    6.9084 C   0  0  0  0  0  0  0  0  0  0  0  0
    4.0060   -0.7723    7.1995 N   0  0  0  0  0  0  0  0  0  0  0  0
    4.3612    0.1139    5.8980 S   0  0  0  0  0  0  0  0  0  0  0  0
    3.2128   -0.4438    4.9260 N   0  0  0  0  0  0  0  0  0  0  0  0
    0.7902   -1.7130    3.7992 C   0  0  0  0  0  0  0  0  0  0  0  0
    0.5898   -0.4301    3.2760 C   0  0  0  0  0  0  0  0  0  0  0  0
    0.6260    0.7314    4.0027 N   0  0  0  0  0  0  0  0  0  0  0  0
    0.5803    0.7245    5.4113 C   0  0  0  0  0  0  0  0  0  0  0  0
   -0.3031   -0.0917    6.1175 C   0  0  0  0  0  0  0  0  0  0  0  0
   -0.2064   -0.1909    7.4883 C   0  0  0  0  0  0  0  0  0  0  0  0
    0.7651    0.5296    8.1812 C   0  0  0  0  0  0  0  0  0  0  0  0
    0.9315    0.2192    9.9091 S   0  0  0  0  0  0  0  0  0  0  0  0
    2.6296    0.7676   10.2484 C   0  0  0  0  0  0  0  0  0  0  0  0
    1.5527    1.4441    7.4931 C   0  0  0  0  0  0  0  0  0  0  0  0
    1.4551    1.5427    6.1193 C   0  0  0  0  0  0  0  0  0  0  0  0
    0.5648    1.9904    3.3787 C   0  0  0  0  0  0  0  0  0  0  0  0
   -0.3632    2.9175    3.8442 C   0  0  0  0  0  0  0  0  0  0  0  0
   -0.4713    4.1605    3.2572 C   0  0  0  0  0  0  0  0  0  0  0  0
    0.3555    4.4948    2.1926 C   0  0  0  0  0  0  0  0  0  0  0  0
    0.2687    6.0432    1.3568 S   0  0  0  0  0  0  0  0  0  0  0  0
   -0.9164    7.0157    2.3288 C   0  0  0  0  0  0  0  0  0  0  0  0
    1.3045    3.5805    1.7399 C   0  0  0  0  0  0  0  0  0  0  0  0
    1.4136    2.3384    2.3299 C   0  0  0  0  0  0  0  0  0  0  0  0
    0.1435   -0.5193    1.9326 C   0  0  0  0  0  0  0  0  0  0  0  0
   -0.1705    0.5957    0.6455 S   0  0  0  0  0  0  0  0  0  0  0  0
   -0.6712   -0.7098   -0.4375 C   0  0  0  0  0  0  0  0  0  0  0  0
   -0.6799   -1.9299    0.2220 C   0  0  0  0  0  0  0  0  0  0  0  0
   -1.2030   -3.1560   -0.2161 N   0  0  0  0  0  0  0  0  0  0  0  0
   -2.5950   -3.2853   -0.2090 C   0  0  0  0  0  0  0  0  0  0  0  0
   -3.2398   -4.3749   -0.7918 C   0  0  0  0  0  0  0  0  0  0  0  0
   -4.6171   -4.4287   -0.8746 C   0  0  0  0  0  0  0  0  0  0  0  0
   -5.3945   -3.4001   -0.3638 C   0  0  0  0  0  0  0  0  0  0  0  0
   -7.1544   -3.3459   -0.4851 S   0  0  0  0  0  0  0  0  0  0  0  0
   -7.4905   -4.4276   -1.9042 C   0  0  0  0  0  0  0  0  0  0  0  0
   -4.7648   -2.3479    0.2917 C   0  0  0  0  0  0  0  0  0  0  0  0
   -3.3916   -2.2917    0.3697 C   0  0  0  0  0  0  0  0  0  0  0  0
   -0.2896   -4.2182   -0.2126 C   0  0  0  0  0  0  0  0  0  0  0  0
   -0.6114   -5.5170    0.1724 C   0  0  0  0  0  0  0  0  0  0  0  0
    0.3253   -6.5287    0.0914 C   0  0  0  0  0  0  0  0  0  0  0  0
    1.6170   -6.2590   -0.3379 C   0  0  0  0  0  0  0  0  0  0  0  0
    2.8735   -7.4890   -0.4989 S   0  0  0  0  0  0  0  0  0  0  0  0
    1.9178   -9.0205   -0.6854 C   0  0  0  0  0  0  0  0  0  0  0  0
    1.9706   -4.9460   -0.6338 C   0  0  0  0  0  0  0  0  0  0  0  0
    1.0302   -3.9441   -0.5827 C   0  0  0  0  0  0  0  0  0  0  0  0
   -0.1336   -1.8138    1.5215 C   0  0  0  0  0  0  0  0  0  0  0  0
    0.2204   -2.9852    2.7328 S   0  0  0  0  0  0  0  0  0  0  0  0
   -0.8725   -0.3164   -1.7952 C   0  0  0  0  0  0  0  0  0  0  0  0
   -1.5341   -0.8651   -2.8835 C   0  0  0  0  0  0  0  0  0  0  0  0
   -2.1872   -2.1077   -3.0009 N   0  0  0  0  0  0  0  0  0  0  0  0
   -3.5455   -1.9907   -3.3570 C   0  0  0  0  0  0  0  0  0  0  0  0
   -4.3523   -1.1424   -2.5968 C   0  0  0  0  0  0  0  0  0  0  0  0
   -5.6925   -1.0119   -2.8787 C   0  0  0  0  0  0  0  0  0  0  0  0
   -6.2625   -1.7152   -3.9381 C   0  0  0  0  0  0  0  0  0  0  0  0
   -7.9999   -1.5106   -4.1727 S   0  0  0  0  0  0  0  0  0  0  0  0
   -8.3719   -2.5408   -5.6213 C   0  0  0  0  0  0  0  0  0  0  0  0
   -5.4527   -2.5120   -4.7359 C   0  0  0  0  0  0  0  0  0  0  0  0
   -4.1052   -2.6369   -4.4547 C   0  0  0  0  0  0  0  0  0  0  0  0
   -1.4165   -3.2316   -3.3025 C   0  0  0  0  0  0  0  0  0  0  0  0
   -2.0018   -4.4929   -3.4479 C   0  0  0  0  0  0  0  0  0  0  0  0
   -1.2250   -5.6116   -3.6428 C   0  0  0  0  0  0  0  0  0  0  0  0
    0.1616   -5.5158   -3.7162 C   0  0  0  0  0  0  0  0  0  0  0  0
    1.0442   -7.0322   -3.9093 S   0  0  0  0  0  0  0  0  0  0  0  0
    2.7782   -6.5239   -4.0496 C   0  0  0  0  0  0  0  0  0  0  0  0
    0.7497   -4.2646   -3.6274 C   0  0  0  0  0  0  0  0  0  0  0  0
   -0.0309   -3.1418   -3.4256 C   0  0  0  0  0  0  0  0  0  0  0  0
   -1.4672   -0.0122   -4.0075 C   0  0  0  0  0  0  0  0  0  0  0  0
   -2.1033   -0.1590   -5.6014 S   0  0  0  0  0  0  0  0  0  0  0  0
   -1.3077    1.3512   -6.0734 C   0  0  0  0  0  0  0  0  0  0  0  0
   -0.4754    1.8521   -5.0443 C   0  0  0  0  0  0  0  0  0  0  0  0
    0.5214    2.7652   -5.2076 N   0  0  0  0  0  0  0  0  0  0  0  0
    1.0850    3.0391   -6.4665 C   0  0  0  0  0  0  0  0  0  0  0  0
    1.3664    4.3594   -6.8221 C   0  0  0  0  0  0  0  0  0  0  0  0
    1.8466    4.6513   -8.0792 C   0  0  0  0  0  0  0  0  0  0  0  0
    2.0703    3.6340   -9.0067 C   0  0  0  0  0  0  0  0  0  0  0  0
    2.5867    4.1335  -10.6112 S   0  0  0  0  0  0  0  0  0  0  0  0
    2.6884    2.5860  -11.5514 C   0  0  0  0  0  0  0  0  0  0  0  0
    1.8678    2.3108   -8.6255 C   0  0  0  0  0  0  0  0  0  0  0  0
    1.3776    2.0203   -7.3692 C   0  0  0  0  0  0  0  0  0  0  0  0
    1.1035    3.4196   -4.1045 C   0  0  0  0  0  0  0  0  0  0  0  0
    2.4930    3.4642   -4.0124 C   0  0  0  0  0  0  0  0  0  0  0  0
    3.0936    4.1507   -2.9789 C   0  0  0  0  0  0  0  0  0  0  0  0
    2.3117    4.8015   -2.0342 C   0  0  0  0  0  0  0  0  0  0  0  0
    3.1313    5.7165   -0.7453 S   0  0  0  0  0  0  0  0  0  0  0  0
    2.4238    7.3651   -1.0345 C   0  0  0  0  0  0  0  0  0  0  0  0
    0.9272    4.7334   -2.1048 C   0  0  0  0  0  0  0  0  0  0  0  0
    0.3213    4.0476   -3.1399 C   0  0  0  0  0  0  0  0  0  0  0  0
   -0.6727    1.1144   -3.8537 C   0  0  0  0  0  0  0  0  0  0  0  0
   -0.0741    1.2016   -2.2318 S   0  0  0  0  0  0  0  0  0  0  0  0
   -1.5690    1.8279   -7.3563 C   0  0  0  0  0  0  0  0  0  0  0  0
   -1.4031    3.1286   -7.7903 C   0  0  0  0  0  0  0  0  0  0  0  0
   -1.4391    4.3054   -6.9097 C   0  0  0  0  0  0  0  0  0  0  0  0
   -1.5607    4.3232   -5.6972 O   0  0  0  0  0  0  0  0  0  0  0  0
   -1.4033    5.4763   -7.8100 C   0  0  0  0  0  0  0  0  0  0  0  0
   -1.4089    6.8069   -7.4770 C   0  0  0  0  0  0  0  0  0  0  0  0
   -1.3327    7.7415   -8.5166 C   0  0  0  0  0  0  0  0  0  0  0  0
   -1.3109    9.1629   -8.4452 C   0  0  0  0  0  0  0  0  0  0  0  0
   -1.2278    9.7440   -9.6621 C   0  0  0  0  0  0  0  0  0  0  0  0
   -1.1698    8.6110  -10.9674 S   0  0  0  0  0  0  0  0  0  0  0  0
   -1.2595    7.2841   -9.8519 C   0  0  0  0  0  0  0  0  0  0  0  0
   -1.2596    5.9352  -10.1907 C   0  0  0  0  0  0  0  0  0  0  0  0
   -1.3329    5.0297   -9.1526 C   0  0  0  0  0  0  0  0  0  0  0  0
   -1.3137    3.5723   -9.1518 C   0  0  0  0  0  0  0  0  0  0  0  0
   -1.0792    2.7710  -10.2448 C   0  0  0  0  0  0  0  0  0  0  0  0
   -0.8658    1.3820  -10.1719 C   0  0  0  0  0  0  0  0  0  0  0  0
   -0.6217    0.2586  -10.1926 N   0  0  0  0  0  0  0  0  0  0  0  0
   -0.9278    3.2439  -11.5610 C   0  0  0  0  0  0  0  0  0  0  0  0
   -0.7917    3.5538  -12.6592 N   0  0  0  0  0  0  0  0  0  0  0  0
    1.9408   -3.1297    9.7576 H   0  0  0  0  0  0  0  0  0  0  0  0
    4.9663   -1.4305   13.7276 H   0  0  0  0  0  0  0  0  0  0  0  0
    7.0625   -0.1331   15.0596 H   0  0  0  0  0  0  0  0  0  0  0  0
    9.3680    0.9204   14.4310 H   0  0  0  0  0  0  0  0  0  0  0  0
    7.7860   -0.7833    9.6348 H   0  0  0  0  0  0  0  0  0  0  0  0
   -1.0459   -0.6672    5.5857 H   0  0  0  0  0  0  0  0  0  0  0  0
   -0.8674   -0.8435    8.0370 H   0  0  0  0  0  0  0  0  0  0  0  0
    2.8874    0.3393   11.2123 H   0  0  0  0  0  0  0  0  0  0  0  0
    3.2926    0.3827    9.4781 H   0  0  0  0  0  0  0  0  0  0  0  0
    2.6758    1.8514   10.3064 H   0  0  0  0  0  0  0  0  0  0  0  0
    2.2604    2.0673    8.0156 H   0  0  0  0  0  0  0  0  0  0  0  0
    2.0902    2.2295    5.5790 H   0  0  0  0  0  0  0  0  0  0  0  0
   -1.0116    2.6544    4.6671 H   0  0  0  0  0  0  0  0  0  0  0  0
   -1.2098    4.8497    3.6329 H   0  0  0  0  0  0  0  0  0  0  0  0
   -0.9256    8.0022    1.8752 H   0  0  0  0  0  0  0  0  0  0  0  0
   -1.9070    6.5746    2.2659 H   0  0  0  0  0  0  0  0  0  0  0  0
   -0.5780    7.0881    3.3581 H   0  0  0  0  0  0  0  0  0  0  0  0
    1.9611    3.8579    0.9303 H   0  0  0  0  0  0  0  0  0  0  0  0
    2.1679    1.6421    1.9977 H   0  0  0  0  0  0  0  0  0  0  0  0
   -2.6613   -5.1810   -1.2078 H   0  0  0  0  0  0  0  0  0  0  0  0
   -5.0742   -5.2855   -1.3444 H   0  0  0  0  0  0  0  0  0  0  0  0
   -7.4161   -5.4720   -1.6143 H   0  0  0  0  0  0  0  0  0  0  0  0
   -6.7947   -4.1886   -2.7032 H   0  0  0  0  0  0  0  0  0  0  0  0
   -8.5066   -4.2017   -2.2121 H   0  0  0  0  0  0  0  0  0  0  0  0
   -5.3659   -1.5668    0.7311 H   0  0  0  0  0  0  0  0  0  0  0  0
   -2.9356   -1.4581    0.8817 H   0  0  0  0  0  0  0  0  0  0  0  0
   -1.5887   -5.7408    0.5687 H   0  0  0  0  0  0  0  0  0  0  0  0
    0.0397   -7.5253    0.3875 H   0  0  0  0  0  0  0  0  0  0  0  0
    1.1474   -8.8678   -1.4355 H   0  0  0  0  0  0  0  0  0  0  0  0
    2.6248   -9.7713   -1.0241 H   0  0  0  0  0  0  0  0  0  0  0  0
    1.4937   -9.3213    0.2682 H   0  0  0  0  0  0  0  0  0  0  0  0
    2.9894   -4.7222   -0.9129 H   0  0  0  0  0  0  0  0  0  0  0  0
    1.3129   -2.9341   -0.8387 H   0  0  0  0  0  0  0  0  0  0  0  0
   -3.9174   -0.5930   -1.7765 H   0  0  0  0  0  0  0  0  0  0  0  0
   -6.3183   -0.3720   -2.2766 H   0  0  0  0  0  0  0  0  0  0  0  0
   -8.1282   -3.5793   -5.4154 H   0  0  0  0  0  0  0  0  0  0  0  0
   -7.8328   -2.1729   -6.4892 H   0  0  0  0  0  0  0  0  0  0  0  0
   -9.4406   -2.4398   -5.7829 H   0  0  0  0  0  0  0  0  0  0  0  0
   -5.8511   -3.0324   -5.5922 H   0  0  0  0  0  0  0  0  0  0  0  0
   -3.4837   -3.2248   -5.1123 H   0  0  0  0  0  0  0  0  0  0  0  0
   -3.0720   -4.5992   -3.3907 H   0  0  0  0  0  0  0  0  0  0  0  0
   -1.6888   -6.5822   -3.7366 H   0  0  0  0  0  0  0  0  0  0  0  0
    3.3402   -7.4404   -4.2002 H   0  0  0  0  0  0  0  0  0  0  0  0
    3.0979   -6.0464   -3.1286 H   0  0  0  0  0  0  0  0  0  0  0  0
    2.9018   -5.8684   -4.9067 H   0  0  0  0  0  0  0  0  0  0  0  0
    1.8177   -4.1436   -3.7089 H   0  0  0  0  0  0  0  0  0  0  0  0
    0.4565   -2.1807   -3.3573 H   0  0  0  0  0  0  0  0  0  0  0  0
    1.1839    5.1513   -6.1118 H   0  0  0  0  0  0  0  0  0  0  0  0
    2.0354    5.6738   -8.3677 H   0  0  0  0  0  0  0  0  0  0  0  0
    3.4746    1.9550  -11.1473 H   0  0  0  0  0  0  0  0  0  0  0  0
    1.7286    2.0782  -11.5456 H   0  0  0  0  0  0  0  0  0  0  0  0
    2.9356    2.8825  -12.5660 H   0  0  0  0  0  0  0  0  0  0  0  0
    2.0768    1.4975   -9.3006 H   0  0  0  0  0  0  0  0  0  0  0  0
    1.2122    0.9897   -7.0933 H   0  0  0  0  0  0  0  0  0  0  0  0
    3.0942    2.9688   -4.7606 H   0  0  0  0  0  0  0  0  0  0  0  0
    4.1687    4.1959   -2.9009 H   0  0  0  0  0  0  0  0  0  0  0  0
    1.3507    7.3415   -0.8801 H   0  0  0  0  0  0  0  0  0  0  0  0
    2.8893    8.0239   -0.3095 H   0  0  0  0  0  0  0  0  0  0  0  0
    2.6678    7.6826   -2.0439 H   0  0  0  0  0  0  0  0  0  0  0  0
    0.3248    5.2219   -1.3546 H   0  0  0  0  0  0  0  0  0  0  0  0
   -0.7528    4.0265   -3.2368 H   0  0  0  0  0  0  0  0  0  0  0  0
   -1.9790    1.1035   -8.0503 H   0  0  0  0  0  0  0  0  0  0  0  0
   -1.4622    7.1214   -6.4459 H   0  0  0  0  0  0  0  0  0  0  0  0
   -1.3576    9.7085   -7.5199 H   0  0  0  0  0  0  0  0  0  0  0  0
   -1.1962   10.7915   -9.8908 H   0  0  0  0  0  0  0  0  0  0  0  0
   -1.2055    5.6334  -11.2235 H   0  0  0  0  0  0  0  0  0  0  0  0
  1  2  2  0  0  0  0
  2  3  1  0  0  0  0
  3  4  2  0  0  0  0
  3  5  1  0  0  0  0
  5  6  2  0  0  0  0
  6  7  1  0  0  0  0
  7  8  1  0  0  0  0
  8  9  2  0  0  0  0
  9 10  1  0  0  0  0
 10 11  1  0  0  0  0
 11 12  1  0  0  0  0
 12 13  2  0  0  0  0
 13 14  1  0  0  0  0
 14 15  2  0  0  0  0
 15 16  1  0  0  0  0
 16 17  3  0  0  0  0
 15 18  1  0  0  0  0
 18 19  3  0  0  0  0
  1 20  1  0  0  0  0
 20 21  2  0  0  0  0
 21 22  1  0  0  0  0
 21 23  1  0  0  0  0
 23 24  1  0  0  0  0
 23 25  2  0  0  0  0
 25 26  1  0  0  0  0
 26 27  1  0  0  0  0
 27 28  2  0  0  0  0
 28 29  1  0  0  0  0
 29 30  1  0  0  0  0
 25 31  1  0  0  0  0
 31 32  2  0  0  0  0
 32 33  1  0  0  0  0
 33 34  1  0  0  0  0
 34 35  2  0  0  0  0
 35 36  1  0  0  0  0
 36 37  2  0  0  0  0
 37 38  1  0  0  0  0
 38 39  1  0  0  0  0
 37 40  1  0  0  0  0
 40 41  2  0  0  0  0
 33 42  1  0  0  0  0
 42 43  2  0  0  0  0
 43 44  1  0  0  0  0
 44 45  2  0  0  0  0
 45 46  1  0  0  0  0
 46 47  1  0  0  0  0
 45 48  1  0  0  0  0
 48 49  2  0  0  0  0
 32 50  1  0  0  0  0
 50 51  1  0  0  0  0
 51 52  1  0  0  0  0
 52 53  2  0  0  0  0
 53 54  1  0  0  0  0
 54 55  1  0  0  0  0
 55 56  2  0  0  0  0
 56 57  1  0  0  0  0
 57 58  2  0  0  0  0
 58 59  1  0  0  0  0
 59 60  1  0  0  0  0
 58 61  1  0  0  0  0
 61 62  2  0  0  0  0
 54 63  1  0  0  0  0
 63 64  2  0  0  0  0
 64 65  1  0  0  0  0
 65 66  2  0  0  0  0
 66 67  1  0  0  0  0
 67 68  1  0  0  0  0
 66 69  1  0  0  0  0
 69 70  2  0  0  0  0
 53 71  1  0  0  0  0
 71 72  1  0  0  0  0
 52 73  1  0  0  0  0
 73 74  2  0  0  0  0
 74 75  1  0  0  0  0
 75 76  1  0  0  0  0
 76 77  2  0  0  0  0
 77 78  1  0  0  0  0
 78 79  2  0  0  0  0
 79 80  1  0  0  0  0
 80 81  1  0  0  0  0
 79 82  1  0  0  0  0
 82 83  2  0  0  0  0
 75 84  1  0  0  0  0
 84 85  2  0  0  0  0
 85 86  1  0  0  0  0
 86 87  2  0  0  0  0
 87 88  1  0  0  0  0
 88 89  1  0  0  0  0
 87 90  1  0  0  0  0
 90 91  2  0  0  0  0
 74 92  1  0  0  0  0
 92 93  1  0  0  0  0
 93 94  1  0  0  0  0
 94 95  2  0  0  0  0
 95 96  1  0  0  0  0
 96 97  1  0  0  0  0
 97 98  2  0  0  0  0
 98 99  1  0  0  0  0
 99100  2  0  0  0  0
100101  1  0  0  0  0
101102  1  0  0  0  0
100103  1  0  0  0  0
103104  2  0  0  0  0
 96105  1  0  0  0  0
105106  2  0  0  0  0
106107  1  0  0  0  0
107108  2  0  0  0  0
108109  1  0  0  0  0
109110  1  0  0  0  0
108111  1  0  0  0  0
111112  2  0  0  0  0
 95113  1  0  0  0  0
113114  1  0  0  0  0
 94115  1  0  0  0  0
115116  2  0  0  0  0
116117  1  0  0  0  0
117118  2  0  0  0  0
117119  1  0  0  0  0
119120  2  0  0  0  0
120121  1  0  0  0  0
121122  1  0  0  0  0
122123  2  0  0  0  0
123124  1  0  0  0  0
124125  1  0  0  0  0
125126  1  0  0  0  0
126127  2  0  0  0  0
127128  1  0  0  0  0
128129  2  0  0  0  0
129130  1  0  0  0  0
130131  3  0  0  0  0
129132  1  0  0  0  0
132133  3  0  0  0  0
 14  2  1  0  0  0  0
 27 20  1  0  0  0  0
 72 31  1  0  0  0  0
114 73  1  0  0  0  0
128116  1  0  0  0  0
 13  5  1  0  0  0  0
 30 26  2  0  0  0  0
 41 34  1  0  0  0  0
 49 42  1  0  0  0  0
 71 50  2  0  0  0  0
 83 76  1  0  0  0  0
 91 84  1  0  0  0  0
113 92  2  0  0  0  0
127119  1  0  0  0  0
 11  7  2  0  0  0  0
 62 55  1  0  0  0  0
 70 63  1  0  0  0  0
104 97  1  0  0  0  0
112105  1  0  0  0  0
125121  2  0  0  0  0
  1134  1  0  0  0  0
  6135  1  0  0  0  0
  8136  1  0  0  0  0
  9137  1  0  0  0  0
 12138  1  0  0  0  0
 35139  1  0  0  0  0
 36140  1  0  0  0  0
 39141  1  0  0  0  0
 39142  1  0  0  0  0
 39143  1  0  0  0  0
 40144  1  0  0  0  0
 41145  1  0  0  0  0
 43146  1  0  0  0  0
 44147  1  0  0  0  0
 47148  1  0  0  0  0
 47149  1  0  0  0  0
 47150  1  0  0  0  0
 48151  1  0  0  0  0
 49152  1  0  0  0  0
 56153  1  0  0  0  0
 57154  1  0  0  0  0
 60155  1  0  0  0  0
 60156  1  0  0  0  0
 60157  1  0  0  0  0
 61158  1  0  0  0  0
 62159  1  0  0  0  0
 64160  1  0  0  0  0
 65161  1  0  0  0  0
 68162  1  0  0  0  0
 68163  1  0  0  0  0
 68164  1  0  0  0  0
 69165  1  0  0  0  0
 70166  1  0  0  0  0
 77167  1  0  0  0  0
 78168  1  0  0  0  0
 81169  1  0  0  0  0
 81170  1  0  0  0  0
 81171  1  0  0  0  0
 82172  1  0  0  0  0
 83173  1  0  0  0  0
 85174  1  0  0  0  0
 86175  1  0  0  0  0
 89176  1  0  0  0  0
 89177  1  0  0  0  0
 89178  1  0  0  0  0
 90179  1  0  0  0  0
 91180  1  0  0  0  0
 98181  1  0  0  0  0
 99182  1  0  0  0  0
102183  1  0  0  0  0
102184  1  0  0  0  0
102185  1  0  0  0  0
103186  1  0  0  0  0
104187  1  0  0  0  0
106188  1  0  0  0  0
107189  1  0  0  0  0
110190  1  0  0  0  0
110191  1  0  0  0  0
110192  1  0  0  0  0
111193  1  0  0  0  0
112194  1  0  0  0  0
115195  1  0  0  0  0
120196  1  0  0  0  0
122197  1  0  0  0  0
123198  1  0  0  0  0
126199  1  0  0  0  0
M  END
