
  xtb     02082220133D
 energy: -342.777182758294 gnorm: 0.000697273286 xtb: 6.4.1 (unknown)
202220  0     0  0            999 V2000
   -5.2690   -3.2804    1.8390 C   0  0  0  0  0  0  0  0  0  0  0  0
   -6.0971   -3.2175    0.7410 C   0  0  0  0  0  0  0  0  0  0  0  0
   -5.9271   -2.2474   -0.3549 C   0  0  0  0  0  0  0  0  0  0  0  0
   -5.0315   -1.4342   -0.4867 O   0  0  0  0  0  0  0  0  0  0  0  0
   -7.1419   -2.3730   -1.1859 C   0  0  0  0  0  0  0  0  0  0  0  0
   -7.4663   -1.6848   -2.3274 C   0  0  0  0  0  0  0  0  0  0  0  0
   -8.6739   -2.0018   -2.9606 C   0  0  0  0  0  0  0  0  0  0  0  0
   -9.2358   -1.4513   -4.1468 C   0  0  0  0  0  0  0  0  0  0  0  0
  -10.4261   -2.0059   -4.4648 C   0  0  0  0  0  0  0  0  0  0  0  0
  -10.9400   -3.2269   -3.3531 S   0  0  0  0  0  0  0  0  0  0  0  0
   -9.5042   -3.0019   -2.4043 C   0  0  0  0  0  0  0  0  0  0  0  0
   -9.1793   -3.6950   -1.2433 C   0  0  0  0  0  0  0  0  0  0  0  0
   -7.9847   -3.3698   -0.6344 C   0  0  0  0  0  0  0  0  0  0  0  0
   -7.3377   -3.9161    0.5507 C   0  0  0  0  0  0  0  0  0  0  0  0
   -7.7493   -5.0169    1.2632 C   0  0  0  0  0  0  0  0  0  0  0  0
   -8.9393   -5.7256    1.0162 C   0  0  0  0  0  0  0  0  0  0  0  0
   -9.8889   -6.3554    0.8675 N   0  0  0  0  0  0  0  0  0  0  0  0
   -6.9788   -5.6277    2.2707 C   0  0  0  0  0  0  0  0  0  0  0  0
   -6.3785   -6.2178    3.0534 N   0  0  0  0  0  0  0  0  0  0  0  0
   -3.9254   -2.8870    1.8770 C   0  0  0  0  0  0  0  0  0  0  0  0
   -2.9358   -2.8444    0.8744 C   0  0  0  0  0  0  0  0  0  0  0  0
   -3.0550   -3.2520   -0.4306 N   0  0  0  0  0  0  0  0  0  0  0  0
   -2.3232   -2.5799   -1.4293 C   0  0  0  0  0  0  0  0  0  0  0  0
   -1.8180   -3.2779   -2.5221 C   0  0  0  0  0  0  0  0  0  0  0  0
   -1.1473   -2.6154   -3.5321 C   0  0  0  0  0  0  0  0  0  0  0  0
   -0.9489   -1.2435   -3.4529 C   0  0  0  0  0  0  0  0  0  0  0  0
   -0.1036   -0.3011   -4.6858 S   0  0  0  0  0  0  0  0  0  0  0  0
   -0.2753   -1.3201   -6.1786 C   0  0  0  0  0  0  0  0  0  0  0  0
   -1.4344   -0.5460   -2.3495 C   0  0  0  0  0  0  0  0  0  0  0  0
   -2.1244   -1.2013   -1.3555 C   0  0  0  0  0  0  0  0  0  0  0  0
   -3.9578   -4.2532   -0.8073 C   0  0  0  0  0  0  0  0  0  0  0  0
   -4.6987   -4.1366   -1.9867 C   0  0  0  0  0  0  0  0  0  0  0  0
   -5.6418   -5.0855   -2.3116 C   0  0  0  0  0  0  0  0  0  0  0  0
   -5.8701   -6.1775   -1.4750 C   0  0  0  0  0  0  0  0  0  0  0  0
   -7.1663   -7.2696   -1.9476 S   0  0  0  0  0  0  0  0  0  0  0  0
   -7.2169   -8.5068   -0.6227 C   0  0  0  0  0  0  0  0  0  0  0  0
   -5.0899   -6.3310   -0.3333 C   0  0  0  0  0  0  0  0  0  0  0  0
   -4.1484   -5.3773   -0.0056 C   0  0  0  0  0  0  0  0  0  0  0  0
   -1.7191   -2.3587    1.4058 C   0  0  0  0  0  0  0  0  0  0  0  0
   -0.1364   -2.1193    0.7357 S   0  0  0  0  0  0  0  0  0  0  0  0
    0.4144   -1.4451    2.2594 C   0  0  0  0  0  0  0  0  0  0  0  0
   -0.5533   -1.4900    3.2479 C   0  0  0  0  0  0  0  0  0  0  0  0
   -0.3220   -1.0572    4.5467 N   0  0  0  0  0  0  0  0  0  0  0  0
    0.8364   -1.5017    5.1967 C   0  0  0  0  0  0  0  0  0  0  0  0
    1.3057   -2.7930    4.9663 C   0  0  0  0  0  0  0  0  0  0  0  0
    2.4477   -3.2558    5.5879 C   0  0  0  0  0  0  0  0  0  0  0  0
    3.1413   -2.4319    6.4630 C   0  0  0  0  0  0  0  0  0  0  0  0
    4.6125   -2.9238    7.3109 S   0  0  0  0  0  0  0  0  0  0  0  0
    4.7149   -4.7116    7.0034 C   0  0  0  0  0  0  0  0  0  0  0  0
    2.6842   -1.1354    6.6900 C   0  0  0  0  0  0  0  0  0  0  0  0
    1.5480   -0.6716    6.0628 C   0  0  0  0  0  0  0  0  0  0  0  0
   -1.2747   -0.2413    5.1625 C   0  0  0  0  0  0  0  0  0  0  0  0
   -1.4905   -0.2861    6.5398 C   0  0  0  0  0  0  0  0  0  0  0  0
   -2.4583    0.5078    7.1140 C   0  0  0  0  0  0  0  0  0  0  0  0
   -3.2461    1.3476    6.3295 C   0  0  0  0  0  0  0  0  0  0  0  0
   -4.4613    2.3131    7.1749 S   0  0  0  0  0  0  0  0  0  0  0  0
   -5.3998    3.0989    5.8342 C   0  0  0  0  0  0  0  0  0  0  0  0
   -3.0360    1.3952    4.9591 C   0  0  0  0  0  0  0  0  0  0  0  0
   -2.0501    0.6175    4.3870 C   0  0  0  0  0  0  0  0  0  0  0  0
   -1.7612   -2.0302    2.7549 C   0  0  0  0  0  0  0  0  0  0  0  0
   -3.2921   -2.3904    3.4551 S   0  0  0  0  0  0  0  0  0  0  0  0
    1.6312   -0.7018    2.3009 C   0  0  0  0  0  0  0  0  0  0  0  0
    2.8085   -0.9413    1.6278 C   0  0  0  0  0  0  0  0  0  0  0  0
    3.2063   -2.1878    1.1134 N   0  0  0  0  0  0  0  0  0  0  0  0
    4.3041   -2.7583    1.7663 C   0  0  0  0  0  0  0  0  0  0  0  0
    5.2078   -3.6086    1.1265 C   0  0  0  0  0  0  0  0  0  0  0  0
    6.2744   -4.1429    1.8167 C   0  0  0  0  0  0  0  0  0  0  0  0
    6.4879   -3.8261    3.1548 C   0  0  0  0  0  0  0  0  0  0  0  0
    7.8664   -4.5783    3.9722 S   0  0  0  0  0  0  0  0  0  0  0  0
    8.1926   -3.4380    5.3503 C   0  0  0  0  0  0  0  0  0  0  0  0
    5.6092   -2.9632    3.7917 C   0  0  0  0  0  0  0  0  0  0  0  0
    4.5295   -2.4445    3.1076 C   0  0  0  0  0  0  0  0  0  0  0  0
    2.8420   -2.5370   -0.1944 C   0  0  0  0  0  0  0  0  0  0  0  0
    2.6311   -1.5618   -1.1694 C   0  0  0  0  0  0  0  0  0  0  0  0
    2.3558   -1.9237   -2.4693 C   0  0  0  0  0  0  0  0  0  0  0  0
    2.2745   -3.2666   -2.8209 C   0  0  0  0  0  0  0  0  0  0  0  0
    2.0485   -3.6349   -4.5366 S   0  0  0  0  0  0  0  0  0  0  0  0
    1.6651   -5.4098   -4.5617 C   0  0  0  0  0  0  0  0  0  0  0  0
    2.4132   -4.2420   -1.8444 C   0  0  0  0  0  0  0  0  0  0  0  0
    2.6862   -3.8769   -0.5412 C   0  0  0  0  0  0  0  0  0  0  0  0
    3.6136    0.2141    1.5761 C   0  0  0  0  0  0  0  0  0  0  0  0
    4.9770    0.6018    0.6028 S   0  0  0  0  0  0  0  0  0  0  0  0
    4.7088    2.3228    0.8993 C   0  0  0  0  0  0  0  0  0  0  0  0
    3.7543    2.5419    1.8995 C   0  0  0  0  0  0  0  0  0  0  0  0
    3.4409    3.7604    2.4477 N   0  0  0  0  0  0  0  0  0  0  0  0
    2.1621    3.9614    3.0108 C   0  0  0  0  0  0  0  0  0  0  0  0
    1.0101    3.7449    2.2575 C   0  0  0  0  0  0  0  0  0  0  0  0
   -0.2316    3.9289    2.8275 C   0  0  0  0  0  0  0  0  0  0  0  0
   -0.3452    4.3331    4.1555 C   0  0  0  0  0  0  0  0  0  0  0  0
   -1.9736    4.5535    4.7910 S   0  0  0  0  0  0  0  0  0  0  0  0
   -1.7290    4.6366    6.5870 C   0  0  0  0  0  0  0  0  0  0  0  0
    0.8029    4.5670    4.9019 C   0  0  0  0  0  0  0  0  0  0  0  0
    2.0455    4.3813    4.3315 C   0  0  0  0  0  0  0  0  0  0  0  0
    4.4099    4.7549    2.6390 C   0  0  0  0  0  0  0  0  0  0  0  0
    4.0311    6.0981    2.5881 C   0  0  0  0  0  0  0  0  0  0  0  0
    4.9714    7.0900    2.7476 C   0  0  0  0  0  0  0  0  0  0  0  0
    6.3115    6.7698    2.9647 C   0  0  0  0  0  0  0  0  0  0  0  0
    7.4264    8.1250    3.1321 S   0  0  0  0  0  0  0  0  0  0  0  0
    9.0650    7.3457    3.0950 C   0  0  0  0  0  0  0  0  0  0  0  0
    6.6856    5.4344    3.0481 C   0  0  0  0  0  0  0  0  0  0  0  0
    5.7421    4.4377    2.8900 C   0  0  0  0  0  0  0  0  0  0  0  0
    3.0891    1.3264    2.2168 C   0  0  0  0  0  0  0  0  0  0  0  0
    1.5907    0.9221    2.9974 S   0  0  0  0  0  0  0  0  0  0  0  0
    5.0922    3.1530   -0.1935 C   0  0  0  0  0  0  0  0  0  0  0  0
    5.3936    4.4922   -0.3605 C   0  0  0  0  0  0  0  0  0  0  0  0
    5.4809    4.8526   -1.7000 C   0  0  0  0  0  0  0  0  0  0  0  0
    5.8780    6.5015   -2.2142 S   0  0  0  0  0  0  0  0  0  0  0  0
    4.1911    7.2126   -2.3110 C   0  0  0  0  0  0  0  0  0  0  0  0
    3.5349    7.3326   -0.9514 C   0  0  0  0  0  0  0  0  0  0  0  0
    5.2168    3.8165   -2.6079 C   0  0  0  0  0  0  0  0  0  0  0  0
    4.9412    2.3384   -1.7332 S   0  0  0  0  0  0  0  0  0  0  0  0
    5.0494    4.0040   -3.9857 C   0  0  0  0  0  0  0  0  0  0  0  0
    4.5999    3.1076   -4.9266 C   0  0  0  0  0  0  0  0  0  0  0  0
    4.3825    1.6764   -4.6994 C   0  0  0  0  0  0  0  0  0  0  0  0
    4.5835    1.0439   -3.6747 O   0  0  0  0  0  0  0  0  0  0  0  0
    3.9018    1.1177   -5.9689 C   0  0  0  0  0  0  0  0  0  0  0  0
    3.5426   -0.1805   -6.2368 C   0  0  0  0  0  0  0  0  0  0  0  0
    3.1184   -0.4782   -7.5344 C   0  0  0  0  0  0  0  0  0  0  0  0
    2.7019   -1.7282   -8.0735 C   0  0  0  0  0  0  0  0  0  0  0  0
    2.3599   -1.6424   -9.3770 C   0  0  0  0  0  0  0  0  0  0  0  0
    2.5198   -0.0474  -10.0322 S   0  0  0  0  0  0  0  0  0  0  0  0
    3.0743    0.5541   -8.5002 C   0  0  0  0  0  0  0  0  0  0  0  0
    3.4341    1.8697   -8.2247 C   0  0  0  0  0  0  0  0  0  0  0  0
    3.8525    2.1503   -6.9383 C   0  0  0  0  0  0  0  0  0  0  0  0
    4.2567    3.4033   -6.3035 C   0  0  0  0  0  0  0  0  0  0  0  0
    4.2231    4.6390   -6.9004 C   0  0  0  0  0  0  0  0  0  0  0  0
    4.4458    5.8696   -6.2493 C   0  0  0  0  0  0  0  0  0  0  0  0
    4.5600    6.9151   -5.7863 N   0  0  0  0  0  0  0  0  0  0  0  0
    3.8979    4.8519   -8.2555 C   0  0  0  0  0  0  0  0  0  0  0  0
    3.6522    5.0930   -9.3510 N   0  0  0  0  0  0  0  0  0  0  0  0
   -5.6841   -3.6205    2.7810 H   0  0  0  0  0  0  0  0  0  0  0  0
   -6.8068   -0.9297   -2.7271 H   0  0  0  0  0  0  0  0  0  0  0  0
   -8.7601   -0.6768   -4.7211 H   0  0  0  0  0  0  0  0  0  0  0  0
  -11.0578   -1.7748   -5.3003 H   0  0  0  0  0  0  0  0  0  0  0  0
   -9.8456   -4.4462   -0.8526 H   0  0  0  0  0  0  0  0  0  0  0  0
   -1.9630   -4.3470   -2.5859 H   0  0  0  0  0  0  0  0  0  0  0  0
   -0.7768   -3.1762   -4.3745 H   0  0  0  0  0  0  0  0  0  0  0  0
    0.0109   -0.6803   -7.0074 H   0  0  0  0  0  0  0  0  0  0  0  0
   -1.3107   -1.6285   -6.2848 H   0  0  0  0  0  0  0  0  0  0  0  0
    0.3923   -2.1744   -6.1267 H   0  0  0  0  0  0  0  0  0  0  0  0
   -1.2872    0.5217   -2.2977 H   0  0  0  0  0  0  0  0  0  0  0  0
   -2.5580   -0.6468   -0.5389 H   0  0  0  0  0  0  0  0  0  0  0  0
   -4.5430   -3.2856   -2.6318 H   0  0  0  0  0  0  0  0  0  0  0  0
   -6.2337   -4.9805   -3.2080 H   0  0  0  0  0  0  0  0  0  0  0  0
   -7.4093   -8.0280    0.3328 H   0  0  0  0  0  0  0  0  0  0  0  0
   -8.0457   -9.1615   -0.8731 H   0  0  0  0  0  0  0  0  0  0  0  0
   -6.2896   -9.0719   -0.6049 H   0  0  0  0  0  0  0  0  0  0  0  0
   -5.2134   -7.1816    0.3168 H   0  0  0  0  0  0  0  0  0  0  0  0
   -3.5618   -5.5022    0.8923 H   0  0  0  0  0  0  0  0  0  0  0  0
    0.7683   -3.4449    4.2938 H   0  0  0  0  0  0  0  0  0  0  0  0
    2.7835   -4.2581    5.3784 H   0  0  0  0  0  0  0  0  0  0  0  0
    5.5419   -5.0672    7.6109 H   0  0  0  0  0  0  0  0  0  0  0  0
    3.7934   -5.1893    7.3222 H   0  0  0  0  0  0  0  0  0  0  0  0
    4.9180   -4.9054    5.9534 H   0  0  0  0  0  0  0  0  0  0  0  0
    3.2356   -0.4941    7.3606 H   0  0  0  0  0  0  0  0  0  0  0  0
    1.2059    0.3379    6.2342 H   0  0  0  0  0  0  0  0  0  0  0  0
   -0.9056   -0.9538    7.1540 H   0  0  0  0  0  0  0  0  0  0  0  0
   -2.6274    0.4739    8.1795 H   0  0  0  0  0  0  0  0  0  0  0  0
   -4.7616    3.7799    5.2778 H   0  0  0  0  0  0  0  0  0  0  0  0
   -6.1966    3.6525    6.3214 H   0  0  0  0  0  0  0  0  0  0  0  0
   -5.8216    2.3351    5.1878 H   0  0  0  0  0  0  0  0  0  0  0  0
   -3.6189    2.0423    4.3256 H   0  0  0  0  0  0  0  0  0  0  0  0
   -1.8755    0.6828    3.3233 H   0  0  0  0  0  0  0  0  0  0  0  0
    5.0898   -3.8339    0.0784 H   0  0  0  0  0  0  0  0  0  0  0  0
    6.9669   -4.8019    1.3157 H   0  0  0  0  0  0  0  0  0  0  0  0
    8.2408   -2.4220    4.9708 H   0  0  0  0  0  0  0  0  0  0  0  0
    7.4305   -3.5304    6.1185 H   0  0  0  0  0  0  0  0  0  0  0  0
    9.1564   -3.7321    5.7536 H   0  0  0  0  0  0  0  0  0  0  0  0
    5.7522   -2.6809    4.8219 H   0  0  0  0  0  0  0  0  0  0  0  0
    3.8528   -1.7873    3.6321 H   0  0  0  0  0  0  0  0  0  0  0  0
    2.7137   -0.5153   -0.9230 H   0  0  0  0  0  0  0  0  0  0  0  0
    2.2295   -1.1613   -3.2216 H   0  0  0  0  0  0  0  0  0  0  0  0
    0.8259   -5.6114   -3.9021 H   0  0  0  0  0  0  0  0  0  0  0  0
    2.5401   -5.9858   -4.2748 H   0  0  0  0  0  0  0  0  0  0  0  0
    1.3958   -5.6434   -5.5875 H   0  0  0  0  0  0  0  0  0  0  0  0
    2.3237   -5.2903   -2.0815 H   0  0  0  0  0  0  0  0  0  0  0  0
    2.7949   -4.6391    0.2158 H   0  0  0  0  0  0  0  0  0  0  0  0
    1.0966    3.4332    1.2271 H   0  0  0  0  0  0  0  0  0  0  0  0
   -1.1274    3.7638    2.2494 H   0  0  0  0  0  0  0  0  0  0  0  0
   -1.2391    5.5671    6.8588 H   0  0  0  0  0  0  0  0  0  0  0  0
   -2.7208    4.6031    7.0272 H   0  0  0  0  0  0  0  0  0  0  0  0
   -1.1575    3.7721    6.9120 H   0  0  0  0  0  0  0  0  0  0  0  0
    0.7433    4.8926    5.9276 H   0  0  0  0  0  0  0  0  0  0  0  0
    2.9378    4.5608    4.9130 H   0  0  0  0  0  0  0  0  0  0  0  0
    2.9982    6.3543    2.4065 H   0  0  0  0  0  0  0  0  0  0  0  0
    4.6831    8.1285    2.6953 H   0  0  0  0  0  0  0  0  0  0  0  0
    9.7767    8.1650    3.0729 H   0  0  0  0  0  0  0  0  0  0  0  0
    9.2196    6.7500    3.9902 H   0  0  0  0  0  0  0  0  0  0  0  0
    9.1642    6.7455    2.1955 H   0  0  0  0  0  0  0  0  0  0  0  0
    7.7083    5.1538    3.2405 H   0  0  0  0  0  0  0  0  0  0  0  0
    6.0451    3.4038    2.9569 H   0  0  0  0  0  0  0  0  0  0  0  0
    5.5724    5.1916    0.4335 H   0  0  0  0  0  0  0  0  0  0  0  0
    3.6101    6.5912   -2.9921 H   0  0  0  0  0  0  0  0  0  0  0  0
    4.3483    8.1878   -2.7683 H   0  0  0  0  0  0  0  0  0  0  0  0
    4.1585    7.9175   -0.2789 H   0  0  0  0  0  0  0  0  0  0  0  0
    3.3775    6.3500   -0.5090 H   0  0  0  0  0  0  0  0  0  0  0  0
    2.5697    7.8253   -1.0520 H   0  0  0  0  0  0  0  0  0  0  0  0
    5.2530    5.0180   -4.3110 H   0  0  0  0  0  0  0  0  0  0  0  0
    3.5837   -0.9425   -5.4740 H   0  0  0  0  0  0  0  0  0  0  0  0
    2.6718   -2.6327   -7.4931 H   0  0  0  0  0  0  0  0  0  0  0  0
    2.0155   -2.4267  -10.0228 H   0  0  0  0  0  0  0  0  0  0  0  0
    3.3826    2.6179   -8.9980 H   0  0  0  0  0  0  0  0  0  0  0  0
  1  2  2  0  0  0  0
  2  3  1  0  0  0  0
  3  4  2  0  0  0  0
  3  5  1  0  0  0  0
  5  6  2  0  0  0  0
  6  7  1  0  0  0  0
  7  8  1  0  0  0  0
  8  9  2  0  0  0  0
  9 10  1  0  0  0  0
 10 11  1  0  0  0  0
 11 12  1  0  0  0  0
 12 13  2  0  0  0  0
 13 14  1  0  0  0  0
 14 15  2  0  0  0  0
 15 16  1  0  0  0  0
 16 17  3  0  0  0  0
 15 18  1  0  0  0  0
 18 19  3  0  0  0  0
  1 20  1  0  0  0  0
 20 21  2  0  0  0  0
 21 22  1  0  0  0  0
 22 23  1  0  0  0  0
 23 24  2  0  0  0  0
 24 25  1  0  0  0  0
 25 26  2  0  0  0  0
 26 27  1  0  0  0  0
 27 28  1  0  0  0  0
 26 29  1  0  0  0  0
 29 30  2  0  0  0  0
 22 31  1  0  0  0  0
 31 32  2  0  0  0  0
 32 33  1  0  0  0  0
 33 34  2  0  0  0  0
 34 35  1  0  0  0  0
 35 36  1  0  0  0  0
 34 37  1  0  0  0  0
 37 38  2  0  0  0  0
 21 39  1  0  0  0  0
 39 40  1  0  0  0  0
 40 41  1  0  0  0  0
 41 42  2  0  0  0  0
 42 43  1  0  0  0  0
 43 44  1  0  0  0  0
 44 45  2  0  0  0  0
 45 46  1  0  0  0  0
 46 47  2  0  0  0  0
 47 48  1  0  0  0  0
 48 49  1  0  0  0  0
 47 50  1  0  0  0  0
 50 51  2  0  0  0  0
 43 52  1  0  0  0  0
 52 53  2  0  0  0  0
 53 54  1  0  0  0  0
 54 55  2  0  0  0  0
 55 56  1  0  0  0  0
 56 57  1  0  0  0  0
 55 58  1  0  0  0  0
 58 59  2  0  0  0  0
 42 60  1  0  0  0  0
 60 61  1  0  0  0  0
 41 62  1  0  0  0  0
 62 63  2  0  0  0  0
 63 64  1  0  0  0  0
 64 65  1  0  0  0  0
 65 66  2  0  0  0  0
 66 67  1  0  0  0  0
 67 68  2  0  0  0  0
 68 69  1  0  0  0  0
 69 70  1  0  0  0  0
 68 71  1  0  0  0  0
 71 72  2  0  0  0  0
 64 73  1  0  0  0  0
 73 74  2  0  0  0  0
 74 75  1  0  0  0  0
 75 76  2  0  0  0  0
 76 77  1  0  0  0  0
 77 78  1  0  0  0  0
 76 79  1  0  0  0  0
 79 80  2  0  0  0  0
 63 81  1  0  0  0  0
 81 82  1  0  0  0  0
 82 83  1  0  0  0  0
 83 84  2  0  0  0  0
 84 85  1  0  0  0  0
 85 86  1  0  0  0  0
 86 87  2  0  0  0  0
 87 88  1  0  0  0  0
 88 89  2  0  0  0  0
 89 90  1  0  0  0  0
 90 91  1  0  0  0  0
 89 92  1  0  0  0  0
 92 93  2  0  0  0  0
 85 94  1  0  0  0  0
 94 95  2  0  0  0  0
 95 96  1  0  0  0  0
 96 97  2  0  0  0  0
 97 98  1  0  0  0  0
 98 99  1  0  0  0  0
 97100  1  0  0  0  0
100101  2  0  0  0  0
 84102  1  0  0  0  0
102103  1  0  0  0  0
 83104  1  0  0  0  0
104105  2  0  0  0  0
105106  1  0  0  0  0
106107  1  0  0  0  0
107108  1  0  0  0  0
108109  1  0  0  0  0
106110  2  0  0  0  0
110111  1  0  0  0  0
110112  1  0  0  0  0
112113  2  0  0  0  0
113114  1  0  0  0  0
114115  2  0  0  0  0
114116  1  0  0  0  0
116117  2  0  0  0  0
117118  1  0  0  0  0
118119  1  0  0  0  0
119120  2  0  0  0  0
120121  1  0  0  0  0
121122  1  0  0  0  0
122123  1  0  0  0  0
123124  2  0  0  0  0
124125  1  0  0  0  0
125126  2  0  0  0  0
126127  1  0  0  0  0
127128  3  0  0  0  0
126129  1  0  0  0  0
129130  3  0  0  0  0
 14  2  1  0  0  0  0
 61 20  1  0  0  0  0
103 62  1  0  0  0  0
111104  1  0  0  0  0
125113  1  0  0  0  0
 13  5  1  0  0  0  0
 30 23  1  0  0  0  0
 38 31  1  0  0  0  0
 60 39  2  0  0  0  0
 72 65  1  0  0  0  0
 80 73  1  0  0  0  0
102 81  2  0  0  0  0
124116  1  0  0  0  0
 11  7  2  0  0  0  0
 51 44  1  0  0  0  0
 59 52  1  0  0  0  0
 93 86  1  0  0  0  0
101 94  1  0  0  0  0
122118  2  0  0  0  0
  1131  1  0  0  0  0
  6132  1  0  0  0  0
  8133  1  0  0  0  0
  9134  1  0  0  0  0
 12135  1  0  0  0  0
 24136  1  0  0  0  0
 25137  1  0  0  0  0
 28138  1  0  0  0  0
 28139  1  0  0  0  0
 28140  1  0  0  0  0
 29141  1  0  0  0  0
 30142  1  0  0  0  0
 32143  1  0  0  0  0
 33144  1  0  0  0  0
 36145  1  0  0  0  0
 36146  1  0  0  0  0
 36147  1  0  0  0  0
 37148  1  0  0  0  0
 38149  1  0  0  0  0
 45150  1  0  0  0  0
 46151  1  0  0  0  0
 49152  1  0  0  0  0
 49153  1  0  0  0  0
 49154  1  0  0  0  0
 50155  1  0  0  0  0
 51156  1  0  0  0  0
 53157  1  0  0  0  0
 54158  1  0  0  0  0
 57159  1  0  0  0  0
 57160  1  0  0  0  0
 57161  1  0  0  0  0
 58162  1  0  0  0  0
 59163  1  0  0  0  0
 66164  1  0  0  0  0
 67165  1  0  0  0  0
 70166  1  0  0  0  0
 70167  1  0  0  0  0
 70168  1  0  0  0  0
 71169  1  0  0  0  0
 72170  1  0  0  0  0
 74171  1  0  0  0  0
 75172  1  0  0  0  0
 78173  1  0  0  0  0
 78174  1  0  0  0  0
 78175  1  0  0  0  0
 79176  1  0  0  0  0
 80177  1  0  0  0  0
 87178  1  0  0  0  0
 88179  1  0  0  0  0
 91180  1  0  0  0  0
 91181  1  0  0  0  0
 91182  1  0  0  0  0
 92183  1  0  0  0  0
 93184  1  0  0  0  0
 95185  1  0  0  0  0
 96186  1  0  0  0  0
 99187  1  0  0  0  0
 99188  1  0  0  0  0
 99189  1  0  0  0  0
100190  1  0  0  0  0
101191  1  0  0  0  0
105192  1  0  0  0  0
108193  1  0  0  0  0
108194  1  0  0  0  0
109195  1  0  0  0  0
109196  1  0  0  0  0
109197  1  0  0  0  0
112198  1  0  0  0  0
117199  1  0  0  0  0
119200  1  0  0  0  0
120201  1  0  0  0  0
123202  1  0  0  0  0
M  END
