
  xtb     02162214123D
 energy: -419.885945132228 gnorm: 0.000871982198 xtb: 6.4.1 (unknown)
254277  0     0  0            999 V2000
   -0.1148    5.4710    7.5851 C   0  0  0  0  0  0  0  0  0  0  0  0
    0.4771    6.7103    7.4388 C   0  0  0  0  0  0  0  0  0  0  0  0
    0.3807    7.5213    6.2160 C   0  0  0  0  0  0  0  0  0  0  0  0
   -0.1654    7.2212    5.1699 O   0  0  0  0  0  0  0  0  0  0  0  0
    0.9723    8.8308    6.5610 C   0  0  0  0  0  0  0  0  0  0  0  0
    1.1079    9.9387    5.7641 C   0  0  0  0  0  0  0  0  0  0  0  0
    1.7206   11.0698    6.3168 C   0  0  0  0  0  0  0  0  0  0  0  0
    1.9874   12.3309    5.7123 C   0  0  0  0  0  0  0  0  0  0  0  0
    2.5945   13.1944    6.5550 C   0  0  0  0  0  0  0  0  0  0  0  0
    2.8823   12.5375    8.1293 S   0  0  0  0  0  0  0  0  0  0  0  0
    2.1616   11.0291    7.6585 C   0  0  0  0  0  0  0  0  0  0  0  0
    2.0193    9.9069    8.4684 C   0  0  0  0  0  0  0  0  0  0  0  0
    1.4195    8.8001    7.9046 C   0  0  0  0  0  0  0  0  0  0  0  0
    1.1429    7.4764    8.4513 C   0  0  0  0  0  0  0  0  0  0  0  0
    1.6040    6.9844    9.6505 C   0  0  0  0  0  0  0  0  0  0  0  0
    2.3649    7.7291   10.5678 C   0  0  0  0  0  0  0  0  0  0  0  0
    3.0057    8.2848   11.3436 N   0  0  0  0  0  0  0  0  0  0  0  0
    1.4564    5.6437   10.0526 C   0  0  0  0  0  0  0  0  0  0  0  0
    1.4085    4.5555   10.4198 N   0  0  0  0  0  0  0  0  0  0  0  0
   -0.3804    4.5721    6.5523 C   0  0  0  0  0  0  0  0  0  0  0  0
    0.2114    4.4263    5.2784 C   0  0  0  0  0  0  0  0  0  0  0  0
    1.3227    5.0553    4.8064 N   0  0  0  0  0  0  0  0  0  0  0  0
    2.3272    5.5575    5.6430 C   0  0  0  0  0  0  0  0  0  0  0  0
    2.7208    4.8713    6.7908 C   0  0  0  0  0  0  0  0  0  0  0  0
    3.6970    5.3936    7.6113 C   0  0  0  0  0  0  0  0  0  0  0  0
    4.3056    6.6131    7.3219 C   0  0  0  0  0  0  0  0  0  0  0  0
    5.3223    7.1915    8.2546 C   0  0  0  0  0  0  0  0  0  0  0  0
    3.9333    7.2728    6.1585 C   0  0  0  0  0  0  0  0  0  0  0  0
    2.9622    6.7549    5.3222 C   0  0  0  0  0  0  0  0  0  0  0  0
    1.5203    5.1472    3.4099 C   0  0  0  0  0  0  0  0  0  0  0  0
    0.4899    5.5812    2.5839 C   0  0  0  0  0  0  0  0  0  0  0  0
    0.6867    5.6533    1.2176 C   0  0  0  0  0  0  0  0  0  0  0  0
    1.9040    5.2958    0.6523 C   0  0  0  0  0  0  0  0  0  0  0  0
    2.1247    5.3567   -0.8271 C   0  0  0  0  0  0  0  0  0  0  0  0
    2.9363    4.8912    1.4933 C   0  0  0  0  0  0  0  0  0  0  0  0
    2.7553    4.8183    2.8591 C   0  0  0  0  0  0  0  0  0  0  0  0
   -0.4237    3.3817    4.5635 C   0  0  0  0  0  0  0  0  0  0  0  0
   -0.1335    2.6643    3.0219 S   0  0  0  0  0  0  0  0  0  0  0  0
   -1.2654    1.3645    3.3904 C   0  0  0  0  0  0  0  0  0  0  0  0
   -1.8898    1.5386    4.6041 C   0  0  0  0  0  0  0  0  0  0  0  0
   -2.9145    0.7488    5.1057 N   0  0  0  0  0  0  0  0  0  0  0  0
   -4.0118    1.4016    5.6852 C   0  0  0  0  0  0  0  0  0  0  0  0
   -4.4685    2.6032    5.1473 C   0  0  0  0  0  0  0  0  0  0  0  0
   -5.5325    3.2652    5.7260 C   0  0  0  0  0  0  0  0  0  0  0  0
   -6.1790    2.7481    6.8415 C   0  0  0  0  0  0  0  0  0  0  0  0
   -7.3193    3.4817    7.4785 C   0  0  0  0  0  0  0  0  0  0  0  0
   -5.7239    1.5439    7.3652 C   0  0  0  0  0  0  0  0  0  0  0  0
   -4.6531    0.8776    6.8046 C   0  0  0  0  0  0  0  0  0  0  0  0
   -2.7797   -0.6430    5.1943 C   0  0  0  0  0  0  0  0  0  0  0  0
   -3.8717   -1.4742    4.9615 C   0  0  0  0  0  0  0  0  0  0  0  0
   -3.7536   -2.8385    5.1416 C   0  0  0  0  0  0  0  0  0  0  0  0
   -2.5535   -3.4102    5.5478 C   0  0  0  0  0  0  0  0  0  0  0  0
   -2.4477   -4.8805    5.8092 C   0  0  0  0  0  0  0  0  0  0  0  0
   -1.4599   -2.5745    5.7411 C   0  0  0  0  0  0  0  0  0  0  0  0
   -1.5652   -1.2089    5.5695 C   0  0  0  0  0  0  0  0  0  0  0  0
   -1.3856    2.6855    5.2744 C   0  0  0  0  0  0  0  0  0  0  0  0
   -1.6074    3.3273    6.8584 S   0  0  0  0  0  0  0  0  0  0  0  0
   -1.4810    0.3756    2.3583 C   0  0  0  0  0  0  0  0  0  0  0  0
   -0.7937   -0.7854    2.0826 C   0  0  0  0  0  0  0  0  0  0  0  0
    0.1765   -1.3799    2.8827 N   0  0  0  0  0  0  0  0  0  0  0  0
    1.2268   -0.5818    3.3665 C   0  0  0  0  0  0  0  0  0  0  0  0
    1.7819    0.4080    2.5557 C   0  0  0  0  0  0  0  0  0  0  0  0
    2.7612    1.2452    3.0441 C   0  0  0  0  0  0  0  0  0  0  0  0
    3.2212    1.1045    4.3507 C   0  0  0  0  0  0  0  0  0  0  0  0
    4.4456    2.2632    4.8852 S   0  0  0  0  0  0  0  0  0  0  0  0
    4.7893    1.7969    6.6032 C   0  0  0  0  0  0  0  0  0  0  0  0
    2.7126    0.0854    5.1454 C   0  0  0  0  0  0  0  0  0  0  0  0
    1.7278   -0.7506    4.6543 C   0  0  0  0  0  0  0  0  0  0  0  0
    0.2166   -2.7747    2.9494 C   0  0  0  0  0  0  0  0  0  0  0  0
   -0.9594   -3.5128    2.7922 C   0  0  0  0  0  0  0  0  0  0  0  0
   -0.9295   -4.8871    2.8212 C   0  0  0  0  0  0  0  0  0  0  0  0
    0.2645   -5.5693    3.0451 C   0  0  0  0  0  0  0  0  0  0  0  0
    0.1561   -7.3296    3.1028 S   0  0  0  0  0  0  0  0  0  0  0  0
    1.8530   -7.8793    3.4276 C   0  0  0  0  0  0  0  0  0  0  0  0
    1.4320   -4.8420    3.2248 C   0  0  0  0  0  0  0  0  0  0  0  0
    1.4093   -3.4614    3.1595 C   0  0  0  0  0  0  0  0  0  0  0  0
   -1.1402   -1.2877    0.8015 C   0  0  0  0  0  0  0  0  0  0  0  0
   -0.5027   -2.5653   -0.1568 S   0  0  0  0  0  0  0  0  0  0  0  0
   -1.3289   -1.9379   -1.5787 C   0  0  0  0  0  0  0  0  0  0  0  0
   -2.1561   -0.8623   -1.2782 C   0  0  0  0  0  0  0  0  0  0  0  0
   -2.8854   -0.0986   -2.1846 N   0  0  0  0  0  0  0  0  0  0  0  0
   -3.9075   -0.6396   -2.9722 C   0  0  0  0  0  0  0  0  0  0  0  0
   -4.5659   -1.8137   -2.6170 C   0  0  0  0  0  0  0  0  0  0  0  0
   -5.6509   -2.2573   -3.3499 C   0  0  0  0  0  0  0  0  0  0  0  0
   -6.0992   -1.5297   -4.4428 C   0  0  0  0  0  0  0  0  0  0  0  0
   -7.5594   -1.9353   -5.3511 S   0  0  0  0  0  0  0  0  0  0  0  0
   -8.5645   -2.8109   -4.1194 C   0  0  0  0  0  0  0  0  0  0  0  0
   -5.3902   -0.4014   -4.8500 C   0  0  0  0  0  0  0  0  0  0  0  0
   -4.3063    0.0375   -4.1271 C   0  0  0  0  0  0  0  0  0  0  0  0
   -2.8435    1.2901   -1.9528 C   0  0  0  0  0  0  0  0  0  0  0  0
   -1.6078    1.8947   -1.7235 C   0  0  0  0  0  0  0  0  0  0  0  0
   -1.5359    3.2138   -1.3265 C   0  0  0  0  0  0  0  0  0  0  0  0
   -2.7023    3.9450   -1.1745 C   0  0  0  0  0  0  0  0  0  0  0  0
   -2.6315    5.5952   -0.4975 S   0  0  0  0  0  0  0  0  0  0  0  0
   -2.9687    5.1295    1.2316 C   0  0  0  0  0  0  0  0  0  0  0  0
   -3.9300    3.3776   -1.4775 C   0  0  0  0  0  0  0  0  0  0  0  0
   -4.0052    2.0538   -1.8607 C   0  0  0  0  0  0  0  0  0  0  0  0
   -2.0220   -0.4987    0.0880 C   0  0  0  0  0  0  0  0  0  0  0  0
   -2.5574    0.8425    1.0406 S   0  0  0  0  0  0  0  0  0  0  0  0
   -0.8743   -2.4055   -2.8477 C   0  0  0  0  0  0  0  0  0  0  0  0
    0.4362   -2.7970   -3.1041 C   0  0  0  0  0  0  0  0  0  0  0  0
    1.4515   -2.9179   -2.1349 N   0  0  0  0  0  0  0  0  0  0  0  0
    1.7543   -4.2037   -1.6555 C   0  0  0  0  0  0  0  0  0  0  0  0
    1.5122   -5.3366   -2.4275 C   0  0  0  0  0  0  0  0  0  0  0  0
    1.8582   -6.5960   -1.9775 C   0  0  0  0  0  0  0  0  0  0  0  0
    2.4598   -6.7519   -0.7389 C   0  0  0  0  0  0  0  0  0  0  0  0
    3.0166   -8.3043   -0.1104 S   0  0  0  0  0  0  0  0  0  0  0  0
    3.0046   -9.3827   -1.5672 C   0  0  0  0  0  0  0  0  0  0  0  0
    2.6274   -5.6333    0.0730 C   0  0  0  0  0  0  0  0  0  0  0  0
    2.2623   -4.3820   -0.3667 C   0  0  0  0  0  0  0  0  0  0  0  0
    2.1668   -1.7809   -1.7558 C   0  0  0  0  0  0  0  0  0  0  0  0
    3.4723   -1.8669   -1.2710 C   0  0  0  0  0  0  0  0  0  0  0  0
    4.1392   -0.7479   -0.8137 C   0  0  0  0  0  0  0  0  0  0  0  0
    3.5229    0.4949   -0.8396 C   0  0  0  0  0  0  0  0  0  0  0  0
    4.2673    1.9790   -0.2321 S   0  0  0  0  0  0  0  0  0  0  0  0
    5.6140    1.3744    0.8240 C   0  0  0  0  0  0  0  0  0  0  0  0
    2.2575    0.6063   -1.4053 C   0  0  0  0  0  0  0  0  0  0  0  0
    1.5960   -0.5101   -1.8677 C   0  0  0  0  0  0  0  0  0  0  0  0
    0.6309   -3.0573   -4.4692 C   0  0  0  0  0  0  0  0  0  0  0  0
    2.0014   -3.5246   -5.4045 S   0  0  0  0  0  0  0  0  0  0  0  0
    1.0037   -3.6272   -6.8616 C   0  0  0  0  0  0  0  0  0  0  0  0
   -0.3213   -3.2142   -6.6161 C   0  0  0  0  0  0  0  0  0  0  0  0
   -1.3537   -3.2086   -7.5152 N   0  0  0  0  0  0  0  0  0  0  0  0
   -1.1400   -2.9075   -8.8639 C   0  0  0  0  0  0  0  0  0  0  0  0
   -0.2380   -1.9018   -9.2141 C   0  0  0  0  0  0  0  0  0  0  0  0
    0.0907   -1.6853  -10.5356 C   0  0  0  0  0  0  0  0  0  0  0  0
   -0.4893   -2.4629  -11.5313 C   0  0  0  0  0  0  0  0  0  0  0  0
   -0.0194   -2.3174  -13.2250 S   0  0  0  0  0  0  0  0  0  0  0  0
    1.7594   -1.9663  -13.0708 C   0  0  0  0  0  0  0  0  0  0  0  0
   -1.4633   -3.3984  -11.1923 C   0  0  0  0  0  0  0  0  0  0  0  0
   -1.7849   -3.6245   -9.8717 C   0  0  0  0  0  0  0  0  0  0  0  0
   -2.6092   -3.6868   -7.0852 C   0  0  0  0  0  0  0  0  0  0  0  0
   -3.7847   -3.0585   -7.4882 C   0  0  0  0  0  0  0  0  0  0  0  0
   -5.0034   -3.5588   -7.0860 C   0  0  0  0  0  0  0  0  0  0  0  0
   -5.0665   -4.6830   -6.2643 C   0  0  0  0  0  0  0  0  0  0  0  0
   -6.6714   -5.2527   -5.8116 S   0  0  0  0  0  0  0  0  0  0  0  0
   -6.3662   -6.8953   -5.0962 C   0  0  0  0  0  0  0  0  0  0  0  0
   -3.8941   -5.2994   -5.8489 C   0  0  0  0  0  0  0  0  0  0  0  0
   -2.6736   -4.8098   -6.2657 C   0  0  0  0  0  0  0  0  0  0  0  0
   -0.5097   -2.9232   -5.2464 C   0  0  0  0  0  0  0  0  0  0  0  0
   -1.8584   -2.3946   -4.2929 S   0  0  0  0  0  0  0  0  0  0  0  0
    1.5732   -4.0966   -8.0514 C   0  0  0  0  0  0  0  0  0  0  0  0
    2.6798   -4.8972   -8.1998 C   0  0  0  0  0  0  0  0  0  0  0  0
    3.4425   -4.8540   -9.4639 C   0  0  0  0  0  0  0  0  0  0  0  0
    3.1187   -4.2938  -10.4934 O   0  0  0  0  0  0  0  0  0  0  0  0
    4.7022   -5.5731   -9.1823 C   0  0  0  0  0  0  0  0  0  0  0  0
    5.7946   -5.7439   -9.9958 C   0  0  0  0  0  0  0  0  0  0  0  0
    6.8871   -6.4548   -9.4851 C   0  0  0  0  0  0  0  0  0  0  0  0
    8.1263   -6.7651  -10.1137 C   0  0  0  0  0  0  0  0  0  0  0  0
    8.9555   -7.4679   -9.3120 C   0  0  0  0  0  0  0  0  0  0  0  0
    8.2911   -7.7991   -7.7495 S   0  0  0  0  0  0  0  0  0  0  0  0
    6.8272   -6.9655   -8.1678 C   0  0  0  0  0  0  0  0  0  0  0  0
    5.7176   -6.8032   -7.3451 C   0  0  0  0  0  0  0  0  0  0  0  0
    4.6512   -6.0996   -7.8651 C   0  0  0  0  0  0  0  0  0  0  0  0
    3.3464   -5.7902   -7.2928 C   0  0  0  0  0  0  0  0  0  0  0  0
    2.7664   -6.4419   -6.2259 C   0  0  0  0  0  0  0  0  0  0  0  0
    1.3922   -6.3584   -5.9436 C   0  0  0  0  0  0  0  0  0  0  0  0
    0.2645   -6.3652   -5.7178 N   0  0  0  0  0  0  0  0  0  0  0  0
    3.4306   -7.3251   -5.3600 C   0  0  0  0  0  0  0  0  0  0  0  0
    3.9087   -8.0385   -4.5954 N   0  0  0  0  0  0  0  0  0  0  0  0
   -0.4357    5.1639    8.5735 H   0  0  0  0  0  0  0  0  0  0  0  0
    0.7592    9.9348    4.7428 H   0  0  0  0  0  0  0  0  0  0  0  0
    1.7284   12.5642    4.6952 H   0  0  0  0  0  0  0  0  0  0  0  0
    2.9021   14.2028    6.3570 H   0  0  0  0  0  0  0  0  0  0  0  0
    2.3621    9.9260    9.4898 H   0  0  0  0  0  0  0  0  0  0  0  0
    2.2526    3.9303    7.0385 H   0  0  0  0  0  0  0  0  0  0  0  0
    3.9873    4.8533    8.5010 H   0  0  0  0  0  0  0  0  0  0  0  0
    5.8196    8.0478    7.8068 H   0  0  0  0  0  0  0  0  0  0  0  0
    6.0706    6.4464    8.5184 H   0  0  0  0  0  0  0  0  0  0  0  0
    4.8442    7.5181    9.1785 H   0  0  0  0  0  0  0  0  0  0  0  0
    4.3997    8.2140    5.9059 H   0  0  0  0  0  0  0  0  0  0  0  0
    2.6792    7.2800    4.4224 H   0  0  0  0  0  0  0  0  0  0  0  0
   -0.4434    5.8878    3.0297 H   0  0  0  0  0  0  0  0  0  0  0  0
   -0.1152    6.0011    0.5831 H   0  0  0  0  0  0  0  0  0  0  0  0
    1.1955    5.5579   -1.3549 H   0  0  0  0  0  0  0  0  0  0  0  0
    2.5486    4.4184   -1.1826 H   0  0  0  0  0  0  0  0  0  0  0  0
    2.8334    6.1483   -1.0688 H   0  0  0  0  0  0  0  0  0  0  0  0
    3.8898    4.6201    1.0648 H   0  0  0  0  0  0  0  0  0  0  0  0
    3.5593    4.4959    3.5039 H   0  0  0  0  0  0  0  0  0  0  0  0
   -3.9882    3.0136    4.2702 H   0  0  0  0  0  0  0  0  0  0  0  0
   -5.8708    4.1980    5.2980 H   0  0  0  0  0  0  0  0  0  0  0  0
   -6.9427    4.1650    8.2407 H   0  0  0  0  0  0  0  0  0  0  0  0
   -8.0069    2.7894    7.9588 H   0  0  0  0  0  0  0  0  0  0  0  0
   -7.8641    4.0679    6.7420 H   0  0  0  0  0  0  0  0  0  0  0  0
   -6.2086    1.1251    8.2354 H   0  0  0  0  0  0  0  0  0  0  0  0
   -4.3037   -0.0487    7.2355 H   0  0  0  0  0  0  0  0  0  0  0  0
   -4.8133   -1.0400    4.6589 H   0  0  0  0  0  0  0  0  0  0  0  0
   -4.6126   -3.4712    4.9701 H   0  0  0  0  0  0  0  0  0  0  0  0
   -2.5958   -5.0797    6.8718 H   0  0  0  0  0  0  0  0  0  0  0  0
   -3.2043   -5.4307    5.2551 H   0  0  0  0  0  0  0  0  0  0  0  0
   -1.4658   -5.2551    5.5291 H   0  0  0  0  0  0  0  0  0  0  0  0
   -0.5187   -3.0054    6.0524 H   0  0  0  0  0  0  0  0  0  0  0  0
   -0.7211   -0.5603    5.7519 H   0  0  0  0  0  0  0  0  0  0  0  0
    1.4343    0.5267    1.5395 H   0  0  0  0  0  0  0  0  0  0  0  0
    3.1594    2.0298    2.4206 H   0  0  0  0  0  0  0  0  0  0  0  0
    5.2126    0.7971    6.6412 H   0  0  0  0  0  0  0  0  0  0  0  0
    5.5168    2.5202    6.9583 H   0  0  0  0  0  0  0  0  0  0  0  0
    3.8840    1.8671    7.1985 H   0  0  0  0  0  0  0  0  0  0  0  0
    3.0649   -0.0645    6.1535 H   0  0  0  0  0  0  0  0  0  0  0  0
    1.3412   -1.5421    5.2772 H   0  0  0  0  0  0  0  0  0  0  0  0
   -1.9005   -3.0017    2.6586 H   0  0  0  0  0  0  0  0  0  0  0  0
   -1.8381   -5.4527    2.6862 H   0  0  0  0  0  0  0  0  0  0  0  0
    2.2144   -7.4449    4.3551 H   0  0  0  0  0  0  0  0  0  0  0  0
    2.4923   -7.6292    2.5861 H   0  0  0  0  0  0  0  0  0  0  0  0
    1.7930   -8.9586    3.5255 H   0  0  0  0  0  0  0  0  0  0  0  0
    2.3721   -5.3370    3.4085 H   0  0  0  0  0  0  0  0  0  0  0  0
    2.3329   -2.9124    3.2706 H   0  0  0  0  0  0  0  0  0  0  0  0
   -4.2447   -2.3659   -1.7457 H   0  0  0  0  0  0  0  0  0  0  0  0
   -6.1561   -3.1606   -3.0470 H   0  0  0  0  0  0  0  0  0  0  0  0
   -9.5734   -2.8256   -4.5189 H   0  0  0  0  0  0  0  0  0  0  0  0
   -8.5394   -2.2636   -3.1823 H   0  0  0  0  0  0  0  0  0  0  0  0
   -8.2058   -3.8284   -3.9976 H   0  0  0  0  0  0  0  0  0  0  0  0
   -5.7173    0.1362   -5.7263 H   0  0  0  0  0  0  0  0  0  0  0  0
   -3.7727    0.9251   -4.4318 H   0  0  0  0  0  0  0  0  0  0  0  0
   -0.7052    1.3105   -1.8145 H   0  0  0  0  0  0  0  0  0  0  0  0
   -0.5822    3.6683   -1.1066 H   0  0  0  0  0  0  0  0  0  0  0  0
   -2.2129    4.4219    1.5618 H   0  0  0  0  0  0  0  0  0  0  0  0
   -2.9177    6.0410    1.8176 H   0  0  0  0  0  0  0  0  0  0  0  0
   -3.9602    4.6908    1.2996 H   0  0  0  0  0  0  0  0  0  0  0  0
   -4.8301    3.9653   -1.3785 H   0  0  0  0  0  0  0  0  0  0  0  0
   -4.9649    1.5980   -2.0521 H   0  0  0  0  0  0  0  0  0  0  0  0
    1.0445   -5.2564   -3.3950 H   0  0  0  0  0  0  0  0  0  0  0  0
    1.6609   -7.4422   -2.6152 H   0  0  0  0  0  0  0  0  0  0  0  0
    1.9816   -9.6348   -1.8335 H   0  0  0  0  0  0  0  0  0  0  0  0
    3.5393  -10.2805   -1.2727 H   0  0  0  0  0  0  0  0  0  0  0  0
    3.5174   -8.8944   -2.3910 H   0  0  0  0  0  0  0  0  0  0  0  0
    3.0549   -5.7518    1.0559 H   0  0  0  0  0  0  0  0  0  0  0  0
    2.3700   -3.5352    0.2933 H   0  0  0  0  0  0  0  0  0  0  0  0
    3.9786   -2.8194   -1.2608 H   0  0  0  0  0  0  0  0  0  0  0  0
    5.1467   -0.8601   -0.4456 H   0  0  0  0  0  0  0  0  0  0  0  0
    5.2314    0.6091    1.4927 H   0  0  0  0  0  0  0  0  0  0  0  0
    6.4304    0.9973    0.2144 H   0  0  0  0  0  0  0  0  0  0  0  0
    5.9503    2.2312    1.4001 H   0  0  0  0  0  0  0  0  0  0  0  0
    1.7953    1.5802   -1.4713 H   0  0  0  0  0  0  0  0  0  0  0  0
    0.6224   -0.3970   -2.3175 H   0  0  0  0  0  0  0  0  0  0  0  0
    0.2243   -1.3091   -8.4382 H   0  0  0  0  0  0  0  0  0  0  0  0
    0.8064   -0.9183  -10.7840 H   0  0  0  0  0  0  0  0  0  0  0  0
    2.1840   -2.6143  -12.3091 H   0  0  0  0  0  0  0  0  0  0  0  0
    2.1917   -2.1943  -14.0400 H   0  0  0  0  0  0  0  0  0  0  0  0
    1.9227   -0.9184  -12.8364 H   0  0  0  0  0  0  0  0  0  0  0  0
   -1.9339   -3.9737  -11.9741 H   0  0  0  0  0  0  0  0  0  0  0  0
   -2.5033   -4.3862   -9.6099 H   0  0  0  0  0  0  0  0  0  0  0  0
   -3.7367   -2.1872   -8.1237 H   0  0  0  0  0  0  0  0  0  0  0  0
   -5.9191   -3.0829   -7.3992 H   0  0  0  0  0  0  0  0  0  0  0  0
   -7.3478   -7.3326   -4.9407 H   0  0  0  0  0  0  0  0  0  0  0  0
   -5.7997   -7.5006   -5.7973 H   0  0  0  0  0  0  0  0  0  0  0  0
   -5.8492   -6.8067   -4.1450 H   0  0  0  0  0  0  0  0  0  0  0  0
   -3.9121   -6.1692   -5.2130 H   0  0  0  0  0  0  0  0  0  0  0  0
   -1.7665   -5.3151   -5.9698 H   0  0  0  0  0  0  0  0  0  0  0  0
    1.1529   -3.7424   -8.9852 H   0  0  0  0  0  0  0  0  0  0  0  0
    5.8086   -5.3451  -10.9984 H   0  0  0  0  0  0  0  0  0  0  0  0
    8.3692   -6.4682  -11.1180 H   0  0  0  0  0  0  0  0  0  0  0  0
    9.9416   -7.8261   -9.5353 H   0  0  0  0  0  0  0  0  0  0  0  0
    5.7123   -7.2057   -6.3450 H   0  0  0  0  0  0  0  0  0  0  0  0
  1  2  2  0  0  0  0
  2  3  1  0  0  0  0
  3  4  2  0  0  0  0
  3  5  1  0  0  0  0
  5  6  2  0  0  0  0
  6  7  1  0  0  0  0
  7  8  1  0  0  0  0
  8  9  2  0  0  0  0
  9 10  1  0  0  0  0
 10 11  1  0  0  0  0
 11 12  1  0  0  0  0
 12 13  2  0  0  0  0
 13 14  1  0  0  0  0
 14 15  2  0  0  0  0
 15 16  1  0  0  0  0
 16 17  3  0  0  0  0
 15 18  1  0  0  0  0
 18 19  3  0  0  0  0
  1 20  1  0  0  0  0
 20 21  2  0  0  0  0
 21 22  1  0  0  0  0
 22 23  1  0  0  0  0
 23 24  2  0  0  0  0
 24 25  1  0  0  0  0
 25 26  2  0  0  0  0
 26 27  1  0  0  0  0
 26 28  1  0  0  0  0
 28 29  2  0  0  0  0
 22 30  1  0  0  0  0
 30 31  2  0  0  0  0
 31 32  1  0  0  0  0
 32 33  2  0  0  0  0
 33 34  1  0  0  0  0
 33 35  1  0  0  0  0
 35 36  2  0  0  0  0
 21 37  1  0  0  0  0
 37 38  1  0  0  0  0
 38 39  1  0  0  0  0
 39 40  2  0  0  0  0
 40 41  1  0  0  0  0
 41 42  1  0  0  0  0
 42 43  2  0  0  0  0
 43 44  1  0  0  0  0
 44 45  2  0  0  0  0
 45 46  1  0  0  0  0
 45 47  1  0  0  0  0
 47 48  2  0  0  0  0
 41 49  1  0  0  0  0
 49 50  2  0  0  0  0
 50 51  1  0  0  0  0
 51 52  2  0  0  0  0
 52 53  1  0  0  0  0
 52 54  1  0  0  0  0
 54 55  2  0  0  0  0
 40 56  1  0  0  0  0
 56 57  1  0  0  0  0
 39 58  1  0  0  0  0
 58 59  2  0  0  0  0
 59 60  1  0  0  0  0
 60 61  1  0  0  0  0
 61 62  2  0  0  0  0
 62 63  1  0  0  0  0
 63 64  2  0  0  0  0
 64 65  1  0  0  0  0
 65 66  1  0  0  0  0
 64 67  1  0  0  0  0
 67 68  2  0  0  0  0
 60 69  1  0  0  0  0
 69 70  2  0  0  0  0
 70 71  1  0  0  0  0
 71 72  2  0  0  0  0
 72 73  1  0  0  0  0
 73 74  1  0  0  0  0
 72 75  1  0  0  0  0
 75 76  2  0  0  0  0
 59 77  1  0  0  0  0
 77 78  1  0  0  0  0
 78 79  1  0  0  0  0
 79 80  2  0  0  0  0
 80 81  1  0  0  0  0
 81 82  1  0  0  0  0
 82 83  2  0  0  0  0
 83 84  1  0  0  0  0
 84 85  2  0  0  0  0
 85 86  1  0  0  0  0
 86 87  1  0  0  0  0
 85 88  1  0  0  0  0
 88 89  2  0  0  0  0
 81 90  1  0  0  0  0
 90 91  2  0  0  0  0
 91 92  1  0  0  0  0
 92 93  2  0  0  0  0
 93 94  1  0  0  0  0
 94 95  1  0  0  0  0
 93 96  1  0  0  0  0
 96 97  2  0  0  0  0
 80 98  1  0  0  0  0
 98 99  1  0  0  0  0
 79100  1  0  0  0  0
100101  2  0  0  0  0
101102  1  0  0  0  0
102103  1  0  0  0  0
103104  2  0  0  0  0
104105  1  0  0  0  0
105106  2  0  0  0  0
106107  1  0  0  0  0
107108  1  0  0  0  0
106109  1  0  0  0  0
109110  2  0  0  0  0
102111  1  0  0  0  0
111112  2  0  0  0  0
112113  1  0  0  0  0
113114  2  0  0  0  0
114115  1  0  0  0  0
115116  1  0  0  0  0
114117  1  0  0  0  0
117118  2  0  0  0  0
101119  1  0  0  0  0
119120  1  0  0  0  0
120121  1  0  0  0  0
121122  2  0  0  0  0
122123  1  0  0  0  0
123124  1  0  0  0  0
124125  2  0  0  0  0
125126  1  0  0  0  0
126127  2  0  0  0  0
127128  1  0  0  0  0
128129  1  0  0  0  0
127130  1  0  0  0  0
130131  2  0  0  0  0
123132  1  0  0  0  0
132133  2  0  0  0  0
133134  1  0  0  0  0
134135  2  0  0  0  0
135136  1  0  0  0  0
136137  1  0  0  0  0
135138  1  0  0  0  0
138139  2  0  0  0  0
122140  1  0  0  0  0
140141  1  0  0  0  0
121142  1  0  0  0  0
142143  2  0  0  0  0
143144  1  0  0  0  0
144145  2  0  0  0  0
144146  1  0  0  0  0
146147  2  0  0  0  0
147148  1  0  0  0  0
148149  1  0  0  0  0
149150  2  0  0  0  0
150151  1  0  0  0  0
151152  1  0  0  0  0
152153  1  0  0  0  0
153154  2  0  0  0  0
154155  1  0  0  0  0
155156  2  0  0  0  0
156157  1  0  0  0  0
157158  3  0  0  0  0
156159  1  0  0  0  0
159160  3  0  0  0  0
 14  2  1  0  0  0  0
 57 20  1  0  0  0  0
 99 58  1  0  0  0  0
141100  1  0  0  0  0
155143  1  0  0  0  0
 13  5  1  0  0  0  0
 29 23  1  0  0  0  0
 36 30  1  0  0  0  0
 56 37  2  0  0  0  0
 68 61  1  0  0  0  0
 76 69  1  0  0  0  0
 98 77  2  0  0  0  0
110103  1  0  0  0  0
118111  1  0  0  0  0
140119  2  0  0  0  0
154146  1  0  0  0  0
 11  7  2  0  0  0  0
 48 42  1  0  0  0  0
 55 49  1  0  0  0  0
 89 82  1  0  0  0  0
 97 90  1  0  0  0  0
131124  1  0  0  0  0
139132  1  0  0  0  0
152148  2  0  0  0  0
  1161  1  0  0  0  0
  6162  1  0  0  0  0
  8163  1  0  0  0  0
  9164  1  0  0  0  0
 12165  1  0  0  0  0
 24166  1  0  0  0  0
 25167  1  0  0  0  0
 27168  1  0  0  0  0
 27169  1  0  0  0  0
 27170  1  0  0  0  0
 28171  1  0  0  0  0
 29172  1  0  0  0  0
 31173  1  0  0  0  0
 32174  1  0  0  0  0
 34175  1  0  0  0  0
 34176  1  0  0  0  0
 34177  1  0  0  0  0
 35178  1  0  0  0  0
 36179  1  0  0  0  0
 43180  1  0  0  0  0
 44181  1  0  0  0  0
 46182  1  0  0  0  0
 46183  1  0  0  0  0
 46184  1  0  0  0  0
 47185  1  0  0  0  0
 48186  1  0  0  0  0
 50187  1  0  0  0  0
 51188  1  0  0  0  0
 53189  1  0  0  0  0
 53190  1  0  0  0  0
 53191  1  0  0  0  0
 54192  1  0  0  0  0
 55193  1  0  0  0  0
 62194  1  0  0  0  0
 63195  1  0  0  0  0
 66196  1  0  0  0  0
 66197  1  0  0  0  0
 66198  1  0  0  0  0
 67199  1  0  0  0  0
 68200  1  0  0  0  0
 70201  1  0  0  0  0
 71202  1  0  0  0  0
 74203  1  0  0  0  0
 74204  1  0  0  0  0
 74205  1  0  0  0  0
 75206  1  0  0  0  0
 76207  1  0  0  0  0
 83208  1  0  0  0  0
 84209  1  0  0  0  0
 87210  1  0  0  0  0
 87211  1  0  0  0  0
 87212  1  0  0  0  0
 88213  1  0  0  0  0
 89214  1  0  0  0  0
 91215  1  0  0  0  0
 92216  1  0  0  0  0
 95217  1  0  0  0  0
 95218  1  0  0  0  0
 95219  1  0  0  0  0
 96220  1  0  0  0  0
 97221  1  0  0  0  0
104222  1  0  0  0  0
105223  1  0  0  0  0
108224  1  0  0  0  0
108225  1  0  0  0  0
108226  1  0  0  0  0
109227  1  0  0  0  0
110228  1  0  0  0  0
112229  1  0  0  0  0
113230  1  0  0  0  0
116231  1  0  0  0  0
116232  1  0  0  0  0
116233  1  0  0  0  0
117234  1  0  0  0  0
118235  1  0  0  0  0
125236  1  0  0  0  0
126237  1  0  0  0  0
129238  1  0  0  0  0
129239  1  0  0  0  0
129240  1  0  0  0  0
130241  1  0  0  0  0
131242  1  0  0  0  0
133243  1  0  0  0  0
134244  1  0  0  0  0
137245  1  0  0  0  0
137246  1  0  0  0  0
137247  1  0  0  0  0
138248  1  0  0  0  0
139249  1  0  0  0  0
142250  1  0  0  0  0
147251  1  0  0  0  0
149252  1  0  0  0  0
150253  1  0  0  0  0
153254  1  0  0  0  0
M  END
