254

C         -0.11480        5.47100        7.58510
C          0.47710        6.71030        7.43880
C          0.38070        7.52130        6.21600
O         -0.16540        7.22120        5.16990
C          0.97230        8.83080        6.56100
C          1.10790        9.93870        5.76410
C          1.72060       11.06980        6.31680
C          1.98740       12.33090        5.71230
C          2.59450       13.19440        6.55500
S          2.88230       12.53750        8.12930
C          2.16160       11.02910        7.65850
C          2.01930        9.90690        8.46840
C          1.41950        8.80010        7.90460
C          1.14290        7.47640        8.45130
C          1.60400        6.98440        9.65050
C          2.36490        7.72910       10.56780
N          3.00570        8.28480       11.34360
C          1.45640        5.64370       10.05260
N          1.40850        4.55550       10.41980
C         -0.38040        4.57210        6.55230
C          0.21140        4.42630        5.27840
N          1.32270        5.05530        4.80640
C          2.32720        5.55750        5.64300
C          2.72080        4.87130        6.79080
C          3.69700        5.39360        7.61130
C          4.30560        6.61310        7.32190
C          5.32230        7.19150        8.25460
C          3.93330        7.27280        6.15850
C          2.96220        6.75490        5.32220
C          1.52030        5.14720        3.40990
C          0.48990        5.58120        2.58390
C          0.68670        5.65330        1.21760
C          1.90400        5.29580        0.65230
C          2.12470        5.35670       -0.82710
C          2.93630        4.89120        1.49330
C          2.75530        4.81830        2.85910
C         -0.42370        3.38170        4.56350
S         -0.13350        2.66430        3.02190
C         -1.26540        1.36450        3.39040
C         -1.88980        1.53860        4.60410
N         -2.91450        0.74880        5.10570
C         -4.01180        1.40160        5.68520
C         -4.46850        2.60320        5.14730
C         -5.53250        3.26520        5.72600
C         -6.17900        2.74810        6.84150
C         -7.31930        3.48170        7.47850
C         -5.72390        1.54390        7.36520
C         -4.65310        0.87760        6.80460
C         -2.77970       -0.64300        5.19430
C         -3.87170       -1.47420        4.96150
C         -3.75360       -2.83850        5.14160
C         -2.55350       -3.41020        5.54780
C         -2.44770       -4.88050        5.80920
C         -1.45990       -2.57450        5.74110
C         -1.56520       -1.20890        5.56950
C         -1.38560        2.68550        5.27440
S         -1.60740        3.32730        6.85840
C         -1.48100        0.37560        2.35830
C         -0.79370       -0.78540        2.08260
N          0.17650       -1.37990        2.88270
C          1.22680       -0.58180        3.36650
C          1.78190        0.40800        2.55570
C          2.76120        1.24520        3.04410
C          3.22120        1.10450        4.35070
S          4.44560        2.26320        4.88520
C          4.78930        1.79690        6.60320
C          2.71260        0.08540        5.14540
C          1.72780       -0.75060        4.65430
C          0.21660       -2.77470        2.94940
C         -0.95940       -3.51280        2.79220
C         -0.92950       -4.88710        2.82120
C          0.26450       -5.56930        3.04510
S          0.15610       -7.32960        3.10280
C          1.85300       -7.87930        3.42760
C          1.43200       -4.84200        3.22480
C          1.40930       -3.46140        3.15950
C         -1.14020       -1.28770        0.80150
S         -0.50270       -2.56530       -0.15680
C         -1.32890       -1.93790       -1.57870
C         -2.15610       -0.86230       -1.27820
N         -2.88540       -0.09860       -2.18460
C         -3.90750       -0.63960       -2.97220
C         -4.56590       -1.81370       -2.61700
C         -5.65090       -2.25730       -3.34990
C         -6.09920       -1.52970       -4.44280
S         -7.55940       -1.93530       -5.35110
C         -8.56450       -2.81090       -4.11940
C         -5.39020       -0.40140       -4.85000
C         -4.30630        0.03750       -4.12710
C         -2.84350        1.29010       -1.95280
C         -1.60780        1.89470       -1.72350
C         -1.53590        3.21380       -1.32650
C         -2.70230        3.94500       -1.17450
S         -2.63150        5.59520       -0.49750
C         -2.96870        5.12950        1.23160
C         -3.93000        3.37760       -1.47750
C         -4.00520        2.05380       -1.86070
C         -2.02200       -0.49870        0.08800
S         -2.55740        0.84250        1.04060
C         -0.87430       -2.40550       -2.84770
C          0.43620       -2.79700       -3.10410
N          1.45150       -2.91790       -2.13490
C          1.75430       -4.20370       -1.65550
C          1.51220       -5.33660       -2.42750
C          1.85820       -6.59600       -1.97750
C          2.45980       -6.75190       -0.73890
S          3.01660       -8.30430       -0.11040
C          3.00460       -9.38270       -1.56720
C          2.62740       -5.63330        0.07300
C          2.26230       -4.38200       -0.36670
C          2.16680       -1.78090       -1.75580
C          3.47230       -1.86690       -1.27100
C          4.13920       -0.74790       -0.81370
C          3.52290        0.49490       -0.83960
S          4.26730        1.97900       -0.23210
C          5.61400        1.37440        0.82400
C          2.25750        0.60630       -1.40530
C          1.59600       -0.51010       -1.86770
C          0.63090       -3.05730       -4.46920
S          2.00140       -3.52460       -5.40450
C          1.00370       -3.62720       -6.86160
C         -0.32130       -3.21420       -6.61610
N         -1.35370       -3.20860       -7.51520
C         -1.14000       -2.90750       -8.86390
C         -0.23800       -1.90180       -9.21410
C          0.09070       -1.68530      -10.53560
C         -0.48930       -2.46290      -11.53130
S         -0.01940       -2.31740      -13.22500
C          1.75940       -1.96630      -13.07080
C         -1.46330       -3.39840      -11.19230
C         -1.78490       -3.62450       -9.87170
C         -2.60920       -3.68680       -7.08520
C         -3.78470       -3.05850       -7.48820
C         -5.00340       -3.55880       -7.08600
C         -5.06650       -4.68300       -6.26430
S         -6.67140       -5.25270       -5.81160
C         -6.36620       -6.89530       -5.09620
C         -3.89410       -5.29940       -5.84890
C         -2.67360       -4.80980       -6.26570
C         -0.50970       -2.92320       -5.24640
S         -1.85840       -2.39460       -4.29290
C          1.57320       -4.09660       -8.05140
C          2.67980       -4.89720       -8.19980
C          3.44250       -4.85400       -9.46390
O          3.11870       -4.29380      -10.49340
C          4.70220       -5.57310       -9.18230
C          5.79460       -5.74390       -9.99580
C          6.88710       -6.45480       -9.48510
C          8.12630       -6.76510      -10.11370
C          8.95550       -7.46790       -9.31200
S          8.29110       -7.79910       -7.74950
C          6.82720       -6.96550       -8.16780
C          5.71760       -6.80320       -7.34510
C          4.65120       -6.09960       -7.86510
C          3.34640       -5.79020       -7.29280
C          2.76640       -6.44190       -6.22590
C          1.39220       -6.35840       -5.94360
N          0.26450       -6.36520       -5.71780
C          3.43060       -7.32510       -5.36000
N          3.90870       -8.03850       -4.59540
H         -0.43570        5.16390        8.57350
H          0.75920        9.93480        4.74280
H          1.72840       12.56420        4.69520
H          2.90210       14.20280        6.35700
H          2.36210        9.92600        9.48980
H          2.25260        3.93030        7.03850
H          3.98730        4.85330        8.50100
H          5.81960        8.04780        7.80680
H          6.07060        6.44640        8.51840
H          4.84420        7.51810        9.17850
H          4.39970        8.21400        5.90590
H          2.67920        7.28000        4.42240
H         -0.44340        5.88780        3.02970
H         -0.11520        6.00110        0.58310
H          1.19550        5.55790       -1.35490
H          2.54860        4.41840       -1.18260
H          2.83340        6.14830       -1.06880
H          3.88980        4.62010        1.06480
H          3.55930        4.49590        3.50390
H         -3.98820        3.01360        4.27020
H         -5.87080        4.19800        5.29800
H         -6.94270        4.16500        8.24070
H         -8.00690        2.78940        7.95880
H         -7.86410        4.06790        6.74200
H         -6.20860        1.12510        8.23540
H         -4.30370       -0.04870        7.23550
H         -4.81330       -1.04000        4.65890
H         -4.61260       -3.47120        4.97010
H         -2.59580       -5.07970        6.87180
H         -3.20430       -5.43070        5.25510
H         -1.46580       -5.25510        5.52910
H         -0.51870       -3.00540        6.05240
H         -0.72110       -0.56030        5.75190
H          1.43430        0.52670        1.53950
H          3.15940        2.02980        2.42060
H          5.21260        0.79710        6.64120
H          5.51680        2.52020        6.95830
H          3.88400        1.86710        7.19850
H          3.06490       -0.06450        6.15350
H          1.34120       -1.54210        5.27720
H         -1.90050       -3.00170        2.65860
H         -1.83810       -5.45270        2.68620
H          2.21440       -7.44490        4.35510
H          2.49230       -7.62920        2.58610
H          1.79300       -8.95860        3.52550
H          2.37210       -5.33700        3.40850
H          2.33290       -2.91240        3.27060
H         -4.24470       -2.36590       -1.74570
H         -6.15610       -3.16060       -3.04700
H         -9.57340       -2.82560       -4.51890
H         -8.53940       -2.26360       -3.18230
H         -8.20580       -3.82840       -3.99760
H         -5.71730        0.13620       -5.72630
H         -3.77270        0.92510       -4.43180
H         -0.70520        1.31050       -1.81450
H         -0.58220        3.66830       -1.10660
H         -2.21290        4.42190        1.56180
H         -2.91770        6.04100        1.81760
H         -3.96020        4.69080        1.29960
H         -4.83010        3.96530       -1.37850
H         -4.96490        1.59800       -2.05210
H          1.04450       -5.25640       -3.39500
H          1.66090       -7.44220       -2.61520
H          1.98160       -9.63480       -1.83350
H          3.53930      -10.28050       -1.27270
H          3.51740       -8.89440       -2.39100
H          3.05490       -5.75180        1.05590
H          2.37000       -3.53520        0.29330
H          3.97860       -2.81940       -1.26080
H          5.14670       -0.86010       -0.44560
H          5.23140        0.60910        1.49270
H          6.43040        0.99730        0.21440
H          5.95030        2.23120        1.40010
H          1.79530        1.58020       -1.47130
H          0.62240       -0.39700       -2.31750
H          0.22430       -1.30910       -8.43820
H          0.80640       -0.91830      -10.78400
H          2.18400       -2.61430      -12.30910
H          2.19170       -2.19430      -14.04000
H          1.92270       -0.91840      -12.83640
H         -1.93390       -3.97370      -11.97410
H         -2.50330       -4.38620       -9.60990
H         -3.73670       -2.18720       -8.12370
H         -5.91910       -3.08290       -7.39920
H         -7.34780       -7.33260       -4.94070
H         -5.79970       -7.50060       -5.79730
H         -5.84920       -6.80670       -4.14500
H         -3.91210       -6.16920       -5.21300
H         -1.76650       -5.31510       -5.96980
H          1.15290       -3.74240       -8.98520
H          5.80860       -5.34510      -10.99840
H          8.36920       -6.46820      -11.11800
H          9.94160       -7.82610       -9.53530
H          5.71230       -7.20570       -6.34500
