95

C          1.15140       -0.83190        6.89930
C          1.74640        0.38460        6.72510
C          1.58140        1.25380        5.54910
O          0.81440        1.09200        4.61540
C          2.51740        2.36930        5.72290
C          2.76470        3.40810        4.85740
C          3.72440        4.35200        5.23230
C          4.17340        5.50450        4.52850
C          5.12470        6.18660        5.20300
S          5.53590        5.48070        6.72740
C          4.39000        4.20340        6.47390
C          4.13630        3.15400        7.34990
C          3.18680        2.22600        6.96510
C          2.69670        1.02200        7.62650
C          3.06380        0.59800        8.87560
C          2.56940       -0.54700        9.53610
N          2.21630       -1.45430       10.14490
C          3.99060        1.27400        9.69830
N          4.73430        1.77450       10.41500
C          0.28940       -1.54380        6.03590
C         -0.17140       -2.81890        6.31670
C         -0.94500       -3.40510        5.30430
C         -1.54050       -4.75040        5.53370
O         -1.58250       -5.19890        6.65630
C         -2.04480       -5.49590        4.33010
C         -2.69620       -6.81810        4.71240
C         -1.10320       -2.54040        4.23070
S         -0.30610       -1.01950        4.48400
C         -1.70940       -2.67920        2.92910
C         -1.32180       -3.48070        1.87210
C         -1.96640       -2.99690        0.69000
C         -2.84620       -1.91020        1.06990
O         -3.63600       -1.22470        0.46350
N         -2.62470       -1.77550        2.46120
C         -3.30880       -0.77620        3.23710
C         -1.34740       -3.58390       -0.39630
N         -0.41430       -4.47500        0.06880
C          0.37130       -5.39410       -0.71030
C         -0.35520       -4.47850        1.47620
O          0.36340       -5.22080        2.11340
C         -1.50900       -3.14740       -1.75860
C         -0.44490       -2.91020       -2.61010
C         -0.60380       -2.13310       -3.75710
F          0.50850       -1.91000       -4.49070
C         -1.79840       -1.55280       -4.15600
C         -2.92730       -1.91820       -3.38210
C         -2.78460       -2.71070       -2.19270
N         -3.95430       -2.94170       -1.60450
S         -5.10050       -2.18470       -2.42150
N         -4.19290       -1.56180       -3.59240
C         -1.94390       -0.64420       -5.26430
C         -1.09900        0.32640       -5.67050
C         -1.28800        0.94890       -7.02100
O         -2.26170        0.84250       -7.72770
C         -0.02580        1.65230       -7.29630
C          0.38140        2.30220       -8.44470
C          1.63970        2.89280       -8.48860
C          2.08560        3.61020       -9.72170
C          2.48700        2.81050       -7.37090
C          3.84700        3.42990       -7.41100
C          2.06990        2.15690       -6.21590
C          0.81050        1.58360       -6.16720
C          0.10800        0.89640       -5.09100
C          0.42960        0.98280       -3.76520
C         -0.35340        0.50470       -2.69420
N         -0.92950        0.17110       -1.75880
C          1.57950        1.64230       -3.27830
N          2.49790        2.15380       -2.81760
H          1.38210       -1.37750        7.80630
H          2.23730        3.48400        3.91920
H          3.79320        5.79250        3.56520
H          5.62970        7.08350        4.90090
H          4.67410        3.08590        8.28060
H          0.05050       -3.33740        7.23320
H         -2.74640       -4.86290        3.78230
H         -1.18160       -5.67040        3.68160
H         -1.98910       -7.43860        5.25630
H         -3.55610       -6.64530        5.35540
H         -3.02190       -7.35110        3.82300
H         -3.65110       -1.19570        4.18340
H         -2.66400        0.08280        3.43280
H         -4.16310       -0.44510        2.64620
H          0.58400       -6.25870       -0.07980
H         -0.17940       -5.70660       -1.59620
H          1.32510       -4.95110       -1.00770
H          0.55500       -3.22200       -2.35640
H         -2.85070       -0.76440       -5.84810
H         -0.28220        2.34970       -9.29510
H          2.99370        3.15900      -10.12010
H          2.30840        4.65300       -9.49780
H          1.31550        3.57620      -10.48720
H          4.44390        2.99240       -8.21050
H          4.36580        3.28210       -6.46800
H          3.77370        4.49970       -7.60330
H          2.73980        2.09540       -5.37310
