
  xtb     02052203143D
 energy: -284.691000820488 gnorm: 0.000585296038 xtb: 6.4.1 (unknown)
156173  0     0  0            999 V2000
   -7.6262   -4.0347    5.2072 C   0  0  0  0  0  0  0  0  0  0  0  0
   -8.1737   -5.1196    4.5931 C   0  0  0  0  0  0  0  0  0  0  0  0
   -8.2460   -5.3872    3.1329 C   0  0  0  0  0  0  0  0  0  0  0  0
   -7.6013   -4.8956    2.2320 O   0  0  0  0  0  0  0  0  0  0  0  0
   -9.3312   -6.3770    2.9716 C   0  0  0  0  0  0  0  0  0  0  0  0
   -9.8457   -6.8725    1.7980 C   0  0  0  0  0  0  0  0  0  0  0  0
  -10.8848   -7.8045    1.8840 C   0  0  0  0  0  0  0  0  0  0  0  0
  -11.5807   -8.4568    0.8298 C   0  0  0  0  0  0  0  0  0  0  0  0
  -12.5362   -9.2961    1.2952 C   0  0  0  0  0  0  0  0  0  0  0  0
  -13.6883  -10.3520    0.2585 Br  0  0  0  0  0  0  0  0  0  0  0  0
  -12.6526   -9.3485    3.0343 S   0  0  0  0  0  0  0  0  0  0  0  0
  -11.3601   -8.1942    3.1595 C   0  0  0  0  0  0  0  0  0  0  0  0
  -10.8370   -7.6962    4.3461 C   0  0  0  0  0  0  0  0  0  0  0  0
   -9.8085   -6.7778    4.2427 C   0  0  0  0  0  0  0  0  0  0  0  0
   -9.0470   -6.0736    5.2630 C   0  0  0  0  0  0  0  0  0  0  0  0
   -9.0725   -6.3323    6.6073 C   0  0  0  0  0  0  0  0  0  0  0  0
   -8.2184   -5.7277    7.5548 C   0  0  0  0  0  0  0  0  0  0  0  0
   -7.5313   -5.3049    8.3718 N   0  0  0  0  0  0  0  0  0  0  0  0
   -9.9195   -7.2864    7.2088 C   0  0  0  0  0  0  0  0  0  0  0  0
  -10.5926   -8.0445    7.7470 N   0  0  0  0  0  0  0  0  0  0  0  0
   -6.7509   -3.0343    4.6687 C   0  0  0  0  0  0  0  0  0  0  0  0
   -5.8247   -3.3131    3.6606 C   0  0  0  0  0  0  0  0  0  0  0  0
   -5.0396   -2.2786    3.1896 C   0  0  0  0  0  0  0  0  0  0  0  0
   -4.0605   -2.3009    2.2263 N   0  0  0  0  0  0  0  0  0  0  0  0
   -3.6422   -3.4601    1.4822 C   0  0  0  0  0  0  0  0  0  0  0  0
   -2.5050   -4.1995    2.1863 C   0  0  0  0  0  0  0  0  0  0  0  0
   -3.5127   -1.0477    2.1354 C   0  0  0  0  0  0  0  0  0  0  0  0
   -4.1815   -0.1733    3.0309 C   0  0  0  0  0  0  0  0  0  0  0  0
   -5.1528   -0.9630    3.7142 C   0  0  0  0  0  0  0  0  0  0  0  0
   -6.0499   -0.7048    4.7487 C   0  0  0  0  0  0  0  0  0  0  0  0
   -6.8210   -1.7356    5.2240 C   0  0  0  0  0  0  0  0  0  0  0  0
   -3.8090    1.1656    3.1032 C   0  0  0  0  0  0  0  0  0  0  0  0
   -2.7344    1.5921    2.3621 C   0  0  0  0  0  0  0  0  0  0  0  0
   -2.0104    0.7016    1.5477 C   0  0  0  0  0  0  0  0  0  0  0  0
   -2.4328   -0.6124    1.3856 C   0  0  0  0  0  0  0  0  0  0  0  0
   -0.7621    1.1337    0.9468 C   0  0  0  0  0  0  0  0  0  0  0  0
    0.2634    1.8286    1.5677 C   0  0  0  0  0  0  0  0  0  0  0  0
    0.2969    2.2108    2.8987 N   0  0  0  0  0  0  0  0  0  0  0  0
    0.9925    3.3766    3.2480 C   0  0  0  0  0  0  0  0  0  0  0  0
    0.9589    4.4954    2.4193 C   0  0  0  0  0  0  0  0  0  0  0  0
    1.6901    5.6259    2.7270 C   0  0  0  0  0  0  0  0  0  0  0  0
    2.4632    5.6574    3.8785 C   0  0  0  0  0  0  0  0  0  0  0  0
    3.4544    7.0371    4.3567 S   0  0  0  0  0  0  0  0  0  0  0  0
    3.5623    8.0197    2.8330 C   0  0  0  0  0  0  0  0  0  0  0  0
    2.4671    4.5556    4.7330 C   0  0  0  0  0  0  0  0  0  0  0  0
    1.7445    3.4267    4.4224 C   0  0  0  0  0  0  0  0  0  0  0  0
   -0.3475    1.4478    3.8821 C   0  0  0  0  0  0  0  0  0  0  0  0
   -0.3707    0.0577    3.8091 C   0  0  0  0  0  0  0  0  0  0  0  0
   -1.1325   -0.6845    4.6895 C   0  0  0  0  0  0  0  0  0  0  0  0
   -1.8732   -0.0476    5.6756 C   0  0  0  0  0  0  0  0  0  0  0  0
   -2.9644   -0.8710    6.7904 S   0  0  0  0  0  0  0  0  0  0  0  0
   -2.9440   -2.5973    6.2361 C   0  0  0  0  0  0  0  0  0  0  0  0
   -1.7780    1.3366    5.8101 C   0  0  0  0  0  0  0  0  0  0  0  0
   -1.0275    2.0768    4.9262 C   0  0  0  0  0  0  0  0  0  0  0  0
    1.3350    2.0541    0.6646 C   0  0  0  0  0  0  0  0  0  0  0  0
    2.8544    2.8679    0.7588 S   0  0  0  0  0  0  0  0  0  0  0  0
    3.2316    2.4377   -0.8992 C   0  0  0  0  0  0  0  0  0  0  0  0
    2.2184    1.6836   -1.4921 C   0  0  0  0  0  0  0  0  0  0  0  0
    2.1115    1.3082   -2.8227 N   0  0  0  0  0  0  0  0  0  0  0  0
    3.0063    0.4126   -3.4223 C   0  0  0  0  0  0  0  0  0  0  0  0
    3.3787    0.5865   -4.7518 C   0  0  0  0  0  0  0  0  0  0  0  0
    4.2469   -0.2991   -5.3585 C   0  0  0  0  0  0  0  0  0  0  0  0
    4.7503   -1.3774   -4.6405 C   0  0  0  0  0  0  0  0  0  0  0  0
    5.9039   -2.5381   -5.2942 S   0  0  0  0  0  0  0  0  0  0  0  0
    6.0271   -2.1045   -7.0521 C   0  0  0  0  0  0  0  0  0  0  0  0
    4.3653   -1.5613   -3.3126 C   0  0  0  0  0  0  0  0  0  0  0  0
    3.5030   -0.6759   -2.7068 C   0  0  0  0  0  0  0  0  0  0  0  0
    0.9509    1.6888   -3.5022 C   0  0  0  0  0  0  0  0  0  0  0  0
    0.3709    2.9312   -3.2505 C   0  0  0  0  0  0  0  0  0  0  0  0
   -0.7812    3.3197   -3.9035 C   0  0  0  0  0  0  0  0  0  0  0  0
   -1.3751    2.4717   -4.8294 C   0  0  0  0  0  0  0  0  0  0  0  0
   -2.8432    2.8510   -5.7277 S   0  0  0  0  0  0  0  0  0  0  0  0
   -3.1954    4.5772   -5.2902 C   0  0  0  0  0  0  0  0  0  0  0  0
   -0.7993    1.2268   -5.0834 C   0  0  0  0  0  0  0  0  0  0  0  0
    0.3454    0.8371   -4.4292 C   0  0  0  0  0  0  0  0  0  0  0  0
    1.1425    1.5016   -0.5891 C   0  0  0  0  0  0  0  0  0  0  0  0
   -0.3771    0.6828   -0.7018 S   0  0  0  0  0  0  0  0  0  0  0  0
    4.3650    3.0753   -1.4927 C   0  0  0  0  0  0  0  0  0  0  0  0
    4.5594    4.4652   -1.3316 C   0  0  0  0  0  0  0  0  0  0  0  0
    5.5441    5.2025   -2.0963 C   0  0  0  0  0  0  0  0  0  0  0  0
    5.4917    6.5063   -1.8375 N   0  0  0  0  0  0  0  0  0  0  0  0
    4.3432    6.7822   -0.7481 S   0  0  0  0  0  4  0  0  0  0  0  0
    3.8347    5.2706   -0.5523 N   0  0  0  0  0  0  0  0  0  0  0  0
    6.3942    4.5900   -3.0491 C   0  0  0  0  0  0  0  0  0  0  0  0
    6.3340    3.1769   -3.0424 C   0  0  0  0  0  0  0  0  0  0  0  0
    7.1810    2.3524   -3.6599 N   0  0  0  0  0  0  0  0  0  0  0  0
    6.7933    0.8299   -3.3074 S   0  0  0  0  0  0  0  0  0  0  0  0
    5.5356    1.1272   -2.3647 N   0  0  0  0  0  0  0  0  0  0  0  0
    5.3455    2.4431   -2.2808 C   0  0  0  0  0  0  0  0  0  0  0  0
    7.2418    5.3823   -3.8510 C   0  0  0  0  0  0  0  0  0  0  0  0
    7.9083    5.0618   -5.0043 C   0  0  0  0  0  0  0  0  0  0  0  0
    9.0652    5.8891   -5.4271 C   0  0  0  0  0  0  0  0  0  0  0  0
    9.3967    6.9676   -4.9888 O   0  0  0  0  0  0  0  0  0  0  0  0
    9.7542    5.0918   -6.4677 C   0  0  0  0  0  0  0  0  0  0  0  0
   10.9337    5.3664   -7.1132 C   0  0  0  0  0  0  0  0  0  0  0  0
   11.3964    4.4361   -8.0519 C   0  0  0  0  0  0  0  0  0  0  0  0
   12.5779    4.4869   -8.8421 C   0  0  0  0  0  0  0  0  0  0  0  0
   12.7020    3.4009   -9.6405 C   0  0  0  0  0  0  0  0  0  0  0  0
   14.1019    3.0562  -10.8409 Br  0  0  0  0  0  0  0  0  0  0  0  0
   11.3996    2.2518   -9.4860 S   0  0  0  0  0  0  0  0  0  0  0  0
   10.6407    3.2662   -8.2958 C   0  0  0  0  0  0  0  0  0  0  0  0
    9.4405    2.9930   -7.6500 C   0  0  0  0  0  0  0  0  0  0  0  0
    8.9993    3.9211   -6.7277 C   0  0  0  0  0  0  0  0  0  0  0  0
    7.7871    3.9598   -5.9168 C   0  0  0  0  0  0  0  0  0  0  0  0
    6.6621    3.1987   -6.1424 C   0  0  0  0  0  0  0  0  0  0  0  0
    5.4021    3.4733   -5.5820 C   0  0  0  0  0  0  0  0  0  0  0  0
    4.3385    3.6617   -5.1890 N   0  0  0  0  0  0  0  0  0  0  0  0
    6.6147    2.0819   -6.9900 C   0  0  0  0  0  0  0  0  0  0  0  0
    6.5134    1.1240   -7.6190 N   0  0  0  0  0  0  0  0  0  0  0  0
   -7.9401   -3.8458    6.2283 H   0  0  0  0  0  0  0  0  0  0  0  0
   -9.4596   -6.5500    0.8437 H   0  0  0  0  0  0  0  0  0  0  0  0
  -11.3745   -8.3020   -0.2135 H   0  0  0  0  0  0  0  0  0  0  0  0
  -11.2354   -8.0174    5.2941 H   0  0  0  0  0  0  0  0  0  0  0  0
   -5.7085   -4.3171    3.2922 H   0  0  0  0  0  0  0  0  0  0  0  0
   -3.3196   -3.1348    0.4896 H   0  0  0  0  0  0  0  0  0  0  0  0
   -4.5055   -4.1189    1.3612 H   0  0  0  0  0  0  0  0  0  0  0  0
   -2.8262   -4.5478    3.1657 H   0  0  0  0  0  0  0  0  0  0  0  0
   -2.1966   -5.0585    1.5969 H   0  0  0  0  0  0  0  0  0  0  0  0
   -1.6492   -3.5403    2.3155 H   0  0  0  0  0  0  0  0  0  0  0  0
   -6.1186    0.2831    5.1761 H   0  0  0  0  0  0  0  0  0  0  0  0
   -7.5191   -1.5567    6.0280 H   0  0  0  0  0  0  0  0  0  0  0  0
   -4.3432    1.8475    3.7459 H   0  0  0  0  0  0  0  0  0  0  0  0
   -2.4230    2.6242    2.4064 H   0  0  0  0  0  0  0  0  0  0  0  0
   -1.8839   -1.2765    0.7352 H   0  0  0  0  0  0  0  0  0  0  0  0
    0.3511    4.4829    1.5267 H   0  0  0  0  0  0  0  0  0  0  0  0
    1.6439    6.4721    2.0614 H   0  0  0  0  0  0  0  0  0  0  0  0
    3.8408    7.3732    2.0059 H   0  0  0  0  0  0  0  0  0  0  0  0
    2.6196    8.5235    2.6398 H   0  0  0  0  0  0  0  0  0  0  0  0
    4.3404    8.7554    3.0103 H   0  0  0  0  0  0  0  0  0  0  0  0
    3.0599    4.5928    5.6339 H   0  0  0  0  0  0  0  0  0  0  0  0
    1.7678    2.5686    5.0771 H   0  0  0  0  0  0  0  0  0  0  0  0
    0.1984   -0.4453    3.0414 H   0  0  0  0  0  0  0  0  0  0  0  0
   -1.1437   -1.7581    4.5920 H   0  0  0  0  0  0  0  0  0  0  0  0
   -3.2518   -2.6513    5.1962 H   0  0  0  0  0  0  0  0  0  0  0  0
   -3.6677   -3.1124    6.8603 H   0  0  0  0  0  0  0  0  0  0  0  0
   -1.9573   -3.0267    6.3845 H   0  0  0  0  0  0  0  0  0  0  0  0
   -2.3262    1.8239    6.6014 H   0  0  0  0  0  0  0  0  0  0  0  0
   -0.9879    3.1518    5.0176 H   0  0  0  0  0  0  0  0  0  0  0  0
    3.0025    1.4351   -5.3027 H   0  0  0  0  0  0  0  0  0  0  0  0
    4.5349   -0.1269   -6.3825 H   0  0  0  0  0  0  0  0  0  0  0  0
    6.4143   -1.0966   -7.1707 H   0  0  0  0  0  0  0  0  0  0  0  0
    6.7220   -2.8213   -7.4784 H   0  0  0  0  0  0  0  0  0  0  0  0
    5.0533   -2.2096   -7.5213 H   0  0  0  0  0  0  0  0  0  0  0  0
    4.7547   -2.4064   -2.7664 H   0  0  0  0  0  0  0  0  0  0  0  0
    3.2124   -0.8147   -1.6767 H   0  0  0  0  0  0  0  0  0  0  0  0
    0.8369    3.6045   -2.5459 H   0  0  0  0  0  0  0  0  0  0  0  0
   -1.1999    4.2890   -3.6864 H   0  0  0  0  0  0  0  0  0  0  0  0
   -2.3418    5.2008   -5.5387 H   0  0  0  0  0  0  0  0  0  0  0  0
   -3.4497    4.6526   -4.2369 H   0  0  0  0  0  0  0  0  0  0  0  0
   -4.0499    4.8630   -5.8958 H   0  0  0  0  0  0  0  0  0  0  0  0
   -1.2701    0.5681   -5.7969 H   0  0  0  0  0  0  0  0  0  0  0  0
    0.7749   -0.1337   -4.6235 H   0  0  0  0  0  0  0  0  0  0  0  0
    7.4271    6.3825   -3.4719 H   0  0  0  0  0  0  0  0  0  0  0  0
   11.4848    6.2697   -6.9037 H   0  0  0  0  0  0  0  0  0  0  0  0
   13.2890    5.2921   -8.8093 H   0  0  0  0  0  0  0  0  0  0  0  0
    8.8990    2.0868   -7.8657 H   0  0  0  0  0  0  0  0  0  0  0  0
  1  2  2  0  0  0  0
  2  3  1  0  0  0  0
  3  4  2  0  0  0  0
  3  5  1  0  0  0  0
  5  6  2  0  0  0  0
  6  7  1  0  0  0  0
  7  8  1  0  0  0  0
  8  9  2  0  0  0  0
  9 10  1  0  0  0  0
  9 11  1  0  0  0  0
 11 12  1  0  0  0  0
 12 13  1  0  0  0  0
 13 14  2  0  0  0  0
 14 15  1  0  0  0  0
 15 16  2  0  0  0  0
 16 17  1  0  0  0  0
 17 18  3  0  0  0  0
 16 19  1  0  0  0  0
 19 20  3  0  0  0  0
  1 21  1  0  0  0  0
 21 22  2  0  0  0  0
 22 23  1  0  0  0  0
 23 24  1  0  0  0  0
 24 25  1  0  0  0  0
 25 26  1  0  0  0  0
 24 27  1  0  0  0  0
 27 28  2  0  0  0  0
 28 29  1  0  0  0  0
 29 30  1  0  0  0  0
 30 31  2  0  0  0  0
 28 32  1  0  0  0  0
 32 33  2  0  0  0  0
 33 34  1  0  0  0  0
 34 35  2  0  0  0  0
 34 36  1  0  0  0  0
 36 37  2  0  0  0  0
 37 38  1  0  0  0  0
 38 39  1  0  0  0  0
 39 40  2  0  0  0  0
 40 41  1  0  0  0  0
 41 42  2  0  0  0  0
 42 43  1  0  0  0  0
 43 44  1  0  0  0  0
 42 45  1  0  0  0  0
 45 46  2  0  0  0  0
 38 47  1  0  0  0  0
 47 48  2  0  0  0  0
 48 49  1  0  0  0  0
 49 50  2  0  0  0  0
 50 51  1  0  0  0  0
 51 52  1  0  0  0  0
 50 53  1  0  0  0  0
 53 54  2  0  0  0  0
 37 55  1  0  0  0  0
 55 56  1  0  0  0  0
 56 57  1  0  0  0  0
 57 58  2  0  0  0  0
 58 59  1  0  0  0  0
 59 60  1  0  0  0  0
 60 61  2  0  0  0  0
 61 62  1  0  0  0  0
 62 63  2  0  0  0  0
 63 64  1  0  0  0  0
 64 65  1  0  0  0  0
 63 66  1  0  0  0  0
 66 67  2  0  0  0  0
 59 68  1  0  0  0  0
 68 69  2  0  0  0  0
 69 70  1  0  0  0  0
 70 71  2  0  0  0  0
 71 72  1  0  0  0  0
 72 73  1  0  0  0  0
 71 74  1  0  0  0  0
 74 75  2  0  0  0  0
 58 76  1  0  0  0  0
 76 77  1  0  0  0  0
 57 78  1  0  0  0  0
 78 79  2  0  0  0  0
 79 80  1  0  0  0  0
 80 81  1  0  0  0  0
 81 82  2  0  0  0  0
 82 83  2  0  0  0  0
 80 84  2  0  0  0  0
 84 85  1  0  0  0  0
 85 86  2  0  0  0  0
 86 87  1  0  0  0  0
 87 88  1  0  0  0  0
 88 89  2  0  0  0  0
 84 90  1  0  0  0  0
 90 91  2  0  0  0  0
 91 92  1  0  0  0  0
 92 93  2  0  0  0  0
 92 94  1  0  0  0  0
 94 95  2  0  0  0  0
 95 96  1  0  0  0  0
 96 97  1  0  0  0  0
 97 98  2  0  0  0  0
 98 99  1  0  0  0  0
 98100  1  0  0  0  0
100101  1  0  0  0  0
101102  1  0  0  0  0
102103  2  0  0  0  0
103104  1  0  0  0  0
104105  2  0  0  0  0
105106  1  0  0  0  0
106107  3  0  0  0  0
105108  1  0  0  0  0
108109  3  0  0  0  0
 15  2  1  0  0  0  0
 31 21  1  0  0  0  0
 77 36  1  0  0  0  0
 89 78  1  0  0  0  0
104 91  1  0  0  0  0
 14  5  1  0  0  0  0
 29 23  2  0  0  0  0
 46 39  1  0  0  0  0
 54 47  1  0  0  0  0
 76 55  2  0  0  0  0
 83 79  1  0  0  0  0
 89 85  1  0  0  0  0
103 94  1  0  0  0  0
 12  7  2  0  0  0  0
 35 27  1  0  0  0  0
 67 60  1  0  0  0  0
 75 68  1  0  0  0  0
101 96  2  0  0  0  0
  1110  1  0  0  0  0
  6111  1  0  0  0  0
  8112  1  0  0  0  0
 13113  1  0  0  0  0
 22114  1  0  0  0  0
 25115  1  0  0  0  0
 25116  1  0  0  0  0
 26117  1  0  0  0  0
 26118  1  0  0  0  0
 26119  1  0  0  0  0
 30120  1  0  0  0  0
 31121  1  0  0  0  0
 32122  1  0  0  0  0
 33123  1  0  0  0  0
 35124  1  0  0  0  0
 40125  1  0  0  0  0
 41126  1  0  0  0  0
 44127  1  0  0  0  0
 44128  1  0  0  0  0
 44129  1  0  0  0  0
 45130  1  0  0  0  0
 46131  1  0  0  0  0
 48132  1  0  0  0  0
 49133  1  0  0  0  0
 52134  1  0  0  0  0
 52135  1  0  0  0  0
 52136  1  0  0  0  0
 53137  1  0  0  0  0
 54138  1  0  0  0  0
 61139  1  0  0  0  0
 62140  1  0  0  0  0
 65141  1  0  0  0  0
 65142  1  0  0  0  0
 65143  1  0  0  0  0
 66144  1  0  0  0  0
 67145  1  0  0  0  0
 69146  1  0  0  0  0
 70147  1  0  0  0  0
 73148  1  0  0  0  0
 73149  1  0  0  0  0
 73150  1  0  0  0  0
 74151  1  0  0  0  0
 75152  1  0  0  0  0
 90153  1  0  0  0  0
 95154  1  0  0  0  0
 97155  1  0  0  0  0
102156  1  0  0  0  0
M  END
