
  xtb     02092213373D
 energy: -400.758311760320 gnorm: 0.000482241651 xtb: 6.4.1 (unknown)
232252  0     0  0            999 V2000
    5.9337   -2.0362    7.6572 C   0  0  0  0  0  0  0  0  0  0  0  0
    6.3990   -1.0054    8.4505 C   0  0  0  0  0  0  0  0  0  0  0  0
    6.7776    0.3209    7.9400 C   0  0  0  0  0  0  0  0  0  0  0  0
    6.7159    0.7162    6.7903 O   0  0  0  0  0  0  0  0  0  0  0  0
    7.3756    1.0291    9.0935 C   0  0  0  0  0  0  0  0  0  0  0  0
    7.8825    2.3105    9.1633 C   0  0  0  0  0  0  0  0  0  0  0  0
    8.3610    2.7703   10.3815 C   0  0  0  0  0  0  0  0  0  0  0  0
    8.3322    1.9400   11.4942 C   0  0  0  0  0  0  0  0  0  0  0  0
    8.9274    2.5310   12.9987 Cl  0  0  0  0  0  0  0  0  0  0  0  0
    7.8360    0.6406   11.4350 C   0  0  0  0  0  0  0  0  0  0  0  0
    7.3549    0.1898   10.2204 C   0  0  0  0  0  0  0  0  0  0  0  0
    6.7355   -1.0798    9.8417 C   0  0  0  0  0  0  0  0  0  0  0  0
    6.3652   -2.0856   10.7012 C   0  0  0  0  0  0  0  0  0  0  0  0
    5.5721   -3.1855   10.3197 C   0  0  0  0  0  0  0  0  0  0  0  0
    4.8742   -4.0705   10.0950 N   0  0  0  0  0  0  0  0  0  0  0  0
    6.6383   -2.0950   12.0811 C   0  0  0  0  0  0  0  0  0  0  0  0
    6.8091   -2.1625   13.2154 N   0  0  0  0  0  0  0  0  0  0  0  0
    5.2252   -1.8981    6.4643 C   0  0  0  0  0  0  0  0  0  0  0  0
    4.4382   -0.8408    5.9597 C   0  0  0  0  0  0  0  0  0  0  0  0
    4.0768    0.3120    6.5934 N   0  0  0  0  0  0  0  0  0  0  0  0
    3.9930    0.4489    7.9810 C   0  0  0  0  0  0  0  0  0  0  0  0
    4.3454    1.6633    8.5773 C   0  0  0  0  0  0  0  0  0  0  0  0
    4.3236    1.7983    9.9459 C   0  0  0  0  0  0  0  0  0  0  0  0
    3.9432    0.7308   10.7601 C   0  0  0  0  0  0  0  0  0  0  0  0
    4.0439    0.9987   12.4944 S   0  0  0  0  0  0  0  0  0  0  0  0
    3.4478   -0.5497   13.2283 C   0  0  0  0  0  0  0  0  0  0  0  0
    3.5312   -0.4585   10.1682 C   0  0  0  0  0  0  0  0  0  0  0  0
    3.5589   -0.5958    8.7950 C   0  0  0  0  0  0  0  0  0  0  0  0
    3.7288    1.4303    5.7975 C   0  0  0  0  0  0  0  0  0  0  0  0
    4.6042    1.8943    4.8206 C   0  0  0  0  0  0  0  0  0  0  0  0
    4.2631    2.9791    4.0373 C   0  0  0  0  0  0  0  0  0  0  0  0
    3.0393    3.6099    4.2275 C   0  0  0  0  0  0  0  0  0  0  0  0
    2.5035    4.9846    3.2564 S   0  0  0  0  0  0  0  0  0  0  0  0
    4.0657    5.7916    2.7949 C   0  0  0  0  0  0  0  0  0  0  0  0
    2.1645    3.1479    5.2083 C   0  0  0  0  0  0  0  0  0  0  0  0
    2.5070    2.0684    5.9933 C   0  0  0  0  0  0  0  0  0  0  0  0
    3.9377   -1.1748    4.6772 C   0  0  0  0  0  0  0  0  0  0  0  0
    2.9403   -0.3425    3.5390 S   0  0  0  0  0  0  0  0  0  0  0  0
    2.9717   -1.7333    2.4598 C   0  0  0  0  0  0  0  0  0  0  0  0
    3.7332   -2.7735    2.9518 C   0  0  0  0  0  0  0  0  0  0  0  0
    3.9652   -3.9765    2.3082 N   0  0  0  0  0  0  0  0  0  0  0  0
    4.0382   -5.1594    3.0551 C   0  0  0  0  0  0  0  0  0  0  0  0
    4.8797   -6.1977    2.6563 C   0  0  0  0  0  0  0  0  0  0  0  0
    4.9445   -7.3591    3.3917 C   0  0  0  0  0  0  0  0  0  0  0  0
    4.1907   -7.5065    4.5546 C   0  0  0  0  0  0  0  0  0  0  0  0
    4.3646   -9.0323    5.4204 S   0  0  0  0  0  0  0  0  0  0  0  0
    3.0600   -8.9590    6.6800 C   0  0  0  0  0  0  0  0  0  0  0  0
    3.3692   -6.4677    4.9665 C   0  0  0  0  0  0  0  0  0  0  0  0
    3.2827   -5.3129    4.2142 C   0  0  0  0  0  0  0  0  0  0  0  0
    4.1879   -3.9825    0.9232 C   0  0  0  0  0  0  0  0  0  0  0  0
    4.9848   -3.0018    0.3421 C   0  0  0  0  0  0  0  0  0  0  0  0
    5.1404   -2.9368   -1.0295 C   0  0  0  0  0  0  0  0  0  0  0  0
    4.4884   -3.8508   -1.8437 C   0  0  0  0  0  0  0  0  0  0  0  0
    4.5229   -3.7748   -3.6091 S   0  0  0  0  0  0  0  0  0  0  0  0
    4.9786   -2.0442   -3.9193 C   0  0  0  0  0  0  0  0  0  0  0  0
    3.7605   -4.8871   -1.2621 C   0  0  0  0  0  0  0  0  0  0  0  0
    3.6194   -4.9604    0.1055 C   0  0  0  0  0  0  0  0  0  0  0  0
    4.2612   -2.4459    4.2308 C   0  0  0  0  0  0  0  0  0  0  0  0
    5.2200   -3.3009    5.3795 S   0  0  0  0  0  0  0  0  0  0  0  0
    2.2715   -1.5430    1.2083 C   0  0  0  0  0  0  0  0  0  0  0  0
    0.9178   -1.6572    0.9889 C   0  0  0  0  0  0  0  0  0  0  0  0
   -0.0211   -2.1248    1.9015 N   0  0  0  0  0  0  0  0  0  0  0  0
    0.0972   -3.3701    2.5196 C   0  0  0  0  0  0  0  0  0  0  0  0
   -0.4617   -3.5758    3.7784 C   0  0  0  0  0  0  0  0  0  0  0  0
   -0.4261   -4.8228    4.3718 C   0  0  0  0  0  0  0  0  0  0  0  0
    0.1723   -5.8879    3.7130 C   0  0  0  0  0  0  0  0  0  0  0  0
    0.2485   -7.5324    4.3505 S   0  0  0  0  0  0  0  0  0  0  0  0
   -0.7965   -7.4722    5.8373 C   0  0  0  0  0  0  0  0  0  0  0  0
    0.7638   -5.6778    2.4695 C   0  0  0  0  0  0  0  0  0  0  0  0
    0.7287   -4.4351    1.8775 C   0  0  0  0  0  0  0  0  0  0  0  0
   -1.2301   -1.4072    1.9445 C   0  0  0  0  0  0  0  0  0  0  0  0
   -2.4630   -2.0517    1.9293 C   0  0  0  0  0  0  0  0  0  0  0  0
   -3.6347   -1.3236    1.8560 C   0  0  0  0  0  0  0  0  0  0  0  0
   -3.5925    0.0631    1.7935 C   0  0  0  0  0  0  0  0  0  0  0  0
   -5.0238    1.0792    1.6032 S   0  0  0  0  0  0  0  0  0  0  0  0
   -6.3746    0.0048    2.1612 C   0  0  0  0  0  0  0  0  0  0  0  0
   -2.3614    0.7131    1.8460 C   0  0  0  0  0  0  0  0  0  0  0  0
   -1.1942   -0.0116    1.9289 C   0  0  0  0  0  0  0  0  0  0  0  0
    0.5530   -1.1087   -0.2688 C   0  0  0  0  0  0  0  0  0  0  0  0
   -0.9327   -0.9390   -1.1231 S   0  0  0  0  0  0  0  0  0  0  0  0
   -0.1365   -0.0082   -2.3956 C   0  0  0  0  0  0  0  0  0  0  0  0
    1.2310    0.0982   -2.1805 C   0  0  0  0  0  0  0  0  0  0  0  0
    2.1655    0.8093   -2.9245 N   0  0  0  0  0  0  0  0  0  0  0  0
    2.3025    0.6428   -4.3016 C   0  0  0  0  0  0  0  0  0  0  0  0
    2.8128    1.6822   -5.0825 C   0  0  0  0  0  0  0  0  0  0  0  0
    2.9234    1.5338   -6.4448 C   0  0  0  0  0  0  0  0  0  0  0  0
    2.5236    0.3513   -7.0627 C   0  0  0  0  0  0  0  0  0  0  0  0
    2.6826    0.2619   -8.8198 S   0  0  0  0  0  0  0  0  0  0  0  0
    1.3890   -0.9217   -9.2827 C   0  0  0  0  0  0  0  0  0  0  0  0
    2.0449   -0.6961   -6.2896 C   0  0  0  0  0  0  0  0  0  0  0  0
    1.9357   -0.5515   -4.9201 C   0  0  0  0  0  0  0  0  0  0  0  0
    3.1142    1.5360   -2.1843 C   0  0  0  0  0  0  0  0  0  0  0  0
    2.7045    2.2527   -1.0575 C   0  0  0  0  0  0  0  0  0  0  0  0
    3.6280    2.8780   -0.2520 C   0  0  0  0  0  0  0  0  0  0  0  0
    4.9851    2.8182   -0.5627 C   0  0  0  0  0  0  0  0  0  0  0  0
    6.0946    3.6083    0.5620 S   0  0  0  0  0  0  0  0  0  0  0  0
    7.7439    3.2579   -0.1014 C   0  0  0  0  0  0  0  0  0  0  0  0
    5.3941    2.1527   -1.7096 C   0  0  0  0  0  0  0  0  0  0  0  0
    4.4668    1.5141   -2.5102 C   0  0  0  0  0  0  0  0  0  0  0  0
    1.5972   -0.5316   -0.9613 C   0  0  0  0  0  0  0  0  0  0  0  0
    3.0891   -0.7130   -0.1128 S   0  0  0  0  0  0  0  0  0  0  0  0
   -1.0203    0.5404   -3.3705 C   0  0  0  0  0  0  0  0  0  0  0  0
   -2.3706    0.6732   -3.1791 C   0  0  0  0  0  0  0  0  0  0  0  0
   -3.0628    1.2195   -4.2801 C   0  0  0  0  0  0  0  0  0  0  0  0
   -4.4418    1.4533   -4.4015 C   0  0  0  0  0  0  0  0  0  0  0  0
   -5.3965    1.0404   -3.3653 C   0  0  0  0  0  0  0  0  0  0  0  0
   -5.3825   -0.2619   -2.8673 C   0  0  0  0  0  0  0  0  0  0  0  0
   -6.3538   -0.6863   -1.9860 C   0  0  0  0  0  0  0  0  0  0  0  0
   -7.3606    0.1725   -1.5551 C   0  0  0  0  0  0  0  0  0  0  0  0
   -8.6040   -0.4764   -0.4727 S   0  0  0  0  0  0  0  0  0  0  0  0
  -10.1564    0.1936   -1.1720 C   0  0  0  0  0  0  0  0  0  0  0  0
  -10.3262   -0.1628   -2.6349 C   0  0  0  0  0  0  0  0  0  0  0  0
   -7.3189    1.4897   -2.0001 C   0  0  0  0  0  0  0  0  0  0  0  0
   -8.2221    2.3897   -1.5611 F   0  0  0  0  0  0  0  0  0  0  0  0
   -6.3715    1.9198   -2.9062 C   0  0  0  0  0  0  0  0  0  0  0  0
   -4.8742    2.0408   -5.5822 C   0  0  0  0  0  0  0  0  0  0  0  0
   -3.9959    2.3198   -6.6654 C   0  0  0  0  0  0  0  0  0  0  0  0
   -2.6171    2.0190   -6.5694 C   0  0  0  0  0  0  0  0  0  0  0  0
   -1.7272    2.1352   -7.7273 C   0  0  0  0  0  0  0  0  0  0  0  0
   -0.4707    2.7284   -7.6447 C   0  0  0  0  0  0  0  0  0  0  0  0
    0.3643    2.7933   -8.7437 C   0  0  0  0  0  0  0  0  0  0  0  0
   -0.0171    2.2490   -9.9653 C   0  0  0  0  0  0  0  0  0  0  0  0
    0.9467    2.2144  -11.4343 S   0  0  0  0  0  0  0  0  0  0  0  0
    2.4133    3.2255  -11.0478 C   0  0  0  0  0  0  0  0  0  0  0  0
    2.1044    4.7107  -11.0448 C   0  0  0  0  0  0  0  0  0  0  0  0
   -1.2732    1.6397  -10.0279 C   0  0  0  0  0  0  0  0  0  0  0  0
   -2.1219    1.5841   -8.9480 C   0  0  0  0  0  0  0  0  0  0  0  0
   -1.6657    1.0701  -11.1860 F   0  0  0  0  0  0  0  0  0  0  0  0
   -2.1835    1.5299   -5.3518 C   0  0  0  0  0  0  0  0  0  0  0  0
   -0.5327    1.1218   -4.9503 S   0  0  0  0  0  0  0  0  0  0  0  0
   -4.6795    2.9159   -7.7347 C   0  0  0  0  0  0  0  0  0  0  0  0
   -6.0394    3.0695   -7.5236 C   0  0  0  0  0  0  0  0  0  0  0  0
   -6.5238    2.4512   -5.9566 S   0  0  0  0  0  0  0  0  0  0  0  0
   -6.8683    3.7049   -8.4690 C   0  0  0  0  0  0  0  0  0  0  0  0
   -8.2152    3.9455   -8.4523 C   0  0  0  0  0  0  0  0  0  0  0  0
   -9.1725    3.4726   -7.4355 C   0  0  0  0  0  0  0  0  0  0  0  0
   -8.9364    2.8484   -6.4196 O   0  0  0  0  0  0  0  0  0  0  0  0
  -10.5034    3.8931   -7.9080 C   0  0  0  0  0  0  0  0  0  0  0  0
  -11.7371    3.6762   -7.3239 C   0  0  0  0  0  0  0  0  0  0  0  0
  -12.8659    4.1678   -7.9587 C   0  0  0  0  0  0  0  0  0  0  0  0
  -12.7372    4.8603   -9.1579 C   0  0  0  0  0  0  0  0  0  0  0  0
  -14.1522    5.4612   -9.9342 Cl  0  0  0  0  0  0  0  0  0  0  0  0
  -11.5005    5.0862   -9.7551 C   0  0  0  0  0  0  0  0  0  0  0  0
  -10.3729    4.5959   -9.1182 C   0  0  0  0  0  0  0  0  0  0  0  0
   -8.9544    4.6685   -9.4713 C   0  0  0  0  0  0  0  0  0  0  0  0
   -8.4442    5.3454  -10.5477 C   0  0  0  0  0  0  0  0  0  0  0  0
   -9.2298    6.0416  -11.4916 C   0  0  0  0  0  0  0  0  0  0  0  0
   -9.8022    6.6279  -12.2952 N   0  0  0  0  0  0  0  0  0  0  0  0
   -7.0765    5.4772  -10.8699 C   0  0  0  0  0  0  0  0  0  0  0  0
   -5.9897    5.6481  -11.2003 N   0  0  0  0  0  0  0  0  0  0  0  0
    6.1506   -3.0549    7.9568 H   0  0  0  0  0  0  0  0  0  0  0  0
    7.8927    2.9398    8.2868 H   0  0  0  0  0  0  0  0  0  0  0  0
    8.7538    3.7705   10.4746 H   0  0  0  0  0  0  0  0  0  0  0  0
    7.8364    0.0237   12.3187 H   0  0  0  0  0  0  0  0  0  0  0  0
    4.6593    2.4873    7.9552 H   0  0  0  0  0  0  0  0  0  0  0  0
    4.6218    2.7268   10.4075 H   0  0  0  0  0  0  0  0  0  0  0  0
    2.4284   -0.7441   12.9086 H   0  0  0  0  0  0  0  0  0  0  0  0
    4.1117   -1.3695   12.9707 H   0  0  0  0  0  0  0  0  0  0  0  0
    3.4739   -0.3870   14.3012 H   0  0  0  0  0  0  0  0  0  0  0  0
    3.1983   -1.2925   10.7649 H   0  0  0  0  0  0  0  0  0  0  0  0
    3.2437   -1.5292    8.3530 H   0  0  0  0  0  0  0  0  0  0  0  0
    5.5591    1.4074    4.6995 H   0  0  0  0  0  0  0  0  0  0  0  0
    4.9494    3.3219    3.2792 H   0  0  0  0  0  0  0  0  0  0  0  0
    3.7916    6.7804    2.4405 H   0  0  0  0  0  0  0  0  0  0  0  0
    4.6970    5.8716    3.6739 H   0  0  0  0  0  0  0  0  0  0  0  0
    4.5670    5.2429    2.0034 H   0  0  0  0  0  0  0  0  0  0  0  0
    1.2167    3.6450    5.3451 H   0  0  0  0  0  0  0  0  0  0  0  0
    1.8332    1.7123    6.7585 H   0  0  0  0  0  0  0  0  0  0  0  0
    5.4824   -6.0875    1.7673 H   0  0  0  0  0  0  0  0  0  0  0  0
    5.5905   -8.1652    3.0796 H   0  0  0  0  0  0  0  0  0  0  0  0
    3.0598   -9.9330    7.1592 H   0  0  0  0  0  0  0  0  0  0  0  0
    3.2880   -8.1894    7.4119 H   0  0  0  0  0  0  0  0  0  0  0  0
    2.1048   -8.7819    6.1947 H   0  0  0  0  0  0  0  0  0  0  0  0
    2.7861   -6.5428    5.8690 H   0  0  0  0  0  0  0  0  0  0  0  0
    2.6140   -4.5247    4.5274 H   0  0  0  0  0  0  0  0  0  0  0  0
    5.4747   -2.2718    0.9700 H   0  0  0  0  0  0  0  0  0  0  0  0
    5.7594   -2.1592   -1.4469 H   0  0  0  0  0  0  0  0  0  0  0  0
    4.7189   -1.8430   -4.9543 H   0  0  0  0  0  0  0  0  0  0  0  0
    4.4016   -1.4040   -3.2591 H   0  0  0  0  0  0  0  0  0  0  0  0
    6.0457   -1.9013   -3.7725 H   0  0  0  0  0  0  0  0  0  0  0  0
    3.2915   -5.6213   -1.8991 H   0  0  0  0  0  0  0  0  0  0  0  0
    3.0546   -5.7647    0.5501 H   0  0  0  0  0  0  0  0  0  0  0  0
   -0.9393   -2.7513    4.2871 H   0  0  0  0  0  0  0  0  0  0  0  0
   -0.8706   -4.9473    5.3462 H   0  0  0  0  0  0  0  0  0  0  0  0
   -1.7889   -7.1178    5.5752 H   0  0  0  0  0  0  0  0  0  0  0  0
   -0.8553   -8.4950    6.1969 H   0  0  0  0  0  0  0  0  0  0  0  0
   -0.3404   -6.8418    6.5956 H   0  0  0  0  0  0  0  0  0  0  0  0
    1.2300   -6.5133    1.9695 H   0  0  0  0  0  0  0  0  0  0  0  0
    1.1636   -4.2820    0.9012 H   0  0  0  0  0  0  0  0  0  0  0  0
   -2.5023   -3.1308    1.9469 H   0  0  0  0  0  0  0  0  0  0  0  0
   -4.5749   -1.8499    1.8194 H   0  0  0  0  0  0  0  0  0  0  0  0
   -7.2473    0.6451    2.2379 H   0  0  0  0  0  0  0  0  0  0  0  0
   -6.1280   -0.4095    3.1340 H   0  0  0  0  0  0  0  0  0  0  0  0
   -6.5675   -0.7762    1.4320 H   0  0  0  0  0  0  0  0  0  0  0  0
   -2.3342    1.7913    1.8172 H   0  0  0  0  0  0  0  0  0  0  0  0
   -0.2420    0.4976    1.9718 H   0  0  0  0  0  0  0  0  0  0  0  0
    3.0975    2.6111   -4.6122 H   0  0  0  0  0  0  0  0  0  0  0  0
    3.3132    2.3385   -7.0487 H   0  0  0  0  0  0  0  0  0  0  0  0
    1.7243   -1.9394   -9.1044 H   0  0  0  0  0  0  0  0  0  0  0  0
    1.2130   -0.7723  -10.3437 H   0  0  0  0  0  0  0  0  0  0  0  0
    0.4878   -0.6971   -8.7196 H   0  0  0  0  0  0  0  0  0  0  0  0
    1.7590   -1.6322   -6.7423 H   0  0  0  0  0  0  0  0  0  0  0  0
    1.5648   -1.3719   -4.3235 H   0  0  0  0  0  0  0  0  0  0  0  0
    1.6549    2.3014   -0.8088 H   0  0  0  0  0  0  0  0  0  0  0  0
    3.3027    3.4105    0.6280 H   0  0  0  0  0  0  0  0  0  0  0  0
    8.4409    3.7058    0.6004 H   0  0  0  0  0  0  0  0  0  0  0  0
    7.8584    3.7187   -1.0784 H   0  0  0  0  0  0  0  0  0  0  0  0
    7.9035    2.1845   -0.1455 H   0  0  0  0  0  0  0  0  0  0  0  0
    6.4350    2.1056   -1.9869 H   0  0  0  0  0  0  0  0  0  0  0  0
    4.8008    0.9830   -3.3893 H   0  0  0  0  0  0  0  0  0  0  0  0
   -2.8531    0.4102   -2.2545 H   0  0  0  0  0  0  0  0  0  0  0  0
   -4.6345   -0.9590   -3.2128 H   0  0  0  0  0  0  0  0  0  0  0  0
   -6.3609   -1.7058   -1.6320 H   0  0  0  0  0  0  0  0  0  0  0  0
  -10.1786    1.2691   -1.0092 H   0  0  0  0  0  0  0  0  0  0  0  0
  -10.9266   -0.2755   -0.5592 H   0  0  0  0  0  0  0  0  0  0  0  0
  -10.2502   -1.2390   -2.7782 H   0  0  0  0  0  0  0  0  0  0  0  0
   -9.5688    0.3234   -3.2473 H   0  0  0  0  0  0  0  0  0  0  0  0
  -11.3051    0.1665   -2.9773 H   0  0  0  0  0  0  0  0  0  0  0  0
   -6.3950    2.9482   -3.2294 H   0  0  0  0  0  0  0  0  0  0  0  0
   -0.1455    3.1668   -6.7138 H   0  0  0  0  0  0  0  0  0  0  0  0
    1.3265    3.2639   -8.6346 H   0  0  0  0  0  0  0  0  0  0  0  0
    2.8308    2.8718  -10.1065 H   0  0  0  0  0  0  0  0  0  0  0  0
    3.1104    2.9774  -11.8482 H   0  0  0  0  0  0  0  0  0  0  0  0
    1.3629    4.9580  -10.2883 H   0  0  0  0  0  0  0  0  0  0  0  0
    3.0117    5.2764  -10.8415 H   0  0  0  0  0  0  0  0  0  0  0  0
    1.7160    5.0150  -12.0140 H   0  0  0  0  0  0  0  0  0  0  0  0
   -3.0714    1.0824   -9.0511 H   0  0  0  0  0  0  0  0  0  0  0  0
   -4.1983    3.2576   -8.6345 H   0  0  0  0  0  0  0  0  0  0  0  0
   -6.3208    4.0536   -9.3367 H   0  0  0  0  0  0  0  0  0  0  0  0
  -11.8069    3.1354   -6.3930 H   0  0  0  0  0  0  0  0  0  0  0  0
  -13.8455    4.0191   -7.5331 H   0  0  0  0  0  0  0  0  0  0  0  0
  -11.4477    5.6267  -10.6855 H   0  0  0  0  0  0  0  0  0  0  0  0
  1  2  2  0  0  0  0
  2  3  1  0  0  0  0
  3  4  2  0  0  0  0
  3  5  1  0  0  0  0
  5  6  2  0  0  0  0
  6  7  1  0  0  0  0
  7  8  2  0  0  0  0
  8  9  1  0  0  0  0
  8 10  1  0  0  0  0
 10 11  2  0  0  0  0
 11 12  1  0  0  0  0
 12 13  2  0  0  0  0
 13 14  1  0  0  0  0
 14 15  3  0  0  0  0
 13 16  1  0  0  0  0
 16 17  3  0  0  0  0
  1 18  1  0  0  0  0
 18 19  2  0  0  0  0
 19 20  1  0  0  0  0
 20 21  1  0  0  0  0
 21 22  2  0  0  0  0
 22 23  1  0  0  0  0
 23 24  2  0  0  0  0
 24 25  1  0  0  0  0
 25 26  1  0  0  0  0
 24 27  1  0  0  0  0
 27 28  2  0  0  0  0
 20 29  1  0  0  0  0
 29 30  2  0  0  0  0
 30 31  1  0  0  0  0
 31 32  2  0  0  0  0
 32 33  1  0  0  0  0
 33 34  1  0  0  0  0
 32 35  1  0  0  0  0
 35 36  2  0  0  0  0
 19 37  1  0  0  0  0
 37 38  1  0  0  0  0
 38 39  1  0  0  0  0
 39 40  2  0  0  0  0
 40 41  1  0  0  0  0
 41 42  1  0  0  0  0
 42 43  2  0  0  0  0
 43 44  1  0  0  0  0
 44 45  2  0  0  0  0
 45 46  1  0  0  0  0
 46 47  1  0  0  0  0
 45 48  1  0  0  0  0
 48 49  2  0  0  0  0
 41 50  1  0  0  0  0
 50 51  2  0  0  0  0
 51 52  1  0  0  0  0
 52 53  2  0  0  0  0
 53 54  1  0  0  0  0
 54 55  1  0  0  0  0
 53 56  1  0  0  0  0
 56 57  2  0  0  0  0
 40 58  1  0  0  0  0
 58 59  1  0  0  0  0
 39 60  1  0  0  0  0
 60 61  2  0  0  0  0
 61 62  1  0  0  0  0
 62 63  1  0  0  0  0
 63 64  2  0  0  0  0
 64 65  1  0  0  0  0
 65 66  2  0  0  0  0
 66 67  1  0  0  0  0
 67 68  1  0  0  0  0
 66 69  1  0  0  0  0
 69 70  2  0  0  0  0
 62 71  1  0  0  0  0
 71 72  2  0  0  0  0
 72 73  1  0  0  0  0
 73 74  2  0  0  0  0
 74 75  1  0  0  0  0
 75 76  1  0  0  0  0
 74 77  1  0  0  0  0
 77 78  2  0  0  0  0
 61 79  1  0  0  0  0
 79 80  1  0  0  0  0
 80 81  1  0  0  0  0
 81 82  2  0  0  0  0
 82 83  1  0  0  0  0
 83 84  1  0  0  0  0
 84 85  2  0  0  0  0
 85 86  1  0  0  0  0
 86 87  2  0  0  0  0
 87 88  1  0  0  0  0
 88 89  1  0  0  0  0
 87 90  1  0  0  0  0
 90 91  2  0  0  0  0
 83 92  1  0  0  0  0
 92 93  2  0  0  0  0
 93 94  1  0  0  0  0
 94 95  2  0  0  0  0
 95 96  1  0  0  0  0
 96 97  1  0  0  0  0
 95 98  1  0  0  0  0
 98 99  2  0  0  0  0
 82100  1  0  0  0  0
100101  1  0  0  0  0
 81102  1  0  0  0  0
102103  2  0  0  0  0
103104  1  0  0  0  0
104105  2  0  0  0  0
105106  1  0  0  0  0
106107  2  0  0  0  0
107108  1  0  0  0  0
108109  2  0  0  0  0
109110  1  0  0  0  0
110111  1  0  0  0  0
111112  1  0  0  0  0
109113  1  0  0  0  0
113114  1  0  0  0  0
113115  2  0  0  0  0
105116  1  0  0  0  0
116117  2  0  0  0  0
117118  1  0  0  0  0
118119  1  0  0  0  0
119120  2  0  0  0  0
120121  1  0  0  0  0
121122  2  0  0  0  0
122123  1  0  0  0  0
123124  1  0  0  0  0
124125  1  0  0  0  0
122126  1  0  0  0  0
126127  2  0  0  0  0
126128  1  0  0  0  0
118129  2  0  0  0  0
129130  1  0  0  0  0
117131  1  0  0  0  0
131132  2  0  0  0  0
132133  1  0  0  0  0
132134  1  0  0  0  0
134135  2  0  0  0  0
135136  1  0  0  0  0
136137  2  0  0  0  0
136138  1  0  0  0  0
138139  2  0  0  0  0
139140  1  0  0  0  0
140141  2  0  0  0  0
141142  1  0  0  0  0
141143  1  0  0  0  0
143144  2  0  0  0  0
144145  1  0  0  0  0
145146  2  0  0  0  0
146147  1  0  0  0  0
147148  3  0  0  0  0
146149  1  0  0  0  0
149150  3  0  0  0  0
 12  2  1  0  0  0  0
 59 18  1  0  0  0  0
101 60  1  0  0  0  0
130102  1  0  0  0  0
145135  1  0  0  0  0
 11  5  1  0  0  0  0
 28 21  1  0  0  0  0
 36 29  1  0  0  0  0
 58 37  2  0  0  0  0
 70 63  1  0  0  0  0
 78 71  1  0  0  0  0
100 79  2  0  0  0  0
129104  1  0  0  0  0
144138  1  0  0  0  0
 49 42  1  0  0  0  0
 57 50  1  0  0  0  0
 91 84  1  0  0  0  0
 99 92  1  0  0  0  0
115106  1  0  0  0  0
133116  1  0  0  0  0
127119  1  0  0  0  0
  1151  1  0  0  0  0
  6152  1  0  0  0  0
  7153  1  0  0  0  0
 10154  1  0  0  0  0
 22155  1  0  0  0  0
 23156  1  0  0  0  0
 26157  1  0  0  0  0
 26158  1  0  0  0  0
 26159  1  0  0  0  0
 27160  1  0  0  0  0
 28161  1  0  0  0  0
 30162  1  0  0  0  0
 31163  1  0  0  0  0
 34164  1  0  0  0  0
 34165  1  0  0  0  0
 34166  1  0  0  0  0
 35167  1  0  0  0  0
 36168  1  0  0  0  0
 43169  1  0  0  0  0
 44170  1  0  0  0  0
 47171  1  0  0  0  0
 47172  1  0  0  0  0
 47173  1  0  0  0  0
 48174  1  0  0  0  0
 49175  1  0  0  0  0
 51176  1  0  0  0  0
 52177  1  0  0  0  0
 55178  1  0  0  0  0
 55179  1  0  0  0  0
 55180  1  0  0  0  0
 56181  1  0  0  0  0
 57182  1  0  0  0  0
 64183  1  0  0  0  0
 65184  1  0  0  0  0
 68185  1  0  0  0  0
 68186  1  0  0  0  0
 68187  1  0  0  0  0
 69188  1  0  0  0  0
 70189  1  0  0  0  0
 72190  1  0  0  0  0
 73191  1  0  0  0  0
 76192  1  0  0  0  0
 76193  1  0  0  0  0
 76194  1  0  0  0  0
 77195  1  0  0  0  0
 78196  1  0  0  0  0
 85197  1  0  0  0  0
 86198  1  0  0  0  0
 89199  1  0  0  0  0
 89200  1  0  0  0  0
 89201  1  0  0  0  0
 90202  1  0  0  0  0
 91203  1  0  0  0  0
 93204  1  0  0  0  0
 94205  1  0  0  0  0
 97206  1  0  0  0  0
 97207  1  0  0  0  0
 97208  1  0  0  0  0
 98209  1  0  0  0  0
 99210  1  0  0  0  0
103211  1  0  0  0  0
107212  1  0  0  0  0
108213  1  0  0  0  0
111214  1  0  0  0  0
111215  1  0  0  0  0
112216  1  0  0  0  0
112217  1  0  0  0  0
112218  1  0  0  0  0
115219  1  0  0  0  0
120220  1  0  0  0  0
121221  1  0  0  0  0
124222  1  0  0  0  0
124223  1  0  0  0  0
125224  1  0  0  0  0
125225  1  0  0  0  0
125226  1  0  0  0  0
127227  1  0  0  0  0
131228  1  0  0  0  0
134229  1  0  0  0  0
139230  1  0  0  0  0
140231  1  0  0  0  0
143232  1  0  0  0  0
M  END
