
  xtb     02152213523D
 energy: -278.068584343320 gnorm: 0.000720091975 xtb: 6.4.1 (unknown)
164179  0     0  0            999 V2000
    9.9847    3.3485   -5.1471 C   0  0  0  0  0  0  0  0  0  0  0  0
    9.6628    3.3103   -6.4715 C   0  0  0  0  0  0  0  0  0  0  0  0
    8.4905    2.6298   -7.0819 C   0  0  0  0  0  0  0  0  0  0  0  0
    7.4999    2.1830   -6.5429 O   0  0  0  0  0  0  0  0  0  0  0  0
    8.8037    2.5294   -8.5216 C   0  0  0  0  0  0  0  0  0  0  0  0
    8.0646    1.9253   -9.5217 C   0  0  0  0  0  0  0  0  0  0  0  0
    8.5597    1.9432  -10.8152 C   0  0  0  0  0  0  0  0  0  0  0  0
    9.7797    2.5562  -11.0805 C   0  0  0  0  0  0  0  0  0  0  0  0
   10.3836    2.5569  -12.6937 Cl  0  0  0  0  0  0  0  0  0  0  0  0
   10.5326    3.1692  -10.0839 C   0  0  0  0  0  0  0  0  0  0  0  0
   10.0323    3.1544   -8.7926 C   0  0  0  0  0  0  0  0  0  0  0  0
   10.5620    3.7000   -7.5459 C   0  0  0  0  0  0  0  0  0  0  0  0
   11.6615    4.5071   -7.4322 C   0  0  0  0  0  0  0  0  0  0  0  0
   12.0974    5.1194   -6.2368 C   0  0  0  0  0  0  0  0  0  0  0  0
   12.4991    5.6759   -5.3163 N   0  0  0  0  0  0  0  0  0  0  0  0
   12.4916    4.8710   -8.5139 C   0  0  0  0  0  0  0  0  0  0  0  0
   13.2083    5.1951   -9.3497 N   0  0  0  0  0  0  0  0  0  0  0  0
    9.1568    3.0241   -4.0239 C   0  0  0  0  0  0  0  0  0  0  0  0
    7.7775    3.2497   -4.0281 C   0  0  0  0  0  0  0  0  0  0  0  0
    7.0438    2.8402   -2.9332 C   0  0  0  0  0  0  0  0  0  0  0  0
    5.6894    2.9190   -2.7195 N   0  0  0  0  0  0  0  0  0  0  0  0
    4.7229    3.3670   -3.6892 C   0  0  0  0  0  0  0  0  0  0  0  0
    4.3829    2.2647   -4.6903 C   0  0  0  0  0  0  0  0  0  0  0  0
    5.4043    2.2941   -1.5328 C   0  0  0  0  0  0  0  0  0  0  0  0
    6.6100    1.8551   -0.9245 C   0  0  0  0  0  0  0  0  0  0  0  0
    7.6623    2.2105   -1.8189 C   0  0  0  0  0  0  0  0  0  0  0  0
    9.0470    2.0500   -1.7973 C   0  0  0  0  0  0  0  0  0  0  0  0
    9.7775    2.4690   -2.8811 C   0  0  0  0  0  0  0  0  0  0  0  0
    6.5580    1.1565    0.2793 C   0  0  0  0  0  0  0  0  0  0  0  0
    5.3363    0.9001    0.8532 C   0  0  0  0  0  0  0  0  0  0  0  0
    4.1396    1.3590    0.2680 C   0  0  0  0  0  0  0  0  0  0  0  0
    4.1797    2.0596   -0.9358 C   0  0  0  0  0  0  0  0  0  0  0  0
    2.8516    1.0387    0.8410 C   0  0  0  0  0  0  0  0  0  0  0  0
    2.4888    0.7339    2.1408 C   0  0  0  0  0  0  0  0  0  0  0  0
    3.2973    0.8299    3.2660 N   0  0  0  0  0  0  0  0  0  0  0  0
    3.1239   -0.1240    4.2790 C   0  0  0  0  0  0  0  0  0  0  0  0
    2.9261   -1.4649    3.9455 C   0  0  0  0  0  0  0  0  0  0  0  0
    2.7270   -2.4046    4.9310 C   0  0  0  0  0  0  0  0  0  0  0  0
    2.7296   -2.0317    6.2734 C   0  0  0  0  0  0  0  0  0  0  0  0
    2.4655   -3.3262    7.4446 S   0  0  0  0  0  0  0  0  0  0  0  0
    2.5344   -2.4866    9.0523 C   0  0  0  0  0  0  0  0  0  0  0  0
    2.9353   -0.7006    6.6107 C   0  0  0  0  0  0  0  0  0  0  0  0
    3.1258    0.2436    5.6212 C   0  0  0  0  0  0  0  0  0  0  0  0
    4.1990    1.8870    3.4211 C   0  0  0  0  0  0  0  0  0  0  0  0
    3.9582    3.1292    2.8413 C   0  0  0  0  0  0  0  0  0  0  0  0
    4.8787    4.1527    2.9497 C   0  0  0  0  0  0  0  0  0  0  0  0
    6.0605    3.9559    3.6492 C   0  0  0  0  0  0  0  0  0  0  0  0
    7.3164    5.1824    3.8444 S   0  0  0  0  0  0  0  0  0  0  0  0
    6.8092    6.5056    2.7103 C   0  0  0  0  0  0  0  0  0  0  0  0
    6.2955    2.7237    4.2554 C   0  0  0  0  0  0  0  0  0  0  0  0
    5.3818    1.7017    4.1409 C   0  0  0  0  0  0  0  0  0  0  0  0
    1.1235    0.3482    2.2143 C   0  0  0  0  0  0  0  0  0  0  0  0
    0.0765   -0.1463    3.4971 S   0  0  0  0  0  0  0  0  0  0  0  0
   -1.2607   -0.3302    2.3717 C   0  0  0  0  0  0  0  0  0  0  0  0
   -0.9220    0.0374    1.0813 C   0  0  0  0  0  0  0  0  0  0  0  0
   -1.7703    0.1188   -0.0149 N   0  0  0  0  0  0  0  0  0  0  0  0
   -1.2185   -0.0362   -1.2974 C   0  0  0  0  0  0  0  0  0  0  0  0
   -1.5586    0.8496   -2.3205 C   0  0  0  0  0  0  0  0  0  0  0  0
   -0.9517    0.7503   -3.5511 C   0  0  0  0  0  0  0  0  0  0  0  0
    0.0061   -0.2342   -3.7913 C   0  0  0  0  0  0  0  0  0  0  0  0
    0.7706   -0.2179   -5.3831 S   0  0  0  0  0  0  0  0  0  0  0  0
    2.1638   -1.3679   -5.2019 C   0  0  0  0  0  0  0  0  0  0  0  0
    0.3058   -1.1525   -2.7957 C   0  0  0  0  0  0  0  0  0  0  0  0
   -0.3045   -1.0526   -1.5596 C   0  0  0  0  0  0  0  0  0  0  0  0
   -3.1360    0.3930    0.1128 C   0  0  0  0  0  0  0  0  0  0  0  0
   -3.6252    1.2498    1.0953 C   0  0  0  0  0  0  0  0  0  0  0  0
   -4.9839    1.3851    1.3028 C   0  0  0  0  0  0  0  0  0  0  0  0
   -5.8823    0.6804    0.5133 C   0  0  0  0  0  0  0  0  0  0  0  0
   -7.6322    0.6732    0.7491 S   0  0  0  0  0  0  0  0  0  0  0  0
   -7.8680    1.5776    2.3016 C   0  0  0  0  0  0  0  0  0  0  0  0
   -5.3994   -0.0964   -0.5377 C   0  0  0  0  0  0  0  0  0  0  0  0
   -4.0459   -0.2433   -0.7343 C   0  0  0  0  0  0  0  0  0  0  0  0
    0.4500    0.3974    1.0079 C   0  0  0  0  0  0  0  0  0  0  0  0
    1.4844    0.9417   -0.2622 S   0  0  0  0  0  0  0  0  0  0  0  0
   -2.5582   -0.7344    2.8773 C   0  0  0  0  0  0  0  0  0  0  0  0
   -3.3694   -1.5819    2.1284 C   0  0  0  0  0  0  0  0  0  0  0  0
   -4.6804   -1.7661    2.5350 C   0  0  0  0  0  0  0  0  0  0  0  0
   -5.7030   -2.4348    1.9166 N   0  0  0  0  0  0  0  0  0  0  0  0
   -5.6125   -3.2564    0.7385 C   0  0  0  0  0  0  0  0  0  0  0  0
   -5.5679   -4.7415    1.0938 C   0  0  0  0  0  0  0  0  0  0  0  0
   -6.8434   -2.2710    2.6615 C   0  0  0  0  0  0  0  0  0  0  0  0
   -6.5513   -1.4831    3.8064 C   0  0  0  0  0  0  0  0  0  0  0  0
   -5.1671   -1.1544    3.7216 C   0  0  0  0  0  0  0  0  0  0  0  0
   -4.3109   -0.3970    4.5167 C   0  0  0  0  0  0  0  0  0  0  0  0
   -3.0215   -0.1933    4.0902 C   0  0  0  0  0  0  0  0  0  0  0  0
   -7.5712   -1.1576    4.7009 C   0  0  0  0  0  0  0  0  0  0  0  0
   -8.8401   -1.6141    4.4494 C   0  0  0  0  0  0  0  0  0  0  0  0
   -9.1300   -2.4231    3.3253 C   0  0  0  0  0  0  0  0  0  0  0  0
   -8.1205   -2.7296    2.4089 C   0  0  0  0  0  0  0  0  0  0  0  0
  -10.4820   -2.8582    3.1480 C   0  0  0  0  0  0  0  0  0  0  0  0
  -10.9554   -3.9677    2.5116 C   0  0  0  0  0  0  0  0  0  0  0  0
  -10.1860   -5.1794    2.1264 C   0  0  0  0  0  0  0  0  0  0  0  0
   -8.9854   -5.3527    2.1212 O   0  0  0  0  0  0  0  0  0  0  0  0
  -11.2014   -6.2031    1.8079 C   0  0  0  0  0  0  0  0  0  0  0  0
  -11.0054   -7.5220    1.4426 C   0  0  0  0  0  0  0  0  0  0  0  0
  -12.1149   -8.3120    1.1910 C   0  0  0  0  0  0  0  0  0  0  0  0
  -13.3907   -7.7719    1.3151 C   0  0  0  0  0  0  0  0  0  0  0  0
  -14.7578   -8.7735    1.0068 Cl  0  0  0  0  0  0  0  0  0  0  0  0
  -13.6017   -6.4467    1.6824 C   0  0  0  0  0  0  0  0  0  0  0  0
  -12.4902   -5.6577    1.9282 C   0  0  0  0  0  0  0  0  0  0  0  0
  -12.3680   -4.2555    2.3182 C   0  0  0  0  0  0  0  0  0  0  0  0
  -13.3998   -3.3593    2.3968 C   0  0  0  0  0  0  0  0  0  0  0  0
  -13.2656   -1.9812    2.6741 C   0  0  0  0  0  0  0  0  0  0  0  0
  -13.2441   -0.8491    2.8652 N   0  0  0  0  0  0  0  0  0  0  0  0
  -14.7540   -3.6899    2.1755 C   0  0  0  0  0  0  0  0  0  0  0  0
  -15.8723   -3.8948    2.0180 N   0  0  0  0  0  0  0  0  0  0  0  0
   11.0129    3.5861   -4.8973 H   0  0  0  0  0  0  0  0  0  0  0  0
    7.1224    1.4536   -9.2887 H   0  0  0  0  0  0  0  0  0  0  0  0
    8.0093    1.4841  -11.6210 H   0  0  0  0  0  0  0  0  0  0  0  0
   11.4757    3.6285  -10.3297 H   0  0  0  0  0  0  0  0  0  0  0  0
    7.3116    3.7470   -4.8609 H   0  0  0  0  0  0  0  0  0  0  0  0
    3.8241    3.6847   -3.1550 H   0  0  0  0  0  0  0  0  0  0  0  0
    5.1333    4.2351   -4.2118 H   0  0  0  0  0  0  0  0  0  0  0  0
    3.9960    1.3936   -4.1665 H   0  0  0  0  0  0  0  0  0  0  0  0
    5.2712    1.9756   -5.2471 H   0  0  0  0  0  0  0  0  0  0  0  0
    3.6270    2.6133   -5.3885 H   0  0  0  0  0  0  0  0  0  0  0  0
    9.5304    1.6006   -0.9434 H   0  0  0  0  0  0  0  0  0  0  0  0
   10.8495    2.3388   -2.8904 H   0  0  0  0  0  0  0  0  0  0  0  0
    7.4649    0.7973    0.7410 H   0  0  0  0  0  0  0  0  0  0  0  0
    5.2894    0.3021    1.7479 H   0  0  0  0  0  0  0  0  0  0  0  0
    3.2588    2.3923   -1.3912 H   0  0  0  0  0  0  0  0  0  0  0  0
    2.9323   -1.7626    2.9070 H   0  0  0  0  0  0  0  0  0  0  0  0
    2.5722   -3.4413    4.6745 H   0  0  0  0  0  0  0  0  0  0  0  0
    2.3770   -3.2640    9.7936 H   0  0  0  0  0  0  0  0  0  0  0  0
    3.5116   -2.0346    9.1948 H   0  0  0  0  0  0  0  0  0  0  0  0
    1.7415   -1.7474    9.1197 H   0  0  0  0  0  0  0  0  0  0  0  0
    2.9391   -0.3799    7.6398 H   0  0  0  0  0  0  0  0  0  0  0  0
    3.2718    1.2794    5.8898 H   0  0  0  0  0  0  0  0  0  0  0  0
    3.0406    3.2999    2.2990 H   0  0  0  0  0  0  0  0  0  0  0  0
    4.6559    5.1005    2.4868 H   0  0  0  0  0  0  0  0  0  0  0  0
    5.8990    6.9792    3.0673 H   0  0  0  0  0  0  0  0  0  0  0  0
    6.6800    6.1011    1.7108 H   0  0  0  0  0  0  0  0  0  0  0  0
    7.6229    7.2242    2.7170 H   0  0  0  0  0  0  0  0  0  0  0  0
    7.2125    2.5757    4.8047 H   0  0  0  0  0  0  0  0  0  0  0  0
    5.5858    0.7443    4.5971 H   0  0  0  0  0  0  0  0  0  0  0  0
   -2.2846    1.6261   -2.1310 H   0  0  0  0  0  0  0  0  0  0  0  0
   -1.1948    1.4480   -4.3377 H   0  0  0  0  0  0  0  0  0  0  0  0
    1.8024   -2.3897   -5.1286 H   0  0  0  0  0  0  0  0  0  0  0  0
    2.7586   -1.2527   -6.1026 H   0  0  0  0  0  0  0  0  0  0  0  0
    2.7535   -1.0948   -4.3318 H   0  0  0  0  0  0  0  0  0  0  0  0
    1.0139   -1.9477   -2.9637 H   0  0  0  0  0  0  0  0  0  0  0  0
   -0.0601   -1.7640   -0.7838 H   0  0  0  0  0  0  0  0  0  0  0  0
   -2.9356    1.7973    1.7195 H   0  0  0  0  0  0  0  0  0  0  0  0
   -5.3268    2.0376    2.0892 H   0  0  0  0  0  0  0  0  0  0  0  0
   -7.2706    1.1190    3.0840 H   0  0  0  0  0  0  0  0  0  0  0  0
   -7.6145    2.6252    2.1667 H   0  0  0  0  0  0  0  0  0  0  0  0
   -8.9232    1.4803    2.5376 H   0  0  0  0  0  0  0  0  0  0  0  0
   -6.1026   -0.6046   -1.1795 H   0  0  0  0  0  0  0  0  0  0  0  0
   -3.6800   -0.8745   -1.5312 H   0  0  0  0  0  0  0  0  0  0  0  0
   -2.9821   -2.0517    1.2381 H   0  0  0  0  0  0  0  0  0  0  0  0
   -6.4793   -3.0492    0.1041 H   0  0  0  0  0  0  0  0  0  0  0  0
   -4.7142   -2.9668    0.1899 H   0  0  0  0  0  0  0  0  0  0  0  0
   -6.4821   -5.0383    1.6019 H   0  0  0  0  0  0  0  0  0  0  0  0
   -4.7226   -4.9468    1.7470 H   0  0  0  0  0  0  0  0  0  0  0  0
   -5.4631   -5.3354    0.1898 H   0  0  0  0  0  0  0  0  0  0  0  0
   -4.6651    0.0436    5.4364 H   0  0  0  0  0  0  0  0  0  0  0  0
   -2.3497    0.4243    4.6678 H   0  0  0  0  0  0  0  0  0  0  0  0
   -7.3634   -0.5492    5.5686 H   0  0  0  0  0  0  0  0  0  0  0  0
   -9.6423   -1.3738    5.1314 H   0  0  0  0  0  0  0  0  0  0  0  0
   -8.3483   -3.2761    1.5115 H   0  0  0  0  0  0  0  0  0  0  0  0
  -11.2182   -2.2270    3.6332 H   0  0  0  0  0  0  0  0  0  0  0  0
  -10.0048   -7.9165    1.3568 H   0  0  0  0  0  0  0  0  0  0  0  0
  -12.0007   -9.3443    0.9007 H   0  0  0  0  0  0  0  0  0  0  0  0
  -14.6066   -6.0687    1.7725 H   0  0  0  0  0  0  0  0  0  0  0  0
  1  2  2  0  0  0  0
  2  3  1  0  0  0  0
  3  4  2  0  0  0  0
  3  5  1  0  0  0  0
  5  6  2  0  0  0  0
  6  7  1  0  0  0  0
  7  8  2  0  0  0  0
  8  9  1  0  0  0  0
  8 10  1  0  0  0  0
 10 11  2  0  0  0  0
 11 12  1  0  0  0  0
 12 13  2  0  0  0  0
 13 14  1  0  0  0  0
 14 15  3  0  0  0  0
 13 16  1  0  0  0  0
 16 17  3  0  0  0  0
  1 18  1  0  0  0  0
 18 19  2  0  0  0  0
 19 20  1  0  0  0  0
 20 21  1  0  0  0  0
 21 22  1  0  0  0  0
 22 23  1  0  0  0  0
 21 24  1  0  0  0  0
 24 25  2  0  0  0  0
 25 26  1  0  0  0  0
 26 27  1  0  0  0  0
 27 28  2  0  0  0  0
 25 29  1  0  0  0  0
 29 30  2  0  0  0  0
 30 31  1  0  0  0  0
 31 32  2  0  0  0  0
 31 33  1  0  0  0  0
 33 34  2  0  0  0  0
 34 35  1  0  0  0  0
 35 36  1  0  0  0  0
 36 37  2  0  0  0  0
 37 38  1  0  0  0  0
 38 39  2  0  0  0  0
 39 40  1  0  0  0  0
 40 41  1  0  0  0  0
 39 42  1  0  0  0  0
 42 43  2  0  0  0  0
 35 44  1  0  0  0  0
 44 45  2  0  0  0  0
 45 46  1  0  0  0  0
 46 47  2  0  0  0  0
 47 48  1  0  0  0  0
 48 49  1  0  0  0  0
 47 50  1  0  0  0  0
 50 51  2  0  0  0  0
 34 52  1  0  0  0  0
 52 53  1  0  0  0  0
 53 54  1  0  0  0  0
 54 55  2  0  0  0  0
 55 56  1  0  0  0  0
 56 57  1  0  0  0  0
 57 58  2  0  0  0  0
 58 59  1  0  0  0  0
 59 60  2  0  0  0  0
 60 61  1  0  0  0  0
 61 62  1  0  0  0  0
 60 63  1  0  0  0  0
 63 64  2  0  0  0  0
 56 65  1  0  0  0  0
 65 66  2  0  0  0  0
 66 67  1  0  0  0  0
 67 68  2  0  0  0  0
 68 69  1  0  0  0  0
 69 70  1  0  0  0  0
 68 71  1  0  0  0  0
 71 72  2  0  0  0  0
 55 73  1  0  0  0  0
 73 74  1  0  0  0  0
 54 75  1  0  0  0  0
 75 76  2  0  0  0  0
 76 77  1  0  0  0  0
 77 78  1  0  0  0  0
 78 79  1  0  0  0  0
 79 80  1  0  0  0  0
 78 81  1  0  0  0  0
 81 82  2  0  0  0  0
 82 83  1  0  0  0  0
 83 84  1  0  0  0  0
 84 85  2  0  0  0  0
 82 86  1  0  0  0  0
 86 87  2  0  0  0  0
 87 88  1  0  0  0  0
 88 89  2  0  0  0  0
 88 90  1  0  0  0  0
 90 91  2  0  0  0  0
 91 92  1  0  0  0  0
 92 93  2  0  0  0  0
 92 94  1  0  0  0  0
 94 95  2  0  0  0  0
 95 96  1  0  0  0  0
 96 97  2  0  0  0  0
 97 98  1  0  0  0  0
 97 99  1  0  0  0  0
 99100  2  0  0  0  0
100101  1  0  0  0  0
101102  2  0  0  0  0
102103  1  0  0  0  0
103104  3  0  0  0  0
102105  1  0  0  0  0
105106  3  0  0  0  0
 12  2  1  0  0  0  0
 28 18  1  0  0  0  0
 74 33  1  0  0  0  0
 85 75  1  0  0  0  0
101 91  1  0  0  0  0
 11  5  1  0  0  0  0
 26 20  2  0  0  0  0
 43 36  1  0  0  0  0
 51 44  1  0  0  0  0
 73 52  2  0  0  0  0
 83 77  2  0  0  0  0
100 94  1  0  0  0  0
 32 24  1  0  0  0  0
 64 57  1  0  0  0  0
 72 65  1  0  0  0  0
 89 81  1  0  0  0  0
  1107  1  0  0  0  0
  6108  1  0  0  0  0
  7109  1  0  0  0  0
 10110  1  0  0  0  0
 19111  1  0  0  0  0
 22112  1  0  0  0  0
 22113  1  0  0  0  0
 23114  1  0  0  0  0
 23115  1  0  0  0  0
 23116  1  0  0  0  0
 27117  1  0  0  0  0
 28118  1  0  0  0  0
 29119  1  0  0  0  0
 30120  1  0  0  0  0
 32121  1  0  0  0  0
 37122  1  0  0  0  0
 38123  1  0  0  0  0
 41124  1  0  0  0  0
 41125  1  0  0  0  0
 41126  1  0  0  0  0
 42127  1  0  0  0  0
 43128  1  0  0  0  0
 45129  1  0  0  0  0
 46130  1  0  0  0  0
 49131  1  0  0  0  0
 49132  1  0  0  0  0
 49133  1  0  0  0  0
 50134  1  0  0  0  0
 51135  1  0  0  0  0
 58136  1  0  0  0  0
 59137  1  0  0  0  0
 62138  1  0  0  0  0
 62139  1  0  0  0  0
 62140  1  0  0  0  0
 63141  1  0  0  0  0
 64142  1  0  0  0  0
 66143  1  0  0  0  0
 67144  1  0  0  0  0
 70145  1  0  0  0  0
 70146  1  0  0  0  0
 70147  1  0  0  0  0
 71148  1  0  0  0  0
 72149  1  0  0  0  0
 76150  1  0  0  0  0
 79151  1  0  0  0  0
 79152  1  0  0  0  0
 80153  1  0  0  0  0
 80154  1  0  0  0  0
 80155  1  0  0  0  0
 84156  1  0  0  0  0
 85157  1  0  0  0  0
 86158  1  0  0  0  0
 87159  1  0  0  0  0
 89160  1  0  0  0  0
 90161  1  0  0  0  0
 95162  1  0  0  0  0
 96163  1  0  0  0  0
 99164  1  0  0  0  0
M  END
