
  xtb     02042204203D
 energy: -251.826403949443 gnorm: 0.000418399730 xtb: 6.4.1 (unknown)
131145  0     0  0            999 V2000
    7.0264   -1.9305    4.1172 C   0  0  0  0  0  0  0  0  0  0  0  0
    7.1070   -2.5486    5.3302 C   0  0  0  0  0  0  0  0  0  0  0  0
    6.0756   -2.4225    6.7245 S   0  0  0  0  0  0  0  0  0  0  0  0
    6.9850   -3.6740    7.5662 C   0  0  0  0  0  0  0  0  0  0  0  0
    6.6176   -4.1939    9.0707 S   0  0  0  0  0  0  0  0  0  0  0  0
    8.0132   -4.1203    6.8088 N   0  0  0  0  0  0  0  0  0  0  0  0
    8.8904   -5.1914    7.2374 C   0  0  0  0  0  0  0  0  0  0  0  0
    8.2469   -6.5522    7.0025 C   0  0  0  0  0  0  0  0  0  0  0  0
    8.1550   -3.5477    5.5585 C   0  0  0  0  0  0  0  0  0  0  0  0
    9.0190   -3.8698    4.7703 O   0  0  0  0  0  0  0  0  0  0  0  0
    6.0021   -1.1348    3.5668 C   0  0  0  0  0  0  0  0  0  0  0  0
    6.0163   -0.8224    2.1823 C   0  0  0  0  0  0  0  0  0  0  0  0
    4.8603   -0.2969    1.4871 C   0  0  0  0  0  0  0  0  0  0  0  0
    5.0881   -0.1401    0.1838 N   0  0  0  0  0  0  0  0  0  0  0  0
    6.5958   -0.5955   -0.1423 S   0  0  0  0  0  4  0  0  0  0  0  0
    7.0297   -1.0336    1.3442 N   0  0  0  0  0  0  0  0  0  0  0  0
    3.6175   -0.1332    2.1324 C   0  0  0  0  0  0  0  0  0  0  0  0
    3.6733   -0.2127    3.5408 C   0  0  0  0  0  0  0  0  0  0  0  0
    2.7025    0.1502    4.3792 N   0  0  0  0  0  0  0  0  0  0  0  0
    3.2011   -0.0651    5.8900 S   0  0  0  0  0  0  0  0  0  0  0  0
    4.6656   -0.6419    5.5604 N   0  0  0  0  0  0  0  0  0  0  0  0
    4.8443   -0.6847    4.2438 C   0  0  0  0  0  0  0  0  0  0  0  0
    2.4036   -0.0209    1.4136 C   0  0  0  0  0  0  0  0  0  0  0  0
    1.1634   -0.5723    1.7642 C   0  0  0  0  0  0  0  0  0  0  0  0
    0.9510   -1.4810    2.7785 N   0  0  0  0  0  0  0  0  0  0  0  0
   -0.3335   -1.5339    3.3396 C   0  0  0  0  0  0  0  0  0  0  0  0
   -0.9947   -0.3460    3.6559 C   0  0  0  0  0  0  0  0  0  0  0  0
   -2.3029   -0.3755    4.0800 C   0  0  0  0  0  0  0  0  0  0  0  0
   -2.9775   -1.5897    4.1988 C   0  0  0  0  0  0  0  0  0  0  0  0
   -4.6748   -1.5007    4.6622 S   0  0  0  0  0  0  0  0  0  0  0  0
   -5.2903   -3.1855    4.3796 C   0  0  0  0  0  0  0  0  0  0  0  0
   -2.2990   -2.7771    3.9523 C   0  0  0  0  0  0  0  0  0  0  0  0
   -0.9860   -2.7484    3.5253 C   0  0  0  0  0  0  0  0  0  0  0  0
    1.9350   -2.4114    3.1256 C   0  0  0  0  0  0  0  0  0  0  0  0
    2.8112   -2.9125    2.1620 C   0  0  0  0  0  0  0  0  0  0  0  0
    3.8600   -3.7346    2.5143 C   0  0  0  0  0  0  0  0  0  0  0  0
    4.0531   -4.0877    3.8453 C   0  0  0  0  0  0  0  0  0  0  0  0
    5.3968   -5.0809    4.4038 S   0  0  0  0  0  0  0  0  0  0  0  0
    6.4867   -5.1962    2.9589 C   0  0  0  0  0  0  0  0  0  0  0  0
    3.1347   -3.6557    4.8021 C   0  0  0  0  0  0  0  0  0  0  0  0
    2.0862   -2.8349    4.4476 C   0  0  0  0  0  0  0  0  0  0  0  0
    0.1796   -0.2217    0.8154 C   0  0  0  0  0  0  0  0  0  0  0  0
   -1.5300   -0.4731    0.7082 S   0  0  0  0  0  0  0  0  0  0  0  0
   -1.5669    0.2962   -0.8778 C   0  0  0  0  0  0  0  0  0  0  0  0
   -0.3069    0.8226   -1.2383 C   0  0  0  0  0  0  0  0  0  0  0  0
    0.0065    1.6091   -2.3172 N   0  0  0  0  0  0  0  0  0  0  0  0
    1.3137    1.4576   -2.8228 C   0  0  0  0  0  0  0  0  0  0  0  0
    2.1657    2.5474   -2.9639 C   0  0  0  0  0  0  0  0  0  0  0  0
    3.4845    2.3585   -3.3285 C   0  0  0  0  0  0  0  0  0  0  0  0
    3.9673    1.0757   -3.5579 C   0  0  0  0  0  0  0  0  0  0  0  0
    5.6432    0.7051   -3.9451 S   0  0  0  0  0  0  0  0  0  0  0  0
    6.5146    2.2682   -3.6390 C   0  0  0  0  0  0  0  0  0  0  0  0
    3.0959   -0.0109   -3.4816 C   0  0  0  0  0  0  0  0  0  0  0  0
    1.7835    0.1770   -3.1168 C   0  0  0  0  0  0  0  0  0  0  0  0
   -0.8316    2.5935   -2.8251 C   0  0  0  0  0  0  0  0  0  0  0  0
   -0.6838    3.0246   -4.1491 C   0  0  0  0  0  0  0  0  0  0  0  0
   -1.5016    4.0047   -4.6555 C   0  0  0  0  0  0  0  0  0  0  0  0
   -2.4776    4.6036   -3.8533 C   0  0  0  0  0  0  0  0  0  0  0  0
   -3.4422    5.8573   -4.6042 S   0  0  0  0  0  0  0  0  0  0  0  0
   -4.6529    6.3082   -3.3306 C   0  0  0  0  0  0  0  0  0  0  0  0
   -2.6109    4.1960   -2.5284 C   0  0  0  0  0  0  0  0  0  0  0  0
   -1.7991    3.2034   -2.0251 C   0  0  0  0  0  0  0  0  0  0  0  0
    0.6674    0.4885   -0.2704 C   0  0  0  0  0  0  0  0  0  0  0  0
    2.3764    0.7741   -0.1424 S   0  0  0  0  0  0  0  0  0  0  0  0
   -2.7817    0.2111   -1.5857 C   0  0  0  0  0  0  0  0  0  0  0  0
   -2.9598    0.3666   -2.9821 C   0  0  0  0  0  0  0  0  0  0  0  0
   -4.2582    0.2758   -3.6213 C   0  0  0  0  0  0  0  0  0  0  0  0
   -4.1552    0.3712   -4.9452 N   0  0  0  0  0  0  0  0  0  0  0  0
   -2.6059    0.5480   -5.3549 S   0  0  0  0  0  4  0  0  0  0  0  0
   -1.9819    0.5170   -3.8731 N   0  0  0  0  0  0  0  0  0  0  0  0
   -5.4595    0.0276   -2.9097 C   0  0  0  0  0  0  0  0  0  0  0  0
   -5.2589   -0.2494   -1.5320 C   0  0  0  0  0  0  0  0  0  0  0  0
   -6.2059   -0.5936   -0.6629 N   0  0  0  0  0  0  0  0  0  0  0  0
   -5.5511   -0.7992    0.7918 S   0  0  0  0  0  0  0  0  0  0  0  0
   -4.0272   -0.4562    0.3958 N   0  0  0  0  0  0  0  0  0  0  0  0
   -3.9671   -0.1642   -0.9009 C   0  0  0  0  0  0  0  0  0  0  0  0
   -6.7500   -0.0808   -3.4568 C   0  0  0  0  0  0  0  0  0  0  0  0
   -7.2365    0.3070   -4.6823 C   0  0  0  0  0  0  0  0  0  0  0  0
   -8.4578   -0.3422   -5.2115 C   0  0  0  0  0  0  0  0  0  0  0  0
   -9.2246   -1.0617   -4.6142 O   0  0  0  0  0  0  0  0  0  0  0  0
   -8.5083    0.0459   -6.6456 C   0  0  0  0  0  0  0  0  0  0  0  0
   -7.4617    0.9468   -6.9185 C   0  0  0  0  0  0  0  0  0  0  0  0
   -7.2785    1.4383   -8.1992 C   0  0  0  0  0  0  0  0  0  0  0  0
   -8.1460    1.0204   -9.1988 C   0  0  0  0  0  0  0  0  0  0  0  0
   -9.1813    0.1412   -8.9256 C   0  0  0  0  0  0  0  0  0  0  0  0
  -10.3350   -0.3824  -10.3289 Br  0  0  0  0  0  0  0  0  0  0  0  0
   -9.3840   -0.3642   -7.6358 C   0  0  0  0  0  0  0  0  0  0  0  0
  -10.6659   -1.4484   -7.2981 Cl  0  0  0  0  0  0  0  0  0  0  0  0
   -6.7411    1.2103   -5.6746 C   0  0  0  0  0  0  0  0  0  0  0  0
   -5.8939    2.2740   -5.4563 C   0  0  0  0  0  0  0  0  0  0  0  0
   -5.5068    2.6851   -4.1720 C   0  0  0  0  0  0  0  0  0  0  0  0
   -5.2069    3.1002   -3.1420 N   0  0  0  0  0  0  0  0  0  0  0  0
   -5.3878    3.1144   -6.4629 C   0  0  0  0  0  0  0  0  0  0  0  0
   -4.9058    3.8074   -7.2426 N   0  0  0  0  0  0  0  0  0  0  0  0
    7.8358   -2.1717    3.4351 H   0  0  0  0  0  0  0  0  0  0  0  0
    9.1053   -5.0504    8.2993 H   0  0  0  0  0  0  0  0  0  0  0  0
    9.8073   -5.0932    6.6516 H   0  0  0  0  0  0  0  0  0  0  0  0
    8.0049   -6.6793    5.9500 H   0  0  0  0  0  0  0  0  0  0  0  0
    8.9339   -7.3374    7.3035 H   0  0  0  0  0  0  0  0  0  0  0  0
    7.3336   -6.6425    7.5851 H   0  0  0  0  0  0  0  0  0  0  0  0
   -0.4699    0.5915    3.5553 H   0  0  0  0  0  0  0  0  0  0  0  0
   -2.8255    0.5398    4.3095 H   0  0  0  0  0  0  0  0  0  0  0  0
   -4.8667   -3.8698    5.1088 H   0  0  0  0  0  0  0  0  0  0  0  0
   -6.3662   -3.1305    4.5126 H   0  0  0  0  0  0  0  0  0  0  0  0
   -5.0573   -3.4930    3.3646 H   0  0  0  0  0  0  0  0  0  0  0  0
   -2.7860   -3.7312    4.0714 H   0  0  0  0  0  0  0  0  0  0  0  0
   -0.4701   -3.6719    3.3072 H   0  0  0  0  0  0  0  0  0  0  0  0
    2.6719   -2.6498    1.1237 H   0  0  0  0  0  0  0  0  0  0  0  0
    4.5162   -4.1004    1.7411 H   0  0  0  0  0  0  0  0  0  0  0  0
    7.4221   -5.6101    3.3233 H   0  0  0  0  0  0  0  0  0  0  0  0
    6.6678   -4.2030    2.5591 H   0  0  0  0  0  0  0  0  0  0  0  0
    6.0529   -5.8569    2.2136 H   0  0  0  0  0  0  0  0  0  0  0  0
    3.2684   -3.9538    5.8304 H   0  0  0  0  0  0  0  0  0  0  0  0
    1.3923   -2.4860    5.1981 H   0  0  0  0  0  0  0  0  0  0  0  0
    1.7994    3.5421   -2.7581 H   0  0  0  0  0  0  0  0  0  0  0  0
    4.1288    3.2183   -3.4116 H   0  0  0  0  0  0  0  0  0  0  0  0
    7.5708    2.0395   -3.7397 H   0  0  0  0  0  0  0  0  0  0  0  0
    6.2298    3.0105   -4.3789 H   0  0  0  0  0  0  0  0  0  0  0  0
    6.3031    2.6105   -2.6305 H   0  0  0  0  0  0  0  0  0  0  0  0
    3.4704   -0.9996   -3.6963 H   0  0  0  0  0  0  0  0  0  0  0  0
    1.1079   -0.6615   -3.0396 H   0  0  0  0  0  0  0  0  0  0  0  0
    0.0537    2.5533   -4.7803 H   0  0  0  0  0  0  0  0  0  0  0  0
   -1.4062    4.3207   -5.6828 H   0  0  0  0  0  0  0  0  0  0  0  0
   -5.3367    7.0017   -3.8097 H   0  0  0  0  0  0  0  0  0  0  0  0
   -4.1530    6.7964   -2.4991 H   0  0  0  0  0  0  0  0  0  0  0  0
   -5.1853    5.4169   -3.0113 H   0  0  0  0  0  0  0  0  0  0  0  0
   -3.3404    4.6488   -1.8794 H   0  0  0  0  0  0  0  0  0  0  0  0
   -1.9056    2.9080   -0.9924 H   0  0  0  0  0  0  0  0  0  0  0  0
   -7.4573   -0.6197   -2.8335 H   0  0  0  0  0  0  0  0  0  0  0  0
   -6.4787    2.1213   -8.4337 H   0  0  0  0  0  0  0  0  0  0  0  0
   -8.0194    1.3829  -10.2074 H   0  0  0  0  0  0  0  0  0  0  0  0
  1  2  2  0  0  0  0
  2  3  1  0  0  0  0
  3  4  1  0  0  0  0
  4  5  2  0  0  0  0
  4  6  1  0  0  0  0
  6  7  1  0  0  0  0
  7  8  1  0  0  0  0
  6  9  1  0  0  0  0
  9 10  2  0  0  0  0
  1 11  1  0  0  0  0
 11 12  2  0  0  0  0
 12 13  1  0  0  0  0
 13 14  1  0  0  0  0
 14 15  2  0  0  0  0
 15 16  2  0  0  0  0
 13 17  2  0  0  0  0
 17 18  1  0  0  0  0
 18 19  2  0  0  0  0
 19 20  1  0  0  0  0
 20 21  1  0  0  0  0
 21 22  2  0  0  0  0
 17 23  1  0  0  0  0
 23 24  2  0  0  0  0
 24 25  1  0  0  0  0
 25 26  1  0  0  0  0
 26 27  2  0  0  0  0
 27 28  1  0  0  0  0
 28 29  2  0  0  0  0
 29 30  1  0  0  0  0
 30 31  1  0  0  0  0
 29 32  1  0  0  0  0
 32 33  2  0  0  0  0
 25 34  1  0  0  0  0
 34 35  2  0  0  0  0
 35 36  1  0  0  0  0
 36 37  2  0  0  0  0
 37 38  1  0  0  0  0
 38 39  1  0  0  0  0
 37 40  1  0  0  0  0
 40 41  2  0  0  0  0
 24 42  1  0  0  0  0
 42 43  1  0  0  0  0
 43 44  1  0  0  0  0
 44 45  2  0  0  0  0
 45 46  1  0  0  0  0
 46 47  1  0  0  0  0
 47 48  2  0  0  0  0
 48 49  1  0  0  0  0
 49 50  2  0  0  0  0
 50 51  1  0  0  0  0
 51 52  1  0  0  0  0
 50 53  1  0  0  0  0
 53 54  2  0  0  0  0
 46 55  1  0  0  0  0
 55 56  2  0  0  0  0
 56 57  1  0  0  0  0
 57 58  2  0  0  0  0
 58 59  1  0  0  0  0
 59 60  1  0  0  0  0
 58 61  1  0  0  0  0
 61 62  2  0  0  0  0
 45 63  1  0  0  0  0
 63 64  1  0  0  0  0
 44 65  1  0  0  0  0
 65 66  2  0  0  0  0
 66 67  1  0  0  0  0
 67 68  1  0  0  0  0
 68 69  2  0  0  0  0
 69 70  2  0  0  0  0
 67 71  2  0  0  0  0
 71 72  1  0  0  0  0
 72 73  2  0  0  0  0
 73 74  1  0  0  0  0
 74 75  1  0  0  0  0
 75 76  2  0  0  0  0
 71 77  1  0  0  0  0
 77 78  2  0  0  0  0
 78 79  1  0  0  0  0
 79 80  2  0  0  0  0
 79 81  1  0  0  0  0
 81 82  2  0  0  0  0
 82 83  1  0  0  0  0
 83 84  2  0  0  0  0
 84 85  1  0  0  0  0
 85 86  1  0  0  0  0
 85 87  2  0  0  0  0
 87 88  1  0  0  0  0
 82 89  1  0  0  0  0
 89 90  2  0  0  0  0
 90 91  1  0  0  0  0
 91 92  3  0  0  0  0
 90 93  1  0  0  0  0
 93 94  3  0  0  0  0
  9  2  1  0  0  0  0
 22 11  1  0  0  0  0
 64 23  1  0  0  0  0
 76 65  1  0  0  0  0
 89 78  1  0  0  0  0
 16 12  1  0  0  0  0
 22 18  1  0  0  0  0
 33 26  1  0  0  0  0
 41 34  1  0  0  0  0
 63 42  2  0  0  0  0
 70 66  1  0  0  0  0
 76 72  1  0  0  0  0
 87 81  1  0  0  0  0
 54 47  1  0  0  0  0
 62 55  1  0  0  0  0
  1 95  1  0  0  0  0
  7 96  1  0  0  0  0
  7 97  1  0  0  0  0
  8 98  1  0  0  0  0
  8 99  1  0  0  0  0
  8100  1  0  0  0  0
 27101  1  0  0  0  0
 28102  1  0  0  0  0
 31103  1  0  0  0  0
 31104  1  0  0  0  0
 31105  1  0  0  0  0
 32106  1  0  0  0  0
 33107  1  0  0  0  0
 35108  1  0  0  0  0
 36109  1  0  0  0  0
 39110  1  0  0  0  0
 39111  1  0  0  0  0
 39112  1  0  0  0  0
 40113  1  0  0  0  0
 41114  1  0  0  0  0
 48115  1  0  0  0  0
 49116  1  0  0  0  0
 52117  1  0  0  0  0
 52118  1  0  0  0  0
 52119  1  0  0  0  0
 53120  1  0  0  0  0
 54121  1  0  0  0  0
 56122  1  0  0  0  0
 57123  1  0  0  0  0
 60124  1  0  0  0  0
 60125  1  0  0  0  0
 60126  1  0  0  0  0
 61127  1  0  0  0  0
 62128  1  0  0  0  0
 77129  1  0  0  0  0
 83130  1  0  0  0  0
 84131  1  0  0  0  0
M  END
