183

C          4.12640       -4.92160        8.05460
C          5.12120       -5.83820        8.01520
S          6.26620       -6.19640        6.75590
C          6.82880       -7.63130        7.61530
S          7.94020       -8.66400        7.01040
N          6.21290       -7.75250        8.81490
C          6.52830       -8.81460        9.75020
C          7.76060       -8.47180       10.57720
C          5.26800       -6.79370        9.12660
O          4.64610       -6.77670       10.16330
C          3.69230       -3.99680        7.06040
C          2.43960       -3.40330        7.17550
C          1.87750       -2.65190        6.14970
F          0.61590       -2.21420        6.33210
C          2.49420       -2.42340        4.92700
C          3.84060       -2.86200        4.85530
C          4.43320       -3.65200        5.89930
N          5.70240       -3.93930        5.63190
S          6.11460       -3.27730        4.22430
N          4.70350       -2.59540        3.87720
C          1.83550       -1.87600        3.77260
C          1.94570       -2.35780        2.47440
N          2.62210       -3.49620        2.07150
C          3.32900       -3.43400        0.85820
C          4.07940       -2.30260        0.54970
C          4.80480       -2.24780       -0.62170
C          4.78500       -3.32370       -1.49830
S          5.71440       -3.30660       -3.01130
C          7.31400       -2.65520       -2.43430
C          4.01420       -4.44370       -1.20920
C          3.29130       -4.50130       -0.03620
C          2.75600       -4.61040        2.90290
C          3.92110       -5.37620        2.88230
C          4.10160       -6.42100        3.76660
C          3.11100       -6.73130        4.68780
S          3.27730       -7.99710        5.90890
C          4.54760       -9.08800        5.20310
C          1.92290       -6.00420        4.68090
C          1.74170       -4.96530        3.79570
C          1.16380       -1.57990        1.58560
S          0.80150       -1.67520       -0.10480
C         -0.33050       -0.34500        0.05030
C         -0.42740        0.11970        1.34230
N         -1.36760        1.08240        1.73290
C         -0.93970        2.33090        2.17090
C          0.34780        2.77090        1.86140
C          0.74600        4.05410        2.17310
C         -0.13360        4.92580        2.79790
S          0.27360        6.61930        3.11320
C          1.27860        7.02750        1.65230
C         -1.37840        4.45900        3.20560
C         -1.77390        3.17310        2.90980
C         -2.71780        0.70870        1.65630
C         -3.70820        1.59730        1.23540
C         -5.03260        1.22070        1.24590
C         -5.40470       -0.05710        1.65760
S         -7.14000       -0.39550        1.71460
C         -7.24060       -2.05100        2.45270
C         -4.41890       -0.97250        1.99750
C         -3.09250       -0.58870        1.99950
C          0.44630       -0.57180        2.21090
S          0.71320       -0.53670        3.91280
C         -1.07830        0.21160       -1.05180
C         -0.90900        1.47590       -1.57480
N          0.15230        2.33460       -1.31040
C          1.47280        1.89860       -1.45330
C          2.50730        2.66220       -0.90760
C          3.82300        2.31440       -1.12080
C          4.13530        1.18980       -1.87550
S          5.84280        0.84810       -2.21230
C          5.75450        0.28390       -3.94160
C          3.11610        0.38460       -2.36140
C          1.79790        0.74130       -2.15990
C         -0.14340        3.71360       -1.40120
C          0.55020        4.55730       -2.26350
C          0.18130        5.88120       -2.39540
C         -0.89110        6.38450       -1.66900
S         -1.45400        8.05060       -1.80150
C         -0.88300        8.54260       -3.45220
C         -1.56660        5.55040       -0.78100
C         -1.20080        4.22930       -0.65520
C         -1.92220        1.77640       -2.51570
S         -2.22510        3.15620       -3.49470
C         -3.57180        2.32540       -4.27510
C         -3.72670        1.00610       -3.80540
N         -4.59730        0.07460       -4.30370
C         -5.04340        0.11720       -5.63830
C         -6.38680       -0.11040       -5.92860
C         -6.84980        0.04440       -7.21840
C         -5.98170        0.43620       -8.23070
S         -6.64240        0.75410       -9.83860
C         -5.74980        2.28070      -10.26560
C         -4.62530        0.57620       -7.95960
C         -4.15710        0.40720       -6.67440
C         -5.04500       -0.97630       -3.48380
C         -5.12100       -2.27010       -3.99000
C         -5.55980       -3.31250       -3.19730
C         -5.93670       -3.06930       -1.88310
S         -6.49530       -4.30940       -0.76020
C         -6.58430       -5.81420       -1.76780
C         -5.87910       -1.77120       -1.38260
C         -5.43750       -0.73270       -2.16850
C         -2.80330        0.73670       -2.76470
S         -2.43150       -0.64370       -1.78020
C         -4.31890        3.00110       -5.24820
C         -4.10850        4.25630       -5.73730
S         -2.92140        5.42730       -5.21280
C         -3.45910        6.58450       -6.42730
S         -2.80960        8.07200       -6.60840
N         -4.46500        6.06210       -7.16790
C         -5.07150        6.78320       -8.26960
C         -4.23850        6.65760       -9.53910
C         -4.87490        4.77420       -6.85560
O         -5.73580        4.18040       -7.47730
H          3.52430       -4.96340        8.95610
H          6.69550       -9.72990        9.17740
H          5.65380       -8.92880       10.39480
H          8.62550       -8.34170        9.93090
H          7.59480       -7.55550       11.13900
H          7.96580       -9.27800       11.27510
H          1.83790       -3.58500        8.05260
H          4.10960       -1.47840        1.24580
H          5.39080       -1.36970       -0.84000
H          7.23420       -1.60300       -2.17990
H          8.00490       -2.78550       -3.26090
H          7.64100       -3.23620       -1.57770
H          3.99200       -5.26660       -1.90700
H          2.70230       -5.37480        0.20060
H          4.70820       -5.12940        2.18500
H          5.02970       -6.96880        3.74450
H          4.27690       -9.33990        4.18250
H          4.54500       -9.98120        5.82010
H          5.52630       -8.61930        5.24490
H          1.14250       -6.26650        5.37840
H          0.81020       -4.41980        3.79310
H          1.03340        2.10820        1.35550
H          1.74400        4.37490        1.91750
H          2.29710        6.67110        1.77800
H          0.81580        6.59290        0.77110
H          1.27580        8.11020        1.57940
H         -2.03690        5.11870        3.74890
H         -2.74020        2.82200        3.23730
H         -3.44400        2.59290        0.91360
H         -5.79860        1.91880        0.94360
H         -6.82370       -2.79500        1.77820
H         -8.30060       -2.23960        2.59240
H         -6.73480       -2.05470        3.41360
H         -4.66850       -1.98260        2.27910
H         -2.33810       -1.30230        2.29560
H          2.26800        3.55230       -0.34680
H          4.62010        2.92110       -0.71920
H          5.40940       -0.74480       -3.99430
H          5.09190        0.94490       -4.49110
H          6.76390        0.35440       -4.33450
H          3.33920       -0.51310       -2.91650
H          1.01900        0.12660       -2.58470
H          1.37100        4.17020       -2.84910
H          0.72740        6.51080       -3.07920
H          0.18250        8.75340       -3.44150
H         -1.12600        7.75990       -4.16440
H         -1.43220        9.44530       -3.70030
H         -2.38620        5.94840       -0.20330
H         -1.73910        3.57860        0.01420
H         -7.06800       -0.36720       -5.13120
H         -7.89480       -0.09730       -7.44480
H         -6.30480        2.73430      -11.08060
H         -4.73880        2.05430      -10.59190
H         -5.75070        2.93480       -9.39750
H         -3.93340        0.82000       -8.75020
H         -3.10600        0.53070       -6.45930
H         -4.82710       -2.46030       -5.01170
H         -5.59620       -4.30480       -3.61680
H         -7.25830       -5.65710       -2.60480
H         -5.59090       -6.09620       -2.10480
H         -6.98270       -6.58310       -1.11290
H         -6.20130       -1.58090       -0.37430
H         -5.41030        0.27030       -1.77000
H         -5.16220        2.49100       -5.69400
H         -5.16530        7.83200       -7.97820
H         -6.06120        6.34420       -8.41680
H         -3.25110        7.08660       -9.38600
H         -4.72810        7.19050      -10.34880
H         -4.13320        5.61200       -9.82040
