194

C          3.13640       -6.92430        4.93190
C          3.59940       -6.66410        6.18630
S          3.57220       -5.12920        7.02430
C          4.41280       -5.81730        8.40820
S          4.80850       -4.95660        9.73890
N          4.66600       -7.13170        8.20710
C          5.37180       -7.94130        9.18000
C          6.87990       -7.76030        9.06090
C          4.25040       -7.67940        6.99900
O          4.42750       -8.84170        6.69910
C          2.52040       -6.01930        4.05550
C          2.14530       -6.22830        2.71750
N          2.36540       -7.36930        1.99140
C          3.51610       -8.15910        2.17670
C          4.76000       -7.56580        2.37440
C          5.87660       -8.35280        2.56960
C          5.78810       -9.74030        2.55920
C          6.99480      -10.58810        2.81320
C          4.54620      -10.32170        2.33330
C          3.41930       -9.54650        2.14370
C          1.46530       -7.70690        0.96310
C          0.09260       -7.59010        1.17040
C         -0.78910       -7.90390        0.15720
C         -0.33220       -8.35010       -1.07830
C         -1.30430       -8.66360       -2.17250
C          1.03760       -8.48230       -1.26800
C          1.93210       -8.16420       -0.26440
C          1.52250       -5.07440        2.18740
S          0.85370       -4.66690        0.64560
C          0.54290       -3.02900        1.19270
C          0.85510       -2.83940        2.53140
N          0.55590       -1.72430        3.28550
C          1.36700       -1.43930        4.39880
C          0.79950       -1.09110        5.62060
C          1.60480       -0.90370        6.72650
C          2.98480       -1.05790        6.64890
C          3.84240       -0.93680        7.86860
C          3.54500       -1.36150        5.41440
C          2.75200       -1.54650        4.29860
C         -0.55950       -0.92930        2.99290
C         -0.50140        0.45240        3.15500
C         -1.56200        1.24430        2.76250
C         -2.70600        0.68850        2.20340
C         -3.81250        1.55640        1.69080
C         -2.78730       -0.69540        2.11300
C         -1.73800       -1.49770        2.51140
C          1.44210       -4.01010        3.07340
S          2.12020       -4.39400        4.61010
C         -0.02340       -2.04160        0.30640
C         -1.07390       -2.31210       -0.54900
F         -1.56390       -3.56240       -0.63850
C         -1.68470       -1.31700       -1.31910
F         -2.67340       -1.69190       -2.15130
C         -1.30420        0.01010       -1.25210
C         -0.24540        0.32550       -0.35880
N          0.05050        1.60280       -0.07920
C          1.08410        1.89250        0.66850
C          1.17540        3.32450        1.10790
C          2.24540        4.15000        0.39380
C          1.99170        0.85120        1.03980
N          1.61610       -0.39720        0.91890
C          0.45420       -0.69960        0.32180
C          3.39130        1.05150        1.54090
C          3.48470        1.58840        2.96990
C         -1.92450        1.03720       -2.05740
C         -1.29680        2.03230       -2.78810
N          0.06260        2.23970       -2.93630
C          1.01580        1.22830       -2.86510
C          0.73020       -0.07930       -3.26290
C          1.66690       -1.07960       -3.10240
C          2.91060       -0.78970       -2.56030
S          4.12110       -2.06410       -2.28970
C          3.19670       -3.08110       -1.09850
C          3.23110        0.51930       -2.23540
C          2.29440        1.51820       -2.38520
C          0.47370        3.57250       -3.14650
C         -0.02390        4.59230       -2.33660
C          0.31140        5.90350       -2.59010
C          1.15330        6.22060       -3.65330
S          1.49090        7.93220       -3.90830
C          2.30910        7.96880       -5.52780
C          1.68320        5.20330       -4.43560
C          1.34180        3.88920       -4.18460
C         -2.24960        2.85530       -3.44320
S         -2.11850        4.19870       -4.52110
C         -3.87420        4.28980       -4.64080
C         -4.50890        3.26350       -3.91000
N         -5.86590        3.04390       -3.83750
C         -6.39690        2.59830       -2.61340
C         -7.32390        1.55820       -2.56810
C         -7.83410        1.14180       -1.35950
C         -7.43350        1.75320       -0.17210
S         -8.14630        1.13000        1.31660
C         -7.69220        2.36620        2.56810
C         -6.50810        2.78740       -0.21420
C         -5.99620        3.20460       -1.42650
C         -6.70340        3.14600       -4.95690
C         -6.24460        2.80570       -6.22710
C         -7.07040        2.91750       -7.32770
C         -8.37810        3.36190       -7.17630
S         -9.52740        3.54160       -8.50080
C         -8.54100        3.20690       -9.98710
C         -8.84570        3.68570       -5.90330
C         -8.02070        3.58260       -4.80660
C         -3.56650        2.48040       -3.21860
S         -3.67330        1.08110       -2.20590
C         -4.55740        5.32100       -5.29720
C         -4.07380        6.39570       -5.99000
S         -5.18460        7.58190       -6.66060
C         -3.86440        8.53470       -7.31250
S         -4.05220        9.91810       -8.15960
N         -2.67830        7.94390       -7.02120
C         -1.41250        8.52800       -7.41720
C         -0.95260        9.57990       -6.41580
C         -2.71050        6.76150       -6.30030
O         -1.69330        6.15070       -6.01520
H          3.27410       -7.94480        4.59760
H          5.03100       -7.64950       10.17640
H          5.09420       -8.97810        8.97550
H          7.38070       -8.39260        9.78800
H          7.15140       -6.72490        9.25280
H          7.21420       -8.03780        8.06390
H          4.84240       -6.48870        2.38150
H          6.83550       -7.88130        2.72770
H          7.90440      -10.07160        2.51590
H          7.06520      -10.81260        3.87790
H          6.92890      -11.53070        2.27480
H          4.45720      -11.39790        2.31700
H          2.45710      -10.00830        1.97860
H         -0.27500       -7.25800        2.13050
H         -1.85090       -7.80400        0.32680
H         -1.75850       -7.74330       -2.53940
H         -2.10400       -9.30360       -1.80400
H         -0.81120       -9.16000       -3.00420
H          1.41410       -8.82990       -2.21900
H          2.99520       -8.26140       -0.42820
H         -0.27320       -0.99000        5.69910
H          1.15080       -0.65440        7.67450
H          4.82920       -0.55550        7.61630
H          3.97030       -1.91970        8.32390
H          3.38550       -0.28220        8.60660
H          4.61670       -1.46430        5.32670
H          3.19400       -1.78250        3.34190
H          0.38940        0.90060        3.57010
H         -1.49020        2.31670        2.87330
H         -3.95060        2.42590        2.33130
H         -3.56860        1.91090        0.68850
H         -4.74260        0.99680        1.62800
H         -3.68470       -1.15220        1.72150
H         -1.82420       -2.57200        2.44230
H          1.35080        3.35190        2.18450
H          0.20110        3.77460        0.90930
H          2.04170        4.18990       -0.67300
H          2.23140        5.16800        0.77630
H          3.23970        3.74230        0.54990
H          3.87810        0.07550        1.50080
H          3.92080        1.72250        0.86200
H          3.14170        2.61630        3.03800
H          2.89870        0.97230        3.64750
H          4.52080        1.55770        3.29830
H         -0.22540       -0.30720       -3.70980
H          1.43220       -2.08830       -3.40770
H          3.87590       -3.85470       -0.75620
H          2.33610       -3.53260       -1.58250
H          2.88590       -2.45180       -0.26890
H          4.21350        0.74320       -1.84930
H          2.54200        2.53120       -2.10920
H         -0.68300        4.34110       -1.51930
H         -0.08000        6.69860       -1.97420
H          2.39930        9.01840       -5.78930
H          3.29720        7.52230       -5.46140
H          1.68890        7.45360       -6.25490
H          2.35030        5.41890       -5.25390
H          1.73930        3.10050       -4.80600
H         -7.63590        1.08030       -3.48410
H         -8.54740        0.33330       -1.31860
H         -7.99950        3.35300        2.23560
H         -6.62560        2.32900        2.76850
H         -8.24210        2.08980        3.46230
H         -6.18000        3.27890        0.68680
H         -5.28150        4.01420       -1.45700
H         -5.23180        2.45270       -6.35170
H         -6.68350        2.64400       -8.29570
H         -8.20770        2.17310       -9.99140
H         -7.70250        3.89530      -10.03580
H         -9.20950        3.38020      -10.82460
H         -9.86260        4.02820       -5.78990
H         -8.38690        3.84680       -3.82600
H         -5.63750        5.27570       -5.21990
H         -0.69690        7.70370       -7.46770
H         -1.54210        8.97370       -8.40640
H         -0.80090        9.13290       -5.43610
H         -1.69490       10.37040       -6.33630
H         -0.01720       10.01760       -6.75180
