
  xtb     02152208343D
 energy: -316.939292028200 gnorm: 0.000320807692 xtb: 6.4.1 (unknown)
194209  0     0  0            999 V2000
    3.1364   -6.9243    4.9319 C   0  0  0  0  0  0  0  0  0  0  0  0
    3.5994   -6.6641    6.1863 C   0  0  0  0  0  0  0  0  0  0  0  0
    3.5722   -5.1292    7.0243 S   0  0  0  0  0  0  0  0  0  0  0  0
    4.4128   -5.8173    8.4082 C   0  0  0  0  0  0  0  0  0  0  0  0
    4.8085   -4.9566    9.7389 S   0  0  0  0  0  0  0  0  0  0  0  0
    4.6660   -7.1317    8.2071 N   0  0  0  0  0  0  0  0  0  0  0  0
    5.3718   -7.9413    9.1800 C   0  0  0  0  0  0  0  0  0  0  0  0
    6.8799   -7.7603    9.0609 C   0  0  0  0  0  0  0  0  0  0  0  0
    4.2504   -7.6794    6.9990 C   0  0  0  0  0  0  0  0  0  0  0  0
    4.4275   -8.8417    6.6991 O   0  0  0  0  0  0  0  0  0  0  0  0
    2.5204   -6.0193    4.0555 C   0  0  0  0  0  0  0  0  0  0  0  0
    2.1453   -6.2283    2.7175 C   0  0  0  0  0  0  0  0  0  0  0  0
    2.3654   -7.3693    1.9914 N   0  0  0  0  0  0  0  0  0  0  0  0
    3.5161   -8.1591    2.1767 C   0  0  0  0  0  0  0  0  0  0  0  0
    4.7600   -7.5658    2.3744 C   0  0  0  0  0  0  0  0  0  0  0  0
    5.8766   -8.3528    2.5696 C   0  0  0  0  0  0  0  0  0  0  0  0
    5.7881   -9.7403    2.5592 C   0  0  0  0  0  0  0  0  0  0  0  0
    6.9948  -10.5881    2.8132 C   0  0  0  0  0  0  0  0  0  0  0  0
    4.5462  -10.3217    2.3333 C   0  0  0  0  0  0  0  0  0  0  0  0
    3.4193   -9.5465    2.1437 C   0  0  0  0  0  0  0  0  0  0  0  0
    1.4653   -7.7069    0.9631 C   0  0  0  0  0  0  0  0  0  0  0  0
    0.0926   -7.5901    1.1704 C   0  0  0  0  0  0  0  0  0  0  0  0
   -0.7891   -7.9039    0.1572 C   0  0  0  0  0  0  0  0  0  0  0  0
   -0.3322   -8.3501   -1.0783 C   0  0  0  0  0  0  0  0  0  0  0  0
   -1.3043   -8.6636   -2.1725 C   0  0  0  0  0  0  0  0  0  0  0  0
    1.0376   -8.4823   -1.2680 C   0  0  0  0  0  0  0  0  0  0  0  0
    1.9321   -8.1642   -0.2644 C   0  0  0  0  0  0  0  0  0  0  0  0
    1.5225   -5.0744    2.1874 C   0  0  0  0  0  0  0  0  0  0  0  0
    0.8537   -4.6669    0.6456 S   0  0  0  0  0  0  0  0  0  0  0  0
    0.5429   -3.0290    1.1927 C   0  0  0  0  0  0  0  0  0  0  0  0
    0.8551   -2.8394    2.5314 C   0  0  0  0  0  0  0  0  0  0  0  0
    0.5559   -1.7243    3.2855 N   0  0  0  0  0  0  0  0  0  0  0  0
    1.3670   -1.4393    4.3988 C   0  0  0  0  0  0  0  0  0  0  0  0
    0.7995   -1.0911    5.6206 C   0  0  0  0  0  0  0  0  0  0  0  0
    1.6048   -0.9037    6.7265 C   0  0  0  0  0  0  0  0  0  0  0  0
    2.9848   -1.0579    6.6489 C   0  0  0  0  0  0  0  0  0  0  0  0
    3.8424   -0.9368    7.8686 C   0  0  0  0  0  0  0  0  0  0  0  0
    3.5450   -1.3615    5.4144 C   0  0  0  0  0  0  0  0  0  0  0  0
    2.7520   -1.5465    4.2986 C   0  0  0  0  0  0  0  0  0  0  0  0
   -0.5595   -0.9293    2.9929 C   0  0  0  0  0  0  0  0  0  0  0  0
   -0.5014    0.4524    3.1550 C   0  0  0  0  0  0  0  0  0  0  0  0
   -1.5620    1.2443    2.7625 C   0  0  0  0  0  0  0  0  0  0  0  0
   -2.7060    0.6885    2.2034 C   0  0  0  0  0  0  0  0  0  0  0  0
   -3.8125    1.5564    1.6908 C   0  0  0  0  0  0  0  0  0  0  0  0
   -2.7873   -0.6954    2.1130 C   0  0  0  0  0  0  0  0  0  0  0  0
   -1.7380   -1.4977    2.5114 C   0  0  0  0  0  0  0  0  0  0  0  0
    1.4421   -4.0101    3.0734 C   0  0  0  0  0  0  0  0  0  0  0  0
    2.1202   -4.3940    4.6101 S   0  0  0  0  0  0  0  0  0  0  0  0
   -0.0234   -2.0416    0.3064 C   0  0  0  0  0  0  0  0  0  0  0  0
   -1.0739   -2.3121   -0.5490 C   0  0  0  0  0  0  0  0  0  0  0  0
   -1.5639   -3.5624   -0.6385 F   0  0  0  0  0  0  0  0  0  0  0  0
   -1.6847   -1.3170   -1.3191 C   0  0  0  0  0  0  0  0  0  0  0  0
   -2.6734   -1.6919   -2.1513 F   0  0  0  0  0  0  0  0  0  0  0  0
   -1.3042    0.0101   -1.2521 C   0  0  0  0  0  0  0  0  0  0  0  0
   -0.2454    0.3255   -0.3588 C   0  0  0  0  0  0  0  0  0  0  0  0
    0.0505    1.6028   -0.0792 N   0  0  0  0  0  0  0  0  0  0  0  0
    1.0841    1.8925    0.6685 C   0  0  0  0  0  0  0  0  0  0  0  0
    1.1754    3.3245    1.1079 C   0  0  0  0  0  0  0  0  0  0  0  0
    2.2454    4.1500    0.3938 C   0  0  0  0  0  0  0  0  0  0  0  0
    1.9917    0.8512    1.0398 C   0  0  0  0  0  0  0  0  0  0  0  0
    1.6161   -0.3972    0.9189 N   0  0  0  0  0  0  0  0  0  0  0  0
    0.4542   -0.6996    0.3218 C   0  0  0  0  0  0  0  0  0  0  0  0
    3.3913    1.0515    1.5409 C   0  0  0  0  0  0  0  0  0  0  0  0
    3.4847    1.5884    2.9699 C   0  0  0  0  0  0  0  0  0  0  0  0
   -1.9245    1.0372   -2.0574 C   0  0  0  0  0  0  0  0  0  0  0  0
   -1.2968    2.0323   -2.7881 C   0  0  0  0  0  0  0  0  0  0  0  0
    0.0626    2.2397   -2.9363 N   0  0  0  0  0  0  0  0  0  0  0  0
    1.0158    1.2283   -2.8651 C   0  0  0  0  0  0  0  0  0  0  0  0
    0.7302   -0.0793   -3.2629 C   0  0  0  0  0  0  0  0  0  0  0  0
    1.6669   -1.0796   -3.1024 C   0  0  0  0  0  0  0  0  0  0  0  0
    2.9106   -0.7897   -2.5603 C   0  0  0  0  0  0  0  0  0  0  0  0
    4.1211   -2.0641   -2.2897 S   0  0  0  0  0  0  0  0  0  0  0  0
    3.1967   -3.0811   -1.0985 C   0  0  0  0  0  0  0  0  0  0  0  0
    3.2311    0.5193   -2.2354 C   0  0  0  0  0  0  0  0  0  0  0  0
    2.2944    1.5182   -2.3852 C   0  0  0  0  0  0  0  0  0  0  0  0
    0.4737    3.5725   -3.1465 C   0  0  0  0  0  0  0  0  0  0  0  0
   -0.0239    4.5923   -2.3366 C   0  0  0  0  0  0  0  0  0  0  0  0
    0.3114    5.9035   -2.5901 C   0  0  0  0  0  0  0  0  0  0  0  0
    1.1533    6.2206   -3.6533 C   0  0  0  0  0  0  0  0  0  0  0  0
    1.4909    7.9322   -3.9083 S   0  0  0  0  0  0  0  0  0  0  0  0
    2.3091    7.9688   -5.5278 C   0  0  0  0  0  0  0  0  0  0  0  0
    1.6832    5.2033   -4.4356 C   0  0  0  0  0  0  0  0  0  0  0  0
    1.3418    3.8892   -4.1846 C   0  0  0  0  0  0  0  0  0  0  0  0
   -2.2496    2.8553   -3.4432 C   0  0  0  0  0  0  0  0  0  0  0  0
   -2.1185    4.1987   -4.5211 S   0  0  0  0  0  0  0  0  0  0  0  0
   -3.8742    4.2898   -4.6408 C   0  0  0  0  0  0  0  0  0  0  0  0
   -4.5089    3.2635   -3.9100 C   0  0  0  0  0  0  0  0  0  0  0  0
   -5.8659    3.0439   -3.8375 N   0  0  0  0  0  0  0  0  0  0  0  0
   -6.3969    2.5983   -2.6134 C   0  0  0  0  0  0  0  0  0  0  0  0
   -7.3239    1.5582   -2.5681 C   0  0  0  0  0  0  0  0  0  0  0  0
   -7.8341    1.1418   -1.3595 C   0  0  0  0  0  0  0  0  0  0  0  0
   -7.4335    1.7532   -0.1721 C   0  0  0  0  0  0  0  0  0  0  0  0
   -8.1463    1.1300    1.3166 S   0  0  0  0  0  0  0  0  0  0  0  0
   -7.6922    2.3662    2.5681 C   0  0  0  0  0  0  0  0  0  0  0  0
   -6.5081    2.7874   -0.2142 C   0  0  0  0  0  0  0  0  0  0  0  0
   -5.9962    3.2046   -1.4265 C   0  0  0  0  0  0  0  0  0  0  0  0
   -6.7034    3.1460   -4.9569 C   0  0  0  0  0  0  0  0  0  0  0  0
   -6.2446    2.8057   -6.2271 C   0  0  0  0  0  0  0  0  0  0  0  0
   -7.0704    2.9175   -7.3277 C   0  0  0  0  0  0  0  0  0  0  0  0
   -8.3781    3.3619   -7.1763 C   0  0  0  0  0  0  0  0  0  0  0  0
   -9.5274    3.5416   -8.5008 S   0  0  0  0  0  0  0  0  0  0  0  0
   -8.5410    3.2069   -9.9871 C   0  0  0  0  0  0  0  0  0  0  0  0
   -8.8457    3.6857   -5.9033 C   0  0  0  0  0  0  0  0  0  0  0  0
   -8.0207    3.5826   -4.8066 C   0  0  0  0  0  0  0  0  0  0  0  0
   -3.5665    2.4804   -3.2186 C   0  0  0  0  0  0  0  0  0  0  0  0
   -3.6733    1.0811   -2.2059 S   0  0  0  0  0  0  0  0  0  0  0  0
   -4.5574    5.3210   -5.2972 C   0  0  0  0  0  0  0  0  0  0  0  0
   -4.0738    6.3957   -5.9900 C   0  0  0  0  0  0  0  0  0  0  0  0
   -5.1846    7.5819   -6.6606 S   0  0  0  0  0  0  0  0  0  0  0  0
   -3.8644    8.5347   -7.3125 C   0  0  0  0  0  0  0  0  0  0  0  0
   -4.0522    9.9181   -8.1596 S   0  0  0  0  0  0  0  0  0  0  0  0
   -2.6783    7.9439   -7.0212 N   0  0  0  0  0  0  0  0  0  0  0  0
   -1.4125    8.5280   -7.4172 C   0  0  0  0  0  0  0  0  0  0  0  0
   -0.9526    9.5799   -6.4158 C   0  0  0  0  0  0  0  0  0  0  0  0
   -2.7105    6.7615   -6.3003 C   0  0  0  0  0  0  0  0  0  0  0  0
   -1.6933    6.1507   -6.0152 O   0  0  0  0  0  0  0  0  0  0  0  0
    3.2741   -7.9448    4.5976 H   0  0  0  0  0  0  0  0  0  0  0  0
    5.0310   -7.6495   10.1764 H   0  0  0  0  0  0  0  0  0  0  0  0
    5.0942   -8.9781    8.9755 H   0  0  0  0  0  0  0  0  0  0  0  0
    7.3807   -8.3926    9.7880 H   0  0  0  0  0  0  0  0  0  0  0  0
    7.1514   -6.7249    9.2528 H   0  0  0  0  0  0  0  0  0  0  0  0
    7.2142   -8.0378    8.0639 H   0  0  0  0  0  0  0  0  0  0  0  0
    4.8424   -6.4887    2.3815 H   0  0  0  0  0  0  0  0  0  0  0  0
    6.8355   -7.8813    2.7277 H   0  0  0  0  0  0  0  0  0  0  0  0
    7.9044  -10.0716    2.5159 H   0  0  0  0  0  0  0  0  0  0  0  0
    7.0652  -10.8126    3.8779 H   0  0  0  0  0  0  0  0  0  0  0  0
    6.9289  -11.5307    2.2748 H   0  0  0  0  0  0  0  0  0  0  0  0
    4.4572  -11.3979    2.3170 H   0  0  0  0  0  0  0  0  0  0  0  0
    2.4571  -10.0083    1.9786 H   0  0  0  0  0  0  0  0  0  0  0  0
   -0.2750   -7.2580    2.1305 H   0  0  0  0  0  0  0  0  0  0  0  0
   -1.8509   -7.8040    0.3268 H   0  0  0  0  0  0  0  0  0  0  0  0
   -1.7585   -7.7433   -2.5394 H   0  0  0  0  0  0  0  0  0  0  0  0
   -2.1040   -9.3036   -1.8040 H   0  0  0  0  0  0  0  0  0  0  0  0
   -0.8112   -9.1600   -3.0042 H   0  0  0  0  0  0  0  0  0  0  0  0
    1.4141   -8.8299   -2.2190 H   0  0  0  0  0  0  0  0  0  0  0  0
    2.9952   -8.2614   -0.4282 H   0  0  0  0  0  0  0  0  0  0  0  0
   -0.2732   -0.9900    5.6991 H   0  0  0  0  0  0  0  0  0  0  0  0
    1.1508   -0.6544    7.6745 H   0  0  0  0  0  0  0  0  0  0  0  0
    4.8292   -0.5555    7.6163 H   0  0  0  0  0  0  0  0  0  0  0  0
    3.9703   -1.9197    8.3239 H   0  0  0  0  0  0  0  0  0  0  0  0
    3.3855   -0.2822    8.6066 H   0  0  0  0  0  0  0  0  0  0  0  0
    4.6167   -1.4643    5.3267 H   0  0  0  0  0  0  0  0  0  0  0  0
    3.1940   -1.7825    3.3419 H   0  0  0  0  0  0  0  0  0  0  0  0
    0.3894    0.9006    3.5701 H   0  0  0  0  0  0  0  0  0  0  0  0
   -1.4902    2.3167    2.8733 H   0  0  0  0  0  0  0  0  0  0  0  0
   -3.9506    2.4259    2.3313 H   0  0  0  0  0  0  0  0  0  0  0  0
   -3.5686    1.9109    0.6885 H   0  0  0  0  0  0  0  0  0  0  0  0
   -4.7426    0.9968    1.6280 H   0  0  0  0  0  0  0  0  0  0  0  0
   -3.6847   -1.1522    1.7215 H   0  0  0  0  0  0  0  0  0  0  0  0
   -1.8242   -2.5720    2.4423 H   0  0  0  0  0  0  0  0  0  0  0  0
    1.3508    3.3519    2.1845 H   0  0  0  0  0  0  0  0  0  0  0  0
    0.2011    3.7746    0.9093 H   0  0  0  0  0  0  0  0  0  0  0  0
    2.0417    4.1899   -0.6730 H   0  0  0  0  0  0  0  0  0  0  0  0
    2.2314    5.1680    0.7763 H   0  0  0  0  0  0  0  0  0  0  0  0
    3.2397    3.7423    0.5499 H   0  0  0  0  0  0  0  0  0  0  0  0
    3.8781    0.0755    1.5008 H   0  0  0  0  0  0  0  0  0  0  0  0
    3.9208    1.7225    0.8620 H   0  0  0  0  0  0  0  0  0  0  0  0
    3.1417    2.6163    3.0380 H   0  0  0  0  0  0  0  0  0  0  0  0
    2.8987    0.9723    3.6475 H   0  0  0  0  0  0  0  0  0  0  0  0
    4.5208    1.5577    3.2983 H   0  0  0  0  0  0  0  0  0  0  0  0
   -0.2254   -0.3072   -3.7098 H   0  0  0  0  0  0  0  0  0  0  0  0
    1.4322   -2.0883   -3.4077 H   0  0  0  0  0  0  0  0  0  0  0  0
    3.8759   -3.8547   -0.7562 H   0  0  0  0  0  0  0  0  0  0  0  0
    2.3361   -3.5326   -1.5825 H   0  0  0  0  0  0  0  0  0  0  0  0
    2.8859   -2.4518   -0.2689 H   0  0  0  0  0  0  0  0  0  0  0  0
    4.2135    0.7432   -1.8493 H   0  0  0  0  0  0  0  0  0  0  0  0
    2.5420    2.5312   -2.1092 H   0  0  0  0  0  0  0  0  0  0  0  0
   -0.6830    4.3411   -1.5193 H   0  0  0  0  0  0  0  0  0  0  0  0
   -0.0800    6.6986   -1.9742 H   0  0  0  0  0  0  0  0  0  0  0  0
    2.3993    9.0184   -5.7893 H   0  0  0  0  0  0  0  0  0  0  0  0
    3.2972    7.5223   -5.4614 H   0  0  0  0  0  0  0  0  0  0  0  0
    1.6889    7.4536   -6.2549 H   0  0  0  0  0  0  0  0  0  0  0  0
    2.3503    5.4189   -5.2539 H   0  0  0  0  0  0  0  0  0  0  0  0
    1.7393    3.1005   -4.8060 H   0  0  0  0  0  0  0  0  0  0  0  0
   -7.6359    1.0803   -3.4841 H   0  0  0  0  0  0  0  0  0  0  0  0
   -8.5474    0.3333   -1.3186 H   0  0  0  0  0  0  0  0  0  0  0  0
   -7.9995    3.3530    2.2356 H   0  0  0  0  0  0  0  0  0  0  0  0
   -6.6256    2.3290    2.7685 H   0  0  0  0  0  0  0  0  0  0  0  0
   -8.2421    2.0898    3.4623 H   0  0  0  0  0  0  0  0  0  0  0  0
   -6.1800    3.2789    0.6868 H   0  0  0  0  0  0  0  0  0  0  0  0
   -5.2815    4.0142   -1.4570 H   0  0  0  0  0  0  0  0  0  0  0  0
   -5.2318    2.4527   -6.3517 H   0  0  0  0  0  0  0  0  0  0  0  0
   -6.6835    2.6440   -8.2957 H   0  0  0  0  0  0  0  0  0  0  0  0
   -8.2077    2.1731   -9.9914 H   0  0  0  0  0  0  0  0  0  0  0  0
   -7.7025    3.8953  -10.0358 H   0  0  0  0  0  0  0  0  0  0  0  0
   -9.2095    3.3802  -10.8246 H   0  0  0  0  0  0  0  0  0  0  0  0
   -9.8626    4.0282   -5.7899 H   0  0  0  0  0  0  0  0  0  0  0  0
   -8.3869    3.8468   -3.8260 H   0  0  0  0  0  0  0  0  0  0  0  0
   -5.6375    5.2757   -5.2199 H   0  0  0  0  0  0  0  0  0  0  0  0
   -0.6969    7.7037   -7.4677 H   0  0  0  0  0  0  0  0  0  0  0  0
   -1.5421    8.9737   -8.4064 H   0  0  0  0  0  0  0  0  0  0  0  0
   -0.8009    9.1329   -5.4361 H   0  0  0  0  0  0  0  0  0  0  0  0
   -1.6949   10.3704   -6.3363 H   0  0  0  0  0  0  0  0  0  0  0  0
   -0.0172   10.0176   -6.7518 H   0  0  0  0  0  0  0  0  0  0  0  0
  1  2  2  0  0  0  0
  2  3  1  0  0  0  0
  3  4  1  0  0  0  0
  4  5  2  0  0  0  0
  4  6  1  0  0  0  0
  6  7  1  0  0  0  0
  7  8  1  0  0  0  0
  6  9  1  0  0  0  0
  9 10  2  0  0  0  0
  1 11  1  0  0  0  0
 11 12  2  0  0  0  0
 12 13  1  0  0  0  0
 13 14  1  0  0  0  0
 14 15  2  0  0  0  0
 15 16  1  0  0  0  0
 16 17  2  0  0  0  0
 17 18  1  0  0  0  0
 17 19  1  0  0  0  0
 19 20  2  0  0  0  0
 13 21  1  0  0  0  0
 21 22  2  0  0  0  0
 22 23  1  0  0  0  0
 23 24  2  0  0  0  0
 24 25  1  0  0  0  0
 24 26  1  0  0  0  0
 26 27  2  0  0  0  0
 12 28  1  0  0  0  0
 28 29  1  0  0  0  0
 29 30  1  0  0  0  0
 30 31  2  0  0  0  0
 31 32  1  0  0  0  0
 32 33  1  0  0  0  0
 33 34  2  0  0  0  0
 34 35  1  0  0  0  0
 35 36  2  0  0  0  0
 36 37  1  0  0  0  0
 36 38  1  0  0  0  0
 38 39  2  0  0  0  0
 32 40  1  0  0  0  0
 40 41  2  0  0  0  0
 41 42  1  0  0  0  0
 42 43  2  0  0  0  0
 43 44  1  0  0  0  0
 43 45  1  0  0  0  0
 45 46  2  0  0  0  0
 31 47  1  0  0  0  0
 47 48  1  0  0  0  0
 30 49  1  0  0  0  0
 49 50  2  0  0  0  0
 50 51  1  0  0  0  0
 50 52  1  0  0  0  0
 52 53  1  0  0  0  0
 52 54  2  0  0  0  0
 54 55  1  0  0  0  0
 55 56  2  0  0  0  0
 56 57  1  0  0  0  0
 57 58  1  0  0  0  0
 58 59  1  0  0  0  0
 57 60  2  0  0  0  0
 60 61  1  0  0  0  0
 61 62  2  0  0  0  0
 60 63  1  0  0  0  0
 63 64  1  0  0  0  0
 54 65  1  0  0  0  0
 65 66  2  0  0  0  0
 66 67  1  0  0  0  0
 67 68  1  0  0  0  0
 68 69  2  0  0  0  0
 69 70  1  0  0  0  0
 70 71  2  0  0  0  0
 71 72  1  0  0  0  0
 72 73  1  0  0  0  0
 71 74  1  0  0  0  0
 74 75  2  0  0  0  0
 67 76  1  0  0  0  0
 76 77  2  0  0  0  0
 77 78  1  0  0  0  0
 78 79  2  0  0  0  0
 79 80  1  0  0  0  0
 80 81  1  0  0  0  0
 79 82  1  0  0  0  0
 82 83  2  0  0  0  0
 66 84  1  0  0  0  0
 84 85  1  0  0  0  0
 85 86  1  0  0  0  0
 86 87  2  0  0  0  0
 87 88  1  0  0  0  0
 88 89  1  0  0  0  0
 89 90  2  0  0  0  0
 90 91  1  0  0  0  0
 91 92  2  0  0  0  0
 92 93  1  0  0  0  0
 93 94  1  0  0  0  0
 92 95  1  0  0  0  0
 95 96  2  0  0  0  0
 88 97  1  0  0  0  0
 97 98  2  0  0  0  0
 98 99  1  0  0  0  0
 99100  2  0  0  0  0
100101  1  0  0  0  0
101102  1  0  0  0  0
100103  1  0  0  0  0
103104  2  0  0  0  0
 87105  1  0  0  0  0
105106  1  0  0  0  0
 86107  1  0  0  0  0
107108  2  0  0  0  0
108109  1  0  0  0  0
109110  1  0  0  0  0
110111  2  0  0  0  0
110112  1  0  0  0  0
112113  1  0  0  0  0
113114  1  0  0  0  0
112115  1  0  0  0  0
115116  2  0  0  0  0
  9  2  1  0  0  0  0
 48 11  1  0  0  0  0
 62 49  1  0  0  0  0
106 65  1  0  0  0  0
115108  1  0  0  0  0
 20 14  1  0  0  0  0
 27 21  1  0  0  0  0
 47 28  2  0  0  0  0
 62 55  1  0  0  0  0
 75 68  1  0  0  0  0
 83 76  1  0  0  0  0
105 84  2  0  0  0  0
 39 33  1  0  0  0  0
 46 40  1  0  0  0  0
 96 89  1  0  0  0  0
104 97  1  0  0  0  0
  1117  1  0  0  0  0
  7118  1  0  0  0  0
  7119  1  0  0  0  0
  8120  1  0  0  0  0
  8121  1  0  0  0  0
  8122  1  0  0  0  0
 15123  1  0  0  0  0
 16124  1  0  0  0  0
 18125  1  0  0  0  0
 18126  1  0  0  0  0
 18127  1  0  0  0  0
 19128  1  0  0  0  0
 20129  1  0  0  0  0
 22130  1  0  0  0  0
 23131  1  0  0  0  0
 25132  1  0  0  0  0
 25133  1  0  0  0  0
 25134  1  0  0  0  0
 26135  1  0  0  0  0
 27136  1  0  0  0  0
 34137  1  0  0  0  0
 35138  1  0  0  0  0
 37139  1  0  0  0  0
 37140  1  0  0  0  0
 37141  1  0  0  0  0
 38142  1  0  0  0  0
 39143  1  0  0  0  0
 41144  1  0  0  0  0
 42145  1  0  0  0  0
 44146  1  0  0  0  0
 44147  1  0  0  0  0
 44148  1  0  0  0  0
 45149  1  0  0  0  0
 46150  1  0  0  0  0
 58151  1  0  0  0  0
 58152  1  0  0  0  0
 59153  1  0  0  0  0
 59154  1  0  0  0  0
 59155  1  0  0  0  0
 63156  1  0  0  0  0
 63157  1  0  0  0  0
 64158  1  0  0  0  0
 64159  1  0  0  0  0
 64160  1  0  0  0  0
 69161  1  0  0  0  0
 70162  1  0  0  0  0
 73163  1  0  0  0  0
 73164  1  0  0  0  0
 73165  1  0  0  0  0
 74166  1  0  0  0  0
 75167  1  0  0  0  0
 77168  1  0  0  0  0
 78169  1  0  0  0  0
 81170  1  0  0  0  0
 81171  1  0  0  0  0
 81172  1  0  0  0  0
 82173  1  0  0  0  0
 83174  1  0  0  0  0
 90175  1  0  0  0  0
 91176  1  0  0  0  0
 94177  1  0  0  0  0
 94178  1  0  0  0  0
 94179  1  0  0  0  0
 95180  1  0  0  0  0
 96181  1  0  0  0  0
 98182  1  0  0  0  0
 99183  1  0  0  0  0
102184  1  0  0  0  0
102185  1  0  0  0  0
102186  1  0  0  0  0
103187  1  0  0  0  0
104188  1  0  0  0  0
107189  1  0  0  0  0
113190  1  0  0  0  0
113191  1  0  0  0  0
114192  1  0  0  0  0
114193  1  0  0  0  0
114194  1  0  0  0  0
M  END
