
  xtb     02112217253D
 energy: -370.296137341825 gnorm: 0.000755924460 xtb: 6.4.1 (unknown)
234253  0     0  0            999 V2000
   -2.6500   -5.6787    7.2589 C   0  0  0  0  0  0  0  0  0  0  0  0
   -2.0048   -6.5741    8.0682 C   0  0  0  0  0  0  0  0  0  0  0  0
   -2.7288   -7.0823    9.5875 S   0  0  0  0  0  0  0  0  0  0  0  0
   -1.3669   -8.1249    9.9529 C   0  0  0  0  0  0  0  0  0  0  0  0
   -1.2342   -9.0347   11.3038 S   0  0  0  0  0  0  0  0  0  0  0  0
   -0.4571   -8.0685    8.9492 N   0  0  0  0  0  0  0  0  0  0  0  0
    0.7891   -8.8065    8.9915 C   0  0  0  0  0  0  0  0  0  0  0  0
    1.8593   -8.0318    9.7503 C   0  0  0  0  0  0  0  0  0  0  0  0
   -0.7374   -7.2338    7.8777 C   0  0  0  0  0  0  0  0  0  0  0  0
    0.0192   -7.1278    6.9260 O   0  0  0  0  0  0  0  0  0  0  0  0
   -2.2483   -5.1075    6.0485 C   0  0  0  0  0  0  0  0  0  0  0  0
   -3.0269   -4.1716    5.3296 C   0  0  0  0  0  0  0  0  0  0  0  0
   -4.3362   -3.8444    5.5942 N   0  0  0  0  0  0  0  0  0  0  0  0
   -4.8093   -2.5895    5.1637 C   0  0  0  0  0  0  0  0  0  0  0  0
   -5.9970   -2.4801    4.4478 C   0  0  0  0  0  0  0  0  0  0  0  0
   -6.4089   -1.2486    3.9777 C   0  0  0  0  0  0  0  0  0  0  0  0
   -5.6550   -0.1031    4.2005 C   0  0  0  0  0  0  0  0  0  0  0  0
   -6.0637    1.2192    3.6270 C   0  0  0  0  0  0  0  0  0  0  0  0
   -4.4908   -0.2165    4.9514 C   0  0  0  0  0  0  0  0  0  0  0  0
   -4.0714   -1.4392    5.4352 C   0  0  0  0  0  0  0  0  0  0  0  0
   -5.2729   -4.8231    5.9789 C   0  0  0  0  0  0  0  0  0  0  0  0
   -5.2066   -6.1190    5.4731 C   0  0  0  0  0  0  0  0  0  0  0  0
   -6.1332   -7.0619    5.8664 C   0  0  0  0  0  0  0  0  0  0  0  0
   -7.1517   -6.7414    6.7580 C   0  0  0  0  0  0  0  0  0  0  0  0
   -8.1330   -7.7827    7.1980 C   0  0  0  0  0  0  0  0  0  0  0  0
   -7.2216   -5.4405    7.2402 C   0  0  0  0  0  0  0  0  0  0  0  0
   -6.2965   -4.4878    6.8592 C   0  0  0  0  0  0  0  0  0  0  0  0
   -2.2938   -3.6275    4.2657 C   0  0  0  0  0  0  0  0  0  0  0  0
   -2.6574   -2.4639    3.0386 S   0  0  0  0  0  0  0  0  0  0  0  0
   -1.1090   -2.7653    2.2651 C   0  0  0  0  0  0  0  0  0  0  0  0
   -0.3675   -3.7358    2.9362 C   0  0  0  0  0  0  0  0  0  0  0  0
    0.8749   -4.2187    2.5363 N   0  0  0  0  0  0  0  0  0  0  0  0
    1.0696   -4.7169    1.2489 C   0  0  0  0  0  0  0  0  0  0  0  0
   -0.0000   -5.1989    0.4977 C   0  0  0  0  0  0  0  0  0  0  0  0
    0.1940   -5.6167   -0.8043 C   0  0  0  0  0  0  0  0  0  0  0  0
    1.4513   -5.5788   -1.3929 C   0  0  0  0  0  0  0  0  0  0  0  0
    1.6625   -6.0344   -2.8051 C   0  0  0  0  0  0  0  0  0  0  0  0
    2.5192   -5.1181   -0.6301 C   0  0  0  0  0  0  0  0  0  0  0  0
    2.3385   -4.6906    0.6676 C   0  0  0  0  0  0  0  0  0  0  0  0
    1.8540   -4.3569    3.5346 C   0  0  0  0  0  0  0  0  0  0  0  0
    2.6435   -5.4976    3.6231 C   0  0  0  0  0  0  0  0  0  0  0  0
    3.5837   -5.6109    4.6292 C   0  0  0  0  0  0  0  0  0  0  0  0
    3.7555   -4.6034    5.5685 C   0  0  0  0  0  0  0  0  0  0  0  0
    4.7722   -4.7190    6.6624 C   0  0  0  0  0  0  0  0  0  0  0  0
    2.9580   -3.4684    5.4741 C   0  0  0  0  0  0  0  0  0  0  0  0
    2.0204   -3.3406    4.4718 C   0  0  0  0  0  0  0  0  0  0  0  0
   -1.0376   -4.1949    4.0893 C   0  0  0  0  0  0  0  0  0  0  0  0
   -0.6739   -5.3822    5.2902 S   0  0  0  0  0  0  0  0  0  0  0  0
   -0.6876   -1.9580    1.1805 C   0  0  0  0  0  0  0  0  0  0  0  0
   -1.4312   -1.0773    0.3970 C   0  0  0  0  0  0  0  0  0  0  0  0
   -2.8145   -0.9775    0.3497 N   0  0  0  0  0  0  0  0  0  0  0  0
   -3.6309   -2.1070    0.3689 C   0  0  0  0  0  0  0  0  0  0  0  0
   -4.9298   -2.0291    0.8795 C   0  0  0  0  0  0  0  0  0  0  0  0
   -5.6827   -3.1691    1.0375 C   0  0  0  0  0  0  0  0  0  0  0  0
   -5.1616   -4.4143    0.6981 C   0  0  0  0  0  0  0  0  0  0  0  0
   -6.1611   -5.8292    1.0531 S   0  0  0  0  0  0  0  0  0  0  0  0
   -4.9399   -7.1730    1.1348 C   0  0  0  0  0  0  0  0  0  0  0  0
   -3.9062   -4.4887    0.1105 C   0  0  0  0  0  0  0  0  0  0  0  0
   -3.1531   -3.3446   -0.0601 C   0  0  0  0  0  0  0  0  0  0  0  0
   -3.3731    0.3063    0.2282 C   0  0  0  0  0  0  0  0  0  0  0  0
   -2.9371    1.3352    1.0553 C   0  0  0  0  0  0  0  0  0  0  0  0
   -3.4836    2.6011    0.9527 C   0  0  0  0  0  0  0  0  0  0  0  0
   -4.4626    2.8607    0.0036 C   0  0  0  0  0  0  0  0  0  0  0  0
   -5.2325    4.4300   -0.2225 S   0  0  0  0  0  0  0  0  0  0  0  0
   -4.3998    5.5070    0.9759 C   0  0  0  0  0  0  0  0  0  0  0  0
   -4.8981    1.8304   -0.8295 C   0  0  0  0  0  0  0  0  0  0  0  0
   -4.3654    0.5669   -0.7169 C   0  0  0  0  0  0  0  0  0  0  0  0
   -0.5845   -0.3025   -0.4288 C   0  0  0  0  0  0  0  0  0  0  0  0
   -0.8455    0.9301   -1.6063 S   0  0  0  0  0  0  0  0  0  0  0  0
    0.8827    0.9652   -1.9975 C   0  0  0  0  0  0  0  0  0  0  0  0
    1.5981    0.0425   -1.2586 C   0  0  0  0  0  0  0  0  0  0  0  0
    2.9574   -0.2140   -1.3587 N   0  0  0  0  0  0  0  0  0  0  0  0
    3.6327   -0.6986   -0.2277 C   0  0  0  0  0  0  0  0  0  0  0  0
    4.5142   -1.7721   -0.3213 C   0  0  0  0  0  0  0  0  0  0  0  0
    5.1384   -2.2737    0.8042 C   0  0  0  0  0  0  0  0  0  0  0  0
    4.8854   -1.7163    2.0501 C   0  0  0  0  0  0  0  0  0  0  0  0
    5.6180   -2.2854    3.5529 S   0  0  0  0  0  0  0  0  0  0  0  0
    6.2842   -3.9152    3.1145 C   0  0  0  0  0  0  0  0  0  0  0  0
    4.0224   -0.6279    2.1456 C   0  0  0  0  0  0  0  0  0  0  0  0
    3.4063   -0.1218    1.0231 C   0  0  0  0  0  0  0  0  0  0  0  0
    3.5378   -0.4116   -2.6229 C   0  0  0  0  0  0  0  0  0  0  0  0
    2.8691   -1.1163   -3.6202 C   0  0  0  0  0  0  0  0  0  0  0  0
    3.4734   -1.3458   -4.8414 C   0  0  0  0  0  0  0  0  0  0  0  0
    4.7591   -0.8804   -5.0757 C   0  0  0  0  0  0  0  0  0  0  0  0
    5.6266   -1.1645   -6.5875 S   0  0  0  0  0  0  0  0  0  0  0  0
    4.8719   -2.7069   -7.1848 C   0  0  0  0  0  0  0  0  0  0  0  0
    5.4237   -0.1582   -4.0872 C   0  0  0  0  0  0  0  0  0  0  0  0
    4.8214    0.0718   -2.8709 C   0  0  0  0  0  0  0  0  0  0  0  0
    0.7553   -0.6344   -0.3420 C   0  0  0  0  0  0  0  0  0  0  0  0
    1.0336   -1.8716    0.8231 S   0  0  0  0  0  0  0  0  0  0  0  0
    1.2574    1.9602   -2.9616 C   0  0  0  0  0  0  0  0  0  0  0  0
    0.8312    3.2755   -2.8669 C   0  0  0  0  0  0  0  0  0  0  0  0
    0.2370    3.8100   -1.7327 N   0  0  0  0  0  0  0  0  0  0  0  0
    0.7957    3.5655   -0.4756 C   0  0  0  0  0  0  0  0  0  0  0  0
    2.1721    3.4307   -0.3146 C   0  0  0  0  0  0  0  0  0  0  0  0
    2.7055    3.1991    0.9385 C   0  0  0  0  0  0  0  0  0  0  0  0
    1.8910    3.0820    2.0582 C   0  0  0  0  0  0  0  0  0  0  0  0
    2.4692    2.8306    3.4178 C   0  0  0  0  0  0  0  0  0  0  0  0
    0.5163    3.2067    1.8862 C   0  0  0  0  0  0  0  0  0  0  0  0
   -0.0274    3.4476    0.6420 C   0  0  0  0  0  0  0  0  0  0  0  0
   -0.8567    4.6721   -1.8891 C   0  0  0  0  0  0  0  0  0  0  0  0
   -0.9800    5.8200   -1.1135 C   0  0  0  0  0  0  0  0  0  0  0  0
   -2.0551    6.6677   -1.2986 C   0  0  0  0  0  0  0  0  0  0  0  0
   -3.0280    6.3979   -2.2520 C   0  0  0  0  0  0  0  0  0  0  0  0
   -4.2005    7.3084   -2.4501 C   0  0  0  0  0  0  0  0  0  0  0  0
   -2.8973    5.2461   -3.0196 C   0  0  0  0  0  0  0  0  0  0  0  0
   -1.8295    4.3911   -2.8453 C   0  0  0  0  0  0  0  0  0  0  0  0
    1.1227    4.0132   -4.0333 C   0  0  0  0  0  0  0  0  0  0  0  0
    0.8815    5.6562   -4.4929 S   0  0  0  0  0  0  0  0  0  0  0  0
    1.6500    5.3353   -6.0481 C   0  0  0  0  0  0  0  0  0  0  0  0
    2.1214    4.0069   -6.1468 C   0  0  0  0  0  0  0  0  0  0  0  0
    2.8015    3.4850   -7.2262 N   0  0  0  0  0  0  0  0  0  0  0  0
    2.5283    2.1762   -7.6502 C   0  0  0  0  0  0  0  0  0  0  0  0
    1.2339    1.6654   -7.5602 C   0  0  0  0  0  0  0  0  0  0  0  0
    0.9550    0.3951   -8.0181 C   0  0  0  0  0  0  0  0  0  0  0  0
    1.9420   -0.3920   -8.6014 C   0  0  0  0  0  0  0  0  0  0  0  0
    1.6024   -1.7526   -9.1337 C   0  0  0  0  0  0  0  0  0  0  0  0
    3.2289    0.1227   -8.6844 C   0  0  0  0  0  0  0  0  0  0  0  0
    3.5287    1.3818   -8.2019 C   0  0  0  0  0  0  0  0  0  0  0  0
    3.7896    4.2431   -7.8814 C   0  0  0  0  0  0  0  0  0  0  0  0
    4.6594    5.0440   -7.1456 C   0  0  0  0  0  0  0  0  0  0  0  0
    5.6092    5.8096   -7.7910 C   0  0  0  0  0  0  0  0  0  0  0  0
    5.7277    5.7911   -9.1761 C   0  0  0  0  0  0  0  0  0  0  0  0
    6.7391    6.6481   -9.8715 C   0  0  0  0  0  0  0  0  0  0  0  0
    4.8665    4.9755   -9.9007 C   0  0  0  0  0  0  0  0  0  0  0  0
    3.9063    4.2106   -9.2688 C   0  0  0  0  0  0  0  0  0  0  0  0
    1.7888    3.2696   -4.9994 C   0  0  0  0  0  0  0  0  0  0  0  0
    2.0883    1.6405   -4.4778 S   0  0  0  0  0  0  0  0  0  0  0  0
    1.7024    6.2582   -7.0993 C   0  0  0  0  0  0  0  0  0  0  0  0
    1.2999    7.5637   -7.1478 C   0  0  0  0  0  0  0  0  0  0  0  0
    1.4522    8.4839   -8.6380 S   0  0  0  0  0  0  0  0  0  0  0  0
    0.8004    9.9259   -7.8806 C   0  0  0  0  0  0  0  0  0  0  0  0
    0.5877   11.3547   -8.6434 S   0  0  0  0  0  0  0  0  0  0  0  0
    0.5143    9.6772   -6.5788 N   0  0  0  0  0  0  0  0  0  0  0  0
   -0.0573   10.6834   -5.7065 C   0  0  0  0  0  0  0  0  0  0  0  0
   -1.5753   10.7199   -5.8302 C   0  0  0  0  0  0  0  0  0  0  0  0
    0.7538    8.3968   -6.1036 C   0  0  0  0  0  0  0  0  0  0  0  0
    0.5294    8.0838   -4.9465 O   0  0  0  0  0  0  0  0  0  0  0  0
   -3.6124   -5.3415    7.6253 H   0  0  0  0  0  0  0  0  0  0  0  0
    0.5967   -9.7673    9.4744 H   0  0  0  0  0  0  0  0  0  0  0  0
    1.0941   -8.9582    7.9532 H   0  0  0  0  0  0  0  0  0  0  0  0
    1.5450   -7.8643   10.7779 H   0  0  0  0  0  0  0  0  0  0  0  0
    2.7851   -8.5994    9.7564 H   0  0  0  0  0  0  0  0  0  0  0  0
    2.0376   -7.0726    9.2695 H   0  0  0  0  0  0  0  0  0  0  0  0
   -6.5811   -3.3655    4.2456 H   0  0  0  0  0  0  0  0  0  0  0  0
   -7.3270   -1.1797    3.4122 H   0  0  0  0  0  0  0  0  0  0  0  0
   -5.4510    1.4500    2.7536 H   0  0  0  0  0  0  0  0  0  0  0  0
   -5.9221    2.0166    4.3538 H   0  0  0  0  0  0  0  0  0  0  0  0
   -7.1055    1.2064    3.3171 H   0  0  0  0  0  0  0  0  0  0  0  0
   -3.9019    0.6657    5.1565 H   0  0  0  0  0  0  0  0  0  0  0  0
   -3.1643   -1.5152    6.0172 H   0  0  0  0  0  0  0  0  0  0  0  0
   -4.4258   -6.3794    4.7739 H   0  0  0  0  0  0  0  0  0  0  0  0
   -6.0718   -8.0643    5.4683 H   0  0  0  0  0  0  0  0  0  0  0  0
   -9.0426   -7.3251    7.5788 H   0  0  0  0  0  0  0  0  0  0  0  0
   -8.3883   -8.4463    6.3745 H   0  0  0  0  0  0  0  0  0  0  0  0
   -7.6988   -8.3888    7.9939 H   0  0  0  0  0  0  0  0  0  0  0  0
   -8.0074   -5.1683    7.9295 H   0  0  0  0  0  0  0  0  0  0  0  0
   -6.3582   -3.4795    7.2418 H   0  0  0  0  0  0  0  0  0  0  0  0
   -0.9848   -5.2378    0.9402 H   0  0  0  0  0  0  0  0  0  0  0  0
   -0.6496   -5.9802   -1.3747 H   0  0  0  0  0  0  0  0  0  0  0  0
    0.7283   -6.0229   -3.3619 H   0  0  0  0  0  0  0  0  0  0  0  0
    2.3830   -5.3946   -3.3116 H   0  0  0  0  0  0  0  0  0  0  0  0
    2.0525   -7.0529   -2.8181 H   0  0  0  0  0  0  0  0  0  0  0  0
    3.5062   -5.0763   -1.0683 H   0  0  0  0  0  0  0  0  0  0  0  0
    3.1695   -4.2973    1.2330 H   0  0  0  0  0  0  0  0  0  0  0  0
    2.5096   -6.2969    2.9090 H   0  0  0  0  0  0  0  0  0  0  0  0
    4.1861   -6.5063    4.6893 H   0  0  0  0  0  0  0  0  0  0  0  0
    5.4381   -3.8567    6.6519 H   0  0  0  0  0  0  0  0  0  0  0  0
    5.3647   -5.6242    6.5532 H   0  0  0  0  0  0  0  0  0  0  0  0
    4.2798   -4.7458    7.6339 H   0  0  0  0  0  0  0  0  0  0  0  0
    3.0846   -2.6710    6.1917 H   0  0  0  0  0  0  0  0  0  0  0  0
    1.4128   -2.4502    4.3988 H   0  0  0  0  0  0  0  0  0  0  0  0
   -5.3235   -1.0767    1.1974 H   0  0  0  0  0  0  0  0  0  0  0  0
   -6.6745   -3.1123    1.4573 H   0  0  0  0  0  0  0  0  0  0  0  0
   -4.6234   -7.4620    0.1366 H   0  0  0  0  0  0  0  0  0  0  0  0
   -5.4462   -8.0058    1.6126 H   0  0  0  0  0  0  0  0  0  0  0  0
   -4.0940   -6.8554    1.7370 H   0  0  0  0  0  0  0  0  0  0  0  0
   -3.5024   -5.4343   -0.2165 H   0  0  0  0  0  0  0  0  0  0  0  0
   -2.1734   -3.4152   -0.5094 H   0  0  0  0  0  0  0  0  0  0  0  0
   -2.1722    1.1353    1.7914 H   0  0  0  0  0  0  0  0  0  0  0  0
   -3.1481    3.3715    1.6285 H   0  0  0  0  0  0  0  0  0  0  0  0
   -3.3378    5.5520    0.7521 H   0  0  0  0  0  0  0  0  0  0  0  0
   -4.8437    6.4884    0.8414 H   0  0  0  0  0  0  0  0  0  0  0  0
   -4.5865    5.1552    1.9865 H   0  0  0  0  0  0  0  0  0  0  0  0
   -5.6583    2.0401   -1.5659 H   0  0  0  0  0  0  0  0  0  0  0  0
   -4.7067   -0.2282   -1.3625 H   0  0  0  0  0  0  0  0  0  0  0  0
    4.7029   -2.2280   -1.2819 H   0  0  0  0  0  0  0  0  0  0  0  0
    5.8126   -3.1084    0.6953 H   0  0  0  0  0  0  0  0  0  0  0  0
    7.1301   -3.8104    2.4410 H   0  0  0  0  0  0  0  0  0  0  0  0
    5.4973   -4.5228    2.6777 H   0  0  0  0  0  0  0  0  0  0  0  0
    6.6118   -4.3581    4.0493 H   0  0  0  0  0  0  0  0  0  0  0  0
    3.8381   -0.1892    3.1138 H   0  0  0  0  0  0  0  0  0  0  0  0
    2.7355    0.7192    1.1049 H   0  0  0  0  0  0  0  0  0  0  0  0
    1.8741   -1.4924   -3.4316 H   0  0  0  0  0  0  0  0  0  0  0  0
    2.9337   -1.8864   -5.6020 H   0  0  0  0  0  0  0  0  0  0  0  0
    5.5165   -3.0661   -7.9807 H   0  0  0  0  0  0  0  0  0  0  0  0
    4.8450   -3.4289   -6.3745 H   0  0  0  0  0  0  0  0  0  0  0  0
    3.8769   -2.5150   -7.5721 H   0  0  0  0  0  0  0  0  0  0  0  0
    6.4180    0.2111   -4.2856 H   0  0  0  0  0  0  0  0  0  0  0  0
    5.3396    0.6156   -2.0955 H   0  0  0  0  0  0  0  0  0  0  0  0
    2.8230    3.5180   -1.1721 H   0  0  0  0  0  0  0  0  0  0  0  0
    3.7773    3.1115    1.0475 H   0  0  0  0  0  0  0  0  0  0  0  0
    3.5275    2.5911    3.3514 H   0  0  0  0  0  0  0  0  0  0  0  0
    2.3558    3.7145    4.0456 H   0  0  0  0  0  0  0  0  0  0  0  0
    1.9525    2.0068    3.9081 H   0  0  0  0  0  0  0  0  0  0  0  0
   -0.1355    3.1086    2.7432 H   0  0  0  0  0  0  0  0  0  0  0  0
   -1.0947    3.5333    0.5111 H   0  0  0  0  0  0  0  0  0  0  0  0
   -0.2245    6.0492   -0.3760 H   0  0  0  0  0  0  0  0  0  0  0  0
   -2.1299    7.5635   -0.6977 H   0  0  0  0  0  0  0  0  0  0  0  0
   -5.1254    6.7876   -2.2019 H   0  0  0  0  0  0  0  0  0  0  0  0
   -4.2652    7.6238   -3.4902 H   0  0  0  0  0  0  0  0  0  0  0  0
   -4.1186    8.1931   -1.8235 H   0  0  0  0  0  0  0  0  0  0  0  0
   -3.6496    5.0151   -3.7596 H   0  0  0  0  0  0  0  0  0  0  0  0
   -1.7428    3.4933   -3.4402 H   0  0  0  0  0  0  0  0  0  0  0  0
    0.4450    2.2759   -7.1465 H   0  0  0  0  0  0  0  0  0  0  0  0
   -0.0533    0.0139   -7.9430 H   0  0  0  0  0  0  0  0  0  0  0  0
    1.2805   -2.4123   -8.3269 H   0  0  0  0  0  0  0  0  0  0  0  0
    0.7811   -1.6849   -9.8459 H   0  0  0  0  0  0  0  0  0  0  0  0
    2.4558   -2.2026   -9.6359 H   0  0  0  0  0  0  0  0  0  0  0  0
    4.0171   -0.4640   -9.1330 H   0  0  0  0  0  0  0  0  0  0  0  0
    4.5406    1.7526   -8.2586 H   0  0  0  0  0  0  0  0  0  0  0  0
    4.5807    5.0642   -6.0686 H   0  0  0  0  0  0  0  0  0  0  0  0
    6.2755    6.4284   -7.2079 H   0  0  0  0  0  0  0  0  0  0  0  0
    7.6123    6.8067   -9.2429 H   0  0  0  0  0  0  0  0  0  0  0  0
    6.3053    7.6229  -10.0976 H   0  0  0  0  0  0  0  0  0  0  0  0
    7.0541    6.1954  -10.8086 H   0  0  0  0  0  0  0  0  0  0  0  0
    4.9409    4.9460  -10.9779 H   0  0  0  0  0  0  0  0  0  0  0  0
    3.2346    3.5918   -9.8457 H   0  0  0  0  0  0  0  0  0  0  0  0
    2.1116    5.8738   -8.0257 H   0  0  0  0  0  0  0  0  0  0  0  0
    0.3726   11.6499   -5.9796 H   0  0  0  0  0  0  0  0  0  0  0  0
    0.2345   10.4128   -4.6889 H   0  0  0  0  0  0  0  0  0  0  0  0
   -1.8641   10.9665   -6.8492 H   0  0  0  0  0  0  0  0  0  0  0  0
   -1.9956    9.7531   -5.5626 H   0  0  0  0  0  0  0  0  0  0  0  0
   -1.9769   11.4751   -5.1611 H   0  0  0  0  0  0  0  0  0  0  0  0
  1  2  2  0  0  0  0
  2  3  1  0  0  0  0
  3  4  1  0  0  0  0
  4  5  2  0  0  0  0
  4  6  1  0  0  0  0
  6  7  1  0  0  0  0
  7  8  1  0  0  0  0
  6  9  1  0  0  0  0
  9 10  2  0  0  0  0
  1 11  1  0  0  0  0
 11 12  2  0  0  0  0
 12 13  1  0  0  0  0
 13 14  1  0  0  0  0
 14 15  2  0  0  0  0
 15 16  1  0  0  0  0
 16 17  2  0  0  0  0
 17 18  1  0  0  0  0
 17 19  1  0  0  0  0
 19 20  2  0  0  0  0
 13 21  1  0  0  0  0
 21 22  2  0  0  0  0
 22 23  1  0  0  0  0
 23 24  2  0  0  0  0
 24 25  1  0  0  0  0
 24 26  1  0  0  0  0
 26 27  2  0  0  0  0
 12 28  1  0  0  0  0
 28 29  1  0  0  0  0
 29 30  1  0  0  0  0
 30 31  2  0  0  0  0
 31 32  1  0  0  0  0
 32 33  1  0  0  0  0
 33 34  2  0  0  0  0
 34 35  1  0  0  0  0
 35 36  2  0  0  0  0
 36 37  1  0  0  0  0
 36 38  1  0  0  0  0
 38 39  2  0  0  0  0
 32 40  1  0  0  0  0
 40 41  2  0  0  0  0
 41 42  1  0  0  0  0
 42 43  2  0  0  0  0
 43 44  1  0  0  0  0
 43 45  1  0  0  0  0
 45 46  2  0  0  0  0
 31 47  1  0  0  0  0
 47 48  1  0  0  0  0
 30 49  1  0  0  0  0
 49 50  2  0  0  0  0
 50 51  1  0  0  0  0
 51 52  1  0  0  0  0
 52 53  2  0  0  0  0
 53 54  1  0  0  0  0
 54 55  2  0  0  0  0
 55 56  1  0  0  0  0
 56 57  1  0  0  0  0
 55 58  1  0  0  0  0
 58 59  2  0  0  0  0
 51 60  1  0  0  0  0
 60 61  2  0  0  0  0
 61 62  1  0  0  0  0
 62 63  2  0  0  0  0
 63 64  1  0  0  0  0
 64 65  1  0  0  0  0
 63 66  1  0  0  0  0
 66 67  2  0  0  0  0
 50 68  1  0  0  0  0
 68 69  1  0  0  0  0
 69 70  1  0  0  0  0
 70 71  2  0  0  0  0
 71 72  1  0  0  0  0
 72 73  1  0  0  0  0
 73 74  2  0  0  0  0
 74 75  1  0  0  0  0
 75 76  2  0  0  0  0
 76 77  1  0  0  0  0
 77 78  1  0  0  0  0
 76 79  1  0  0  0  0
 79 80  2  0  0  0  0
 72 81  1  0  0  0  0
 81 82  2  0  0  0  0
 82 83  1  0  0  0  0
 83 84  2  0  0  0  0
 84 85  1  0  0  0  0
 85 86  1  0  0  0  0
 84 87  1  0  0  0  0
 87 88  2  0  0  0  0
 71 89  1  0  0  0  0
 89 90  1  0  0  0  0
 70 91  1  0  0  0  0
 91 92  2  0  0  0  0
 92 93  1  0  0  0  0
 93 94  1  0  0  0  0
 94 95  2  0  0  0  0
 95 96  1  0  0  0  0
 96 97  2  0  0  0  0
 97 98  1  0  0  0  0
 97 99  1  0  0  0  0
 99100  2  0  0  0  0
 93101  1  0  0  0  0
101102  2  0  0  0  0
102103  1  0  0  0  0
103104  2  0  0  0  0
104105  1  0  0  0  0
104106  1  0  0  0  0
106107  2  0  0  0  0
 92108  1  0  0  0  0
108109  1  0  0  0  0
109110  1  0  0  0  0
110111  2  0  0  0  0
111112  1  0  0  0  0
112113  1  0  0  0  0
113114  2  0  0  0  0
114115  1  0  0  0  0
115116  2  0  0  0  0
116117  1  0  0  0  0
116118  1  0  0  0  0
118119  2  0  0  0  0
112120  1  0  0  0  0
120121  2  0  0  0  0
121122  1  0  0  0  0
122123  2  0  0  0  0
123124  1  0  0  0  0
123125  1  0  0  0  0
125126  2  0  0  0  0
111127  1  0  0  0  0
127128  1  0  0  0  0
110129  1  0  0  0  0
129130  2  0  0  0  0
130131  1  0  0  0  0
131132  1  0  0  0  0
132133  2  0  0  0  0
132134  1  0  0  0  0
134135  1  0  0  0  0
135136  1  0  0  0  0
134137  1  0  0  0  0
137138  2  0  0  0  0
  9  2  1  0  0  0  0
 48 11  1  0  0  0  0
 90 49  1  0  0  0  0
128 91  1  0  0  0  0
137130  1  0  0  0  0
 20 14  1  0  0  0  0
 27 21  1  0  0  0  0
 47 28  2  0  0  0  0
 59 52  1  0  0  0  0
 67 60  1  0  0  0  0
 89 68  2  0  0  0  0
100 94  1  0  0  0  0
107101  1  0  0  0  0
127108  2  0  0  0  0
 39 33  1  0  0  0  0
 46 40  1  0  0  0  0
 80 73  1  0  0  0  0
 88 81  1  0  0  0  0
119113  1  0  0  0  0
126120  1  0  0  0  0
  1139  1  0  0  0  0
  7140  1  0  0  0  0
  7141  1  0  0  0  0
  8142  1  0  0  0  0
  8143  1  0  0  0  0
  8144  1  0  0  0  0
 15145  1  0  0  0  0
 16146  1  0  0  0  0
 18147  1  0  0  0  0
 18148  1  0  0  0  0
 18149  1  0  0  0  0
 19150  1  0  0  0  0
 20151  1  0  0  0  0
 22152  1  0  0  0  0
 23153  1  0  0  0  0
 25154  1  0  0  0  0
 25155  1  0  0  0  0
 25156  1  0  0  0  0
 26157  1  0  0  0  0
 27158  1  0  0  0  0
 34159  1  0  0  0  0
 35160  1  0  0  0  0
 37161  1  0  0  0  0
 37162  1  0  0  0  0
 37163  1  0  0  0  0
 38164  1  0  0  0  0
 39165  1  0  0  0  0
 41166  1  0  0  0  0
 42167  1  0  0  0  0
 44168  1  0  0  0  0
 44169  1  0  0  0  0
 44170  1  0  0  0  0
 45171  1  0  0  0  0
 46172  1  0  0  0  0
 53173  1  0  0  0  0
 54174  1  0  0  0  0
 57175  1  0  0  0  0
 57176  1  0  0  0  0
 57177  1  0  0  0  0
 58178  1  0  0  0  0
 59179  1  0  0  0  0
 61180  1  0  0  0  0
 62181  1  0  0  0  0
 65182  1  0  0  0  0
 65183  1  0  0  0  0
 65184  1  0  0  0  0
 66185  1  0  0  0  0
 67186  1  0  0  0  0
 74187  1  0  0  0  0
 75188  1  0  0  0  0
 78189  1  0  0  0  0
 78190  1  0  0  0  0
 78191  1  0  0  0  0
 79192  1  0  0  0  0
 80193  1  0  0  0  0
 82194  1  0  0  0  0
 83195  1  0  0  0  0
 86196  1  0  0  0  0
 86197  1  0  0  0  0
 86198  1  0  0  0  0
 87199  1  0  0  0  0
 88200  1  0  0  0  0
 95201  1  0  0  0  0
 96202  1  0  0  0  0
 98203  1  0  0  0  0
 98204  1  0  0  0  0
 98205  1  0  0  0  0
 99206  1  0  0  0  0
100207  1  0  0  0  0
102208  1  0  0  0  0
103209  1  0  0  0  0
105210  1  0  0  0  0
105211  1  0  0  0  0
105212  1  0  0  0  0
106213  1  0  0  0  0
107214  1  0  0  0  0
114215  1  0  0  0  0
115216  1  0  0  0  0
117217  1  0  0  0  0
117218  1  0  0  0  0
117219  1  0  0  0  0
118220  1  0  0  0  0
119221  1  0  0  0  0
121222  1  0  0  0  0
122223  1  0  0  0  0
124224  1  0  0  0  0
124225  1  0  0  0  0
124226  1  0  0  0  0
125227  1  0  0  0  0
126228  1  0  0  0  0
129229  1  0  0  0  0
135230  1  0  0  0  0
135231  1  0  0  0  0
136232  1  0  0  0  0
136233  1  0  0  0  0
136234  1  0  0  0  0
M  END
