200

C         -3.93150        4.89470        6.48610
C         -5.12300        4.78680        7.15180
C         -5.78150        6.00100        7.70430
O         -5.31230        7.11310        7.79680
C         -7.14360        5.55640        8.04250
C         -7.23820        4.18780        7.83480
S         -8.77300        3.51920        8.24150
C         -9.33650        5.10700        8.66580
C        -10.56470        5.61760        9.12570
C        -10.49580        6.96290        9.30860
S         -8.94850        7.64560        8.93720
C         -8.34980        6.08840        8.51450
C         -5.99580        3.65530        7.34550
C         -5.66650        2.31860        7.28260
C         -4.35260        1.85290        7.12840
N         -3.28640        1.43070        7.04980
C         -6.63790        1.31720        7.45460
N         -7.43370        0.49420        7.54840
C         -3.37820        4.06800        5.49450
C         -3.95210        3.15470        4.59170
N         -5.28790        2.89740        4.39390
C         -5.63610        1.71190        3.68880
C         -5.27360        0.46170        4.17960
C         -5.59700       -0.67690        3.46900
C         -6.28180       -0.59980        2.26140
C         -6.60840       -1.84650        1.50000
C         -6.65360        0.65290        1.78960
C         -6.33850        1.80020        2.49220
C         -6.31030        3.84110        4.56440
C         -6.08900        5.21240        4.45510
C         -7.12230        6.10400        4.66450
C         -8.40650        5.66350        4.96330
C         -9.51430        6.64110        5.20250
C         -8.63440        4.29270        5.01140
C         -7.60620        3.39180        4.82610
C         -2.94640        2.55280        3.79660
S         -2.96970        1.34460        2.56320
C         -1.24770        1.50830        2.34160
C         -0.66700        2.41830        3.20890
N          0.68730        2.66540        3.33230
C          1.62760        1.67590        3.00840
C          2.78170        1.99990        2.29770
C          3.64600        1.00880        1.88270
C          3.40070       -0.32960        2.16710
C          4.33210       -1.39050        1.66790
C          2.28320       -0.63890        2.93130
C          1.40980        0.34460        3.35490
C          1.11270        3.96510        3.64170
C          0.43530        5.07300        3.13830
C          0.85120        6.34930        3.46410
C          1.95320        6.55730        4.28340
C          2.38560        7.94240        4.65470
C          2.63370        5.44550        4.76820
C          2.22230        4.16490        4.45940
C         -1.65880        3.01710        4.02770
S         -1.63380        4.22970        5.24930
C         -0.58630        0.69220        1.34970
C         -0.82460       -0.66360        1.24480
F         -1.69550       -1.26240        2.07590
C         -0.16030       -1.46350        0.31170
F         -0.43220       -2.78150        0.29390
C          0.78090       -0.94700       -0.55450
C          1.07230        0.43890       -0.44970
N          1.99350        0.97730       -1.25870
C          2.16330        2.27570       -1.27540
C          3.23380        2.77770       -2.19950
C          3.10160        2.14140       -3.58280
C          1.32950        3.11640       -0.48210
N          0.47450        2.59820        0.36630
C          0.34620        1.26320        0.44170
C          1.33890        4.61350       -0.58100
C          2.50820        5.24560        0.17700
C          1.36830       -1.74570       -1.60510
C          0.68460       -2.53900       -2.51270
N         -0.68940       -2.65170       -2.59400
C         -1.26610       -3.86630       -2.99140
C         -0.69990       -5.08000       -2.60970
C         -1.26730       -6.26880       -3.02220
C         -2.41240       -6.28360       -3.80930
C         -3.00570       -7.58050       -4.26750
C         -2.97970       -5.06750       -4.17070
C         -2.41730       -3.87100       -3.77380
C         -1.50760       -1.57070       -2.22580
C         -1.16630       -0.27030       -2.59460
C         -1.91710        0.79600       -2.14510
C         -3.02790        0.60280       -1.32960
C         -3.81440        1.77490       -0.82940
C         -3.38820       -0.69830       -1.00570
C         -2.64330       -1.77570       -1.44700
C          1.59320       -3.15250       -3.41060
S          1.41190       -4.25650       -4.71630
C          3.15210       -4.21920       -5.02680
C          3.83930       -3.44150       -4.07540
N          5.19960       -3.35170       -3.90760
C          6.09910       -4.38670       -4.20730
C          7.42460       -4.06360       -4.50230
C          8.33190       -5.05390       -4.81980
C          7.94850       -6.38880       -4.87420
C          8.91910       -7.45970       -5.26260
C          6.63770       -6.70820       -4.53730
C          5.72640       -5.72910       -4.19610
C          5.71420       -2.29300       -3.11040
C          6.43880       -2.58830       -1.96100
C          6.95220       -1.56790       -1.18500
C          6.76560       -0.23770       -1.54020
C          7.30560        0.87240       -0.69270
C          6.04910        0.04480       -2.69680
C          5.52060       -0.96560       -3.47550
C          2.92260       -2.81160       -3.19830
S          3.08320       -1.67730       -1.89910
C          3.58730       -4.99120       -6.11500
C          4.75640       -4.93210       -6.82590
C          5.25970       -6.14430       -7.52620
O          4.67190       -7.18750       -7.70290
C          6.64640       -5.80810       -7.88920
C          6.89340       -4.48500       -7.55390
S          8.47400       -3.93830       -7.96860
C          8.84810       -5.52310       -8.57460
C          9.99550       -6.10600       -9.14420
C          9.77620       -7.41120       -9.45480
S          8.18110       -7.96730       -9.07470
C          7.76930       -6.40900       -8.47100
C          5.73510       -3.88190       -6.95200
C          5.55730       -2.53130       -6.74030
C          4.31520       -1.94100       -6.46800
N          3.31340       -1.40800       -6.28320
C          6.62580       -1.62600       -6.86100
N          7.49740       -0.87910       -6.91090
H         -3.35980        5.78880        6.71650
H        -11.44070        5.02340        9.30760
H        -11.27590        7.61520        9.64790
H         -4.72590        0.38360        5.10540
H         -5.30510       -1.64130        3.85550
H         -5.72640       -2.47840        1.41220
H         -6.97860       -1.61350        0.50450
H         -7.37320       -2.41720        2.02650
H         -7.18940        0.73640        0.85470
H         -6.62330        2.77050        2.11160
H         -5.10820        5.58250        4.19970
H         -6.92440        7.16350        4.59760
H        -10.30790        6.19220        5.79580
H         -9.14220        7.52450        5.71690
H         -9.94230        6.96220        4.25240
H         -9.62760        3.92240        5.21950
H         -7.79840        2.33140        4.90160
H          2.98280        3.03070        2.04980
H          4.52160        1.27480        1.30760
H          3.92130       -2.38110        1.84390
H          5.29370       -1.32000        2.17640
H          4.50940       -1.26880        0.59970
H          2.08660       -1.66740        3.19750
H          0.54670        0.08200        3.94870
H         -0.40510        4.92410        2.47710
H          0.31480        7.19890        3.06680
H          2.09700        8.65870        3.88890
H          1.91150        8.24020        5.59050
H          3.46310        7.98910        4.79540
H          3.49440        5.58570        5.40600
H          2.75440        3.31020        4.85010
H          3.20000        3.86300       -2.28280
H          4.19960        2.49600       -1.77080
H          3.91150        2.46830       -4.23030
H          3.12960        1.05960       -3.49630
H          2.15780        2.42710       -4.04200
H          0.40410        4.97900       -0.15460
H          1.37930        4.90720       -1.63220
H          3.45900        4.82380       -0.14020
H          2.52760        6.31780       -0.00310
H          2.39220        5.08570        1.24590
H          0.17240       -5.08460       -1.97320
H         -0.81830       -7.20360       -2.71910
H         -2.94430       -8.33230       -3.48340
H         -2.45830       -7.95480       -5.13320
H         -4.04680       -7.45320       -4.55390
H         -3.87220       -5.05570       -4.77970
H         -2.86370       -2.93260       -4.06830
H         -0.30220       -0.10230       -3.22070
H         -1.63430        1.80040       -2.42740
H         -4.50110        1.47300       -0.04230
H         -3.14530        2.53890       -0.43720
H         -4.38940        2.21880       -1.64250
H         -4.24890       -0.86970       -0.37610
H         -2.91740       -2.78160       -1.16550
H          7.73570       -3.02890       -4.49950
H          9.35050       -4.77940       -5.05220
H          8.42930       -8.21800       -5.87010
H          9.75540       -7.04370       -5.81990
H          9.31400       -7.94930       -4.37200
H          6.32230       -7.74090       -4.54560
H          4.72260       -6.00880       -3.91650
H          6.59240       -3.61960       -1.67860
H          7.50500       -1.81140       -0.28950
H          6.49790        1.33160       -0.12200
H          7.75700        1.64510       -1.31190
H          8.04910        0.50330        0.00890
H          5.90800        1.07070       -3.00020
H          4.96020       -0.72630       -4.36510
H          2.92200       -5.79970       -6.40360
H         10.92190       -5.58870       -9.31100
H         10.46800       -8.10110       -9.89590
