
  xtb     02152206253D
 energy: -336.501683211062 gnorm: 0.000623299398 xtb: 6.4.1 (unknown)
200219  0     0  0            999 V2000
   -3.9315    4.8947    6.4861 C   0  0  0  0  0  0  0  0  0  0  0  0
   -5.1230    4.7868    7.1518 C   0  0  0  0  0  0  0  0  0  0  0  0
   -5.7815    6.0010    7.7043 C   0  0  0  0  0  0  0  0  0  0  0  0
   -5.3123    7.1131    7.7968 O   0  0  0  0  0  0  0  0  0  0  0  0
   -7.1436    5.5564    8.0425 C   0  0  0  0  0  0  0  0  0  0  0  0
   -7.2382    4.1878    7.8348 C   0  0  0  0  0  0  0  0  0  0  0  0
   -8.7730    3.5192    8.2415 S   0  0  0  0  0  0  0  0  0  0  0  0
   -9.3365    5.1070    8.6658 C   0  0  0  0  0  0  0  0  0  0  0  0
  -10.5647    5.6176    9.1257 C   0  0  0  0  0  0  0  0  0  0  0  0
  -10.4958    6.9629    9.3086 C   0  0  0  0  0  0  0  0  0  0  0  0
   -8.9485    7.6456    8.9372 S   0  0  0  0  0  0  0  0  0  0  0  0
   -8.3498    6.0884    8.5145 C   0  0  0  0  0  0  0  0  0  0  0  0
   -5.9958    3.6553    7.3455 C   0  0  0  0  0  0  0  0  0  0  0  0
   -5.6665    2.3186    7.2826 C   0  0  0  0  0  0  0  0  0  0  0  0
   -4.3526    1.8529    7.1284 C   0  0  0  0  0  0  0  0  0  0  0  0
   -3.2864    1.4307    7.0498 N   0  0  0  0  0  0  0  0  0  0  0  0
   -6.6379    1.3172    7.4546 C   0  0  0  0  0  0  0  0  0  0  0  0
   -7.4337    0.4942    7.5484 N   0  0  0  0  0  0  0  0  0  0  0  0
   -3.3782    4.0680    5.4945 C   0  0  0  0  0  0  0  0  0  0  0  0
   -3.9521    3.1547    4.5917 C   0  0  0  0  0  0  0  0  0  0  0  0
   -5.2879    2.8974    4.3939 N   0  0  0  0  0  0  0  0  0  0  0  0
   -5.6361    1.7119    3.6888 C   0  0  0  0  0  0  0  0  0  0  0  0
   -5.2736    0.4617    4.1796 C   0  0  0  0  0  0  0  0  0  0  0  0
   -5.5970   -0.6769    3.4690 C   0  0  0  0  0  0  0  0  0  0  0  0
   -6.2818   -0.5998    2.2614 C   0  0  0  0  0  0  0  0  0  0  0  0
   -6.6084   -1.8465    1.5000 C   0  0  0  0  0  0  0  0  0  0  0  0
   -6.6536    0.6529    1.7896 C   0  0  0  0  0  0  0  0  0  0  0  0
   -6.3385    1.8002    2.4922 C   0  0  0  0  0  0  0  0  0  0  0  0
   -6.3103    3.8411    4.5644 C   0  0  0  0  0  0  0  0  0  0  0  0
   -6.0890    5.2124    4.4551 C   0  0  0  0  0  0  0  0  0  0  0  0
   -7.1223    6.1040    4.6645 C   0  0  0  0  0  0  0  0  0  0  0  0
   -8.4065    5.6635    4.9633 C   0  0  0  0  0  0  0  0  0  0  0  0
   -9.5143    6.6411    5.2025 C   0  0  0  0  0  0  0  0  0  0  0  0
   -8.6344    4.2927    5.0114 C   0  0  0  0  0  0  0  0  0  0  0  0
   -7.6062    3.3918    4.8261 C   0  0  0  0  0  0  0  0  0  0  0  0
   -2.9464    2.5528    3.7966 C   0  0  0  0  0  0  0  0  0  0  0  0
   -2.9697    1.3446    2.5632 S   0  0  0  0  0  0  0  0  0  0  0  0
   -1.2477    1.5083    2.3416 C   0  0  0  0  0  0  0  0  0  0  0  0
   -0.6670    2.4183    3.2089 C   0  0  0  0  0  0  0  0  0  0  0  0
    0.6873    2.6654    3.3323 N   0  0  0  0  0  0  0  0  0  0  0  0
    1.6276    1.6759    3.0084 C   0  0  0  0  0  0  0  0  0  0  0  0
    2.7817    1.9999    2.2977 C   0  0  0  0  0  0  0  0  0  0  0  0
    3.6460    1.0088    1.8827 C   0  0  0  0  0  0  0  0  0  0  0  0
    3.4007   -0.3296    2.1671 C   0  0  0  0  0  0  0  0  0  0  0  0
    4.3321   -1.3905    1.6679 C   0  0  0  0  0  0  0  0  0  0  0  0
    2.2832   -0.6389    2.9313 C   0  0  0  0  0  0  0  0  0  0  0  0
    1.4098    0.3446    3.3549 C   0  0  0  0  0  0  0  0  0  0  0  0
    1.1127    3.9651    3.6417 C   0  0  0  0  0  0  0  0  0  0  0  0
    0.4353    5.0730    3.1383 C   0  0  0  0  0  0  0  0  0  0  0  0
    0.8512    6.3493    3.4641 C   0  0  0  0  0  0  0  0  0  0  0  0
    1.9532    6.5573    4.2834 C   0  0  0  0  0  0  0  0  0  0  0  0
    2.3856    7.9424    4.6547 C   0  0  0  0  0  0  0  0  0  0  0  0
    2.6337    5.4455    4.7682 C   0  0  0  0  0  0  0  0  0  0  0  0
    2.2223    4.1649    4.4594 C   0  0  0  0  0  0  0  0  0  0  0  0
   -1.6588    3.0171    4.0277 C   0  0  0  0  0  0  0  0  0  0  0  0
   -1.6338    4.2297    5.2493 S   0  0  0  0  0  0  0  0  0  0  0  0
   -0.5863    0.6922    1.3497 C   0  0  0  0  0  0  0  0  0  0  0  0
   -0.8246   -0.6636    1.2448 C   0  0  0  0  0  0  0  0  0  0  0  0
   -1.6955   -1.2624    2.0759 F   0  0  0  0  0  0  0  0  0  0  0  0
   -0.1603   -1.4635    0.3117 C   0  0  0  0  0  0  0  0  0  0  0  0
   -0.4322   -2.7815    0.2939 F   0  0  0  0  0  0  0  0  0  0  0  0
    0.7809   -0.9470   -0.5545 C   0  0  0  0  0  0  0  0  0  0  0  0
    1.0723    0.4389   -0.4497 C   0  0  0  0  0  0  0  0  0  0  0  0
    1.9935    0.9773   -1.2587 N   0  0  0  0  0  0  0  0  0  0  0  0
    2.1633    2.2757   -1.2754 C   0  0  0  0  0  0  0  0  0  0  0  0
    3.2338    2.7777   -2.1995 C   0  0  0  0  0  0  0  0  0  0  0  0
    3.1016    2.1414   -3.5828 C   0  0  0  0  0  0  0  0  0  0  0  0
    1.3295    3.1164   -0.4821 C   0  0  0  0  0  0  0  0  0  0  0  0
    0.4745    2.5982    0.3663 N   0  0  0  0  0  0  0  0  0  0  0  0
    0.3462    1.2632    0.4417 C   0  0  0  0  0  0  0  0  0  0  0  0
    1.3389    4.6135   -0.5810 C   0  0  0  0  0  0  0  0  0  0  0  0
    2.5082    5.2456    0.1770 C   0  0  0  0  0  0  0  0  0  0  0  0
    1.3683   -1.7457   -1.6051 C   0  0  0  0  0  0  0  0  0  0  0  0
    0.6846   -2.5390   -2.5127 C   0  0  0  0  0  0  0  0  0  0  0  0
   -0.6894   -2.6517   -2.5940 N   0  0  0  0  0  0  0  0  0  0  0  0
   -1.2661   -3.8663   -2.9914 C   0  0  0  0  0  0  0  0  0  0  0  0
   -0.6999   -5.0800   -2.6097 C   0  0  0  0  0  0  0  0  0  0  0  0
   -1.2673   -6.2688   -3.0222 C   0  0  0  0  0  0  0  0  0  0  0  0
   -2.4124   -6.2836   -3.8093 C   0  0  0  0  0  0  0  0  0  0  0  0
   -3.0057   -7.5805   -4.2675 C   0  0  0  0  0  0  0  0  0  0  0  0
   -2.9797   -5.0675   -4.1707 C   0  0  0  0  0  0  0  0  0  0  0  0
   -2.4173   -3.8710   -3.7738 C   0  0  0  0  0  0  0  0  0  0  0  0
   -1.5076   -1.5707   -2.2258 C   0  0  0  0  0  0  0  0  0  0  0  0
   -1.1663   -0.2703   -2.5946 C   0  0  0  0  0  0  0  0  0  0  0  0
   -1.9171    0.7960   -2.1451 C   0  0  0  0  0  0  0  0  0  0  0  0
   -3.0279    0.6028   -1.3296 C   0  0  0  0  0  0  0  0  0  0  0  0
   -3.8144    1.7749   -0.8294 C   0  0  0  0  0  0  0  0  0  0  0  0
   -3.3882   -0.6983   -1.0057 C   0  0  0  0  0  0  0  0  0  0  0  0
   -2.6433   -1.7757   -1.4470 C   0  0  0  0  0  0  0  0  0  0  0  0
    1.5932   -3.1525   -3.4106 C   0  0  0  0  0  0  0  0  0  0  0  0
    1.4119   -4.2565   -4.7163 S   0  0  0  0  0  0  0  0  0  0  0  0
    3.1521   -4.2192   -5.0268 C   0  0  0  0  0  0  0  0  0  0  0  0
    3.8393   -3.4415   -4.0754 C   0  0  0  0  0  0  0  0  0  0  0  0
    5.1996   -3.3517   -3.9076 N   0  0  0  0  0  0  0  0  0  0  0  0
    6.0991   -4.3867   -4.2073 C   0  0  0  0  0  0  0  0  0  0  0  0
    7.4246   -4.0636   -4.5023 C   0  0  0  0  0  0  0  0  0  0  0  0
    8.3319   -5.0539   -4.8198 C   0  0  0  0  0  0  0  0  0  0  0  0
    7.9485   -6.3888   -4.8742 C   0  0  0  0  0  0  0  0  0  0  0  0
    8.9191   -7.4597   -5.2626 C   0  0  0  0  0  0  0  0  0  0  0  0
    6.6377   -6.7082   -4.5373 C   0  0  0  0  0  0  0  0  0  0  0  0
    5.7264   -5.7291   -4.1961 C   0  0  0  0  0  0  0  0  0  0  0  0
    5.7142   -2.2930   -3.1104 C   0  0  0  0  0  0  0  0  0  0  0  0
    6.4388   -2.5883   -1.9610 C   0  0  0  0  0  0  0  0  0  0  0  0
    6.9522   -1.5679   -1.1850 C   0  0  0  0  0  0  0  0  0  0  0  0
    6.7656   -0.2377   -1.5402 C   0  0  0  0  0  0  0  0  0  0  0  0
    7.3056    0.8724   -0.6927 C   0  0  0  0  0  0  0  0  0  0  0  0
    6.0491    0.0448   -2.6968 C   0  0  0  0  0  0  0  0  0  0  0  0
    5.5206   -0.9656   -3.4755 C   0  0  0  0  0  0  0  0  0  0  0  0
    2.9226   -2.8116   -3.1983 C   0  0  0  0  0  0  0  0  0  0  0  0
    3.0832   -1.6773   -1.8991 S   0  0  0  0  0  0  0  0  0  0  0  0
    3.5873   -4.9912   -6.1150 C   0  0  0  0  0  0  0  0  0  0  0  0
    4.7564   -4.9321   -6.8259 C   0  0  0  0  0  0  0  0  0  0  0  0
    5.2597   -6.1443   -7.5262 C   0  0  0  0  0  0  0  0  0  0  0  0
    4.6719   -7.1875   -7.7029 O   0  0  0  0  0  0  0  0  0  0  0  0
    6.6464   -5.8081   -7.8892 C   0  0  0  0  0  0  0  0  0  0  0  0
    6.8934   -4.4850   -7.5539 C   0  0  0  0  0  0  0  0  0  0  0  0
    8.4740   -3.9383   -7.9686 S   0  0  0  0  0  0  0  0  0  0  0  0
    8.8481   -5.5231   -8.5746 C   0  0  0  0  0  0  0  0  0  0  0  0
    9.9955   -6.1060   -9.1442 C   0  0  0  0  0  0  0  0  0  0  0  0
    9.7762   -7.4112   -9.4548 C   0  0  0  0  0  0  0  0  0  0  0  0
    8.1811   -7.9673   -9.0747 S   0  0  0  0  0  0  0  0  0  0  0  0
    7.7693   -6.4090   -8.4710 C   0  0  0  0  0  0  0  0  0  0  0  0
    5.7351   -3.8819   -6.9520 C   0  0  0  0  0  0  0  0  0  0  0  0
    5.5573   -2.5313   -6.7403 C   0  0  0  0  0  0  0  0  0  0  0  0
    4.3152   -1.9410   -6.4680 C   0  0  0  0  0  0  0  0  0  0  0  0
    3.3134   -1.4080   -6.2832 N   0  0  0  0  0  0  0  0  0  0  0  0
    6.6258   -1.6260   -6.8610 C   0  0  0  0  0  0  0  0  0  0  0  0
    7.4974   -0.8791   -6.9109 N   0  0  0  0  0  0  0  0  0  0  0  0
   -3.3598    5.7888    6.7165 H   0  0  0  0  0  0  0  0  0  0  0  0
  -11.4407    5.0234    9.3076 H   0  0  0  0  0  0  0  0  0  0  0  0
  -11.2759    7.6152    9.6479 H   0  0  0  0  0  0  0  0  0  0  0  0
   -4.7259    0.3836    5.1054 H   0  0  0  0  0  0  0  0  0  0  0  0
   -5.3051   -1.6413    3.8555 H   0  0  0  0  0  0  0  0  0  0  0  0
   -5.7264   -2.4784    1.4122 H   0  0  0  0  0  0  0  0  0  0  0  0
   -6.9786   -1.6135    0.5045 H   0  0  0  0  0  0  0  0  0  0  0  0
   -7.3732   -2.4172    2.0265 H   0  0  0  0  0  0  0  0  0  0  0  0
   -7.1894    0.7364    0.8547 H   0  0  0  0  0  0  0  0  0  0  0  0
   -6.6233    2.7705    2.1116 H   0  0  0  0  0  0  0  0  0  0  0  0
   -5.1082    5.5825    4.1997 H   0  0  0  0  0  0  0  0  0  0  0  0
   -6.9244    7.1635    4.5976 H   0  0  0  0  0  0  0  0  0  0  0  0
  -10.3079    6.1922    5.7958 H   0  0  0  0  0  0  0  0  0  0  0  0
   -9.1422    7.5245    5.7169 H   0  0  0  0  0  0  0  0  0  0  0  0
   -9.9423    6.9622    4.2524 H   0  0  0  0  0  0  0  0  0  0  0  0
   -9.6276    3.9224    5.2195 H   0  0  0  0  0  0  0  0  0  0  0  0
   -7.7984    2.3314    4.9016 H   0  0  0  0  0  0  0  0  0  0  0  0
    2.9828    3.0307    2.0498 H   0  0  0  0  0  0  0  0  0  0  0  0
    4.5216    1.2748    1.3076 H   0  0  0  0  0  0  0  0  0  0  0  0
    3.9213   -2.3811    1.8439 H   0  0  0  0  0  0  0  0  0  0  0  0
    5.2937   -1.3200    2.1764 H   0  0  0  0  0  0  0  0  0  0  0  0
    4.5094   -1.2688    0.5997 H   0  0  0  0  0  0  0  0  0  0  0  0
    2.0866   -1.6674    3.1975 H   0  0  0  0  0  0  0  0  0  0  0  0
    0.5467    0.0820    3.9487 H   0  0  0  0  0  0  0  0  0  0  0  0
   -0.4051    4.9241    2.4771 H   0  0  0  0  0  0  0  0  0  0  0  0
    0.3148    7.1989    3.0668 H   0  0  0  0  0  0  0  0  0  0  0  0
    2.0970    8.6587    3.8889 H   0  0  0  0  0  0  0  0  0  0  0  0
    1.9115    8.2402    5.5905 H   0  0  0  0  0  0  0  0  0  0  0  0
    3.4631    7.9891    4.7954 H   0  0  0  0  0  0  0  0  0  0  0  0
    3.4944    5.5857    5.4060 H   0  0  0  0  0  0  0  0  0  0  0  0
    2.7544    3.3102    4.8501 H   0  0  0  0  0  0  0  0  0  0  0  0
    3.2000    3.8630   -2.2828 H   0  0  0  0  0  0  0  0  0  0  0  0
    4.1996    2.4960   -1.7708 H   0  0  0  0  0  0  0  0  0  0  0  0
    3.9115    2.4683   -4.2303 H   0  0  0  0  0  0  0  0  0  0  0  0
    3.1296    1.0596   -3.4963 H   0  0  0  0  0  0  0  0  0  0  0  0
    2.1578    2.4271   -4.0420 H   0  0  0  0  0  0  0  0  0  0  0  0
    0.4041    4.9790   -0.1546 H   0  0  0  0  0  0  0  0  0  0  0  0
    1.3793    4.9072   -1.6322 H   0  0  0  0  0  0  0  0  0  0  0  0
    3.4590    4.8238   -0.1402 H   0  0  0  0  0  0  0  0  0  0  0  0
    2.5276    6.3178   -0.0031 H   0  0  0  0  0  0  0  0  0  0  0  0
    2.3922    5.0857    1.2459 H   0  0  0  0  0  0  0  0  0  0  0  0
    0.1724   -5.0846   -1.9732 H   0  0  0  0  0  0  0  0  0  0  0  0
   -0.8183   -7.2036   -2.7191 H   0  0  0  0  0  0  0  0  0  0  0  0
   -2.9443   -8.3323   -3.4834 H   0  0  0  0  0  0  0  0  0  0  0  0
   -2.4583   -7.9548   -5.1332 H   0  0  0  0  0  0  0  0  0  0  0  0
   -4.0468   -7.4532   -4.5539 H   0  0  0  0  0  0  0  0  0  0  0  0
   -3.8722   -5.0557   -4.7797 H   0  0  0  0  0  0  0  0  0  0  0  0
   -2.8637   -2.9326   -4.0683 H   0  0  0  0  0  0  0  0  0  0  0  0
   -0.3022   -0.1023   -3.2207 H   0  0  0  0  0  0  0  0  0  0  0  0
   -1.6343    1.8004   -2.4274 H   0  0  0  0  0  0  0  0  0  0  0  0
   -4.5011    1.4730   -0.0423 H   0  0  0  0  0  0  0  0  0  0  0  0
   -3.1453    2.5389   -0.4372 H   0  0  0  0  0  0  0  0  0  0  0  0
   -4.3894    2.2188   -1.6425 H   0  0  0  0  0  0  0  0  0  0  0  0
   -4.2489   -0.8697   -0.3761 H   0  0  0  0  0  0  0  0  0  0  0  0
   -2.9174   -2.7816   -1.1655 H   0  0  0  0  0  0  0  0  0  0  0  0
    7.7357   -3.0289   -4.4995 H   0  0  0  0  0  0  0  0  0  0  0  0
    9.3505   -4.7794   -5.0522 H   0  0  0  0  0  0  0  0  0  0  0  0
    8.4293   -8.2180   -5.8701 H   0  0  0  0  0  0  0  0  0  0  0  0
    9.7554   -7.0437   -5.8199 H   0  0  0  0  0  0  0  0  0  0  0  0
    9.3140   -7.9493   -4.3720 H   0  0  0  0  0  0  0  0  0  0  0  0
    6.3223   -7.7409   -4.5456 H   0  0  0  0  0  0  0  0  0  0  0  0
    4.7226   -6.0088   -3.9165 H   0  0  0  0  0  0  0  0  0  0  0  0
    6.5924   -3.6196   -1.6786 H   0  0  0  0  0  0  0  0  0  0  0  0
    7.5050   -1.8114   -0.2895 H   0  0  0  0  0  0  0  0  0  0  0  0
    6.4979    1.3316   -0.1220 H   0  0  0  0  0  0  0  0  0  0  0  0
    7.7570    1.6451   -1.3119 H   0  0  0  0  0  0  0  0  0  0  0  0
    8.0491    0.5033    0.0089 H   0  0  0  0  0  0  0  0  0  0  0  0
    5.9080    1.0707   -3.0002 H   0  0  0  0  0  0  0  0  0  0  0  0
    4.9602   -0.7263   -4.3651 H   0  0  0  0  0  0  0  0  0  0  0  0
    2.9220   -5.7997   -6.4036 H   0  0  0  0  0  0  0  0  0  0  0  0
   10.9219   -5.5887   -9.3110 H   0  0  0  0  0  0  0  0  0  0  0  0
   10.4680   -8.1011   -9.8959 H   0  0  0  0  0  0  0  0  0  0  0  0
  1  2  2  0  0  0  0
  2  3  1  0  0  0  0
  3  4  2  0  0  0  0
  3  5  1  0  0  0  0
  5  6  2  0  0  0  0
  6  7  1  0  0  0  0
  7  8  1  0  0  0  0
  8  9  1  0  0  0  0
  9 10  2  0  0  0  0
 10 11  1  0  0  0  0
 11 12  1  0  0  0  0
  6 13  1  0  0  0  0
 13 14  2  0  0  0  0
 14 15  1  0  0  0  0
 15 16  3  0  0  0  0
 14 17  1  0  0  0  0
 17 18  3  0  0  0  0
  1 19  1  0  0  0  0
 19 20  2  0  0  0  0
 20 21  1  0  0  0  0
 21 22  1  0  0  0  0
 22 23  2  0  0  0  0
 23 24  1  0  0  0  0
 24 25  2  0  0  0  0
 25 26  1  0  0  0  0
 25 27  1  0  0  0  0
 27 28  2  0  0  0  0
 21 29  1  0  0  0  0
 29 30  2  0  0  0  0
 30 31  1  0  0  0  0
 31 32  2  0  0  0  0
 32 33  1  0  0  0  0
 32 34  1  0  0  0  0
 34 35  2  0  0  0  0
 20 36  1  0  0  0  0
 36 37  1  0  0  0  0
 37 38  1  0  0  0  0
 38 39  2  0  0  0  0
 39 40  1  0  0  0  0
 40 41  1  0  0  0  0
 41 42  2  0  0  0  0
 42 43  1  0  0  0  0
 43 44  2  0  0  0  0
 44 45  1  0  0  0  0
 44 46  1  0  0  0  0
 46 47  2  0  0  0  0
 40 48  1  0  0  0  0
 48 49  2  0  0  0  0
 49 50  1  0  0  0  0
 50 51  2  0  0  0  0
 51 52  1  0  0  0  0
 51 53  1  0  0  0  0
 53 54  2  0  0  0  0
 39 55  1  0  0  0  0
 55 56  1  0  0  0  0
 38 57  1  0  0  0  0
 57 58  2  0  0  0  0
 58 59  1  0  0  0  0
 58 60  1  0  0  0  0
 60 61  1  0  0  0  0
 60 62  2  0  0  0  0
 62 63  1  0  0  0  0
 63 64  2  0  0  0  0
 64 65  1  0  0  0  0
 65 66  1  0  0  0  0
 66 67  1  0  0  0  0
 65 68  2  0  0  0  0
 68 69  1  0  0  0  0
 69 70  2  0  0  0  0
 68 71  1  0  0  0  0
 71 72  1  0  0  0  0
 62 73  1  0  0  0  0
 73 74  2  0  0  0  0
 74 75  1  0  0  0  0
 75 76  1  0  0  0  0
 76 77  2  0  0  0  0
 77 78  1  0  0  0  0
 78 79  2  0  0  0  0
 79 80  1  0  0  0  0
 79 81  1  0  0  0  0
 81 82  2  0  0  0  0
 75 83  1  0  0  0  0
 83 84  2  0  0  0  0
 84 85  1  0  0  0  0
 85 86  2  0  0  0  0
 86 87  1  0  0  0  0
 86 88  1  0  0  0  0
 88 89  2  0  0  0  0
 74 90  1  0  0  0  0
 90 91  1  0  0  0  0
 91 92  1  0  0  0  0
 92 93  2  0  0  0  0
 93 94  1  0  0  0  0
 94 95  1  0  0  0  0
 95 96  2  0  0  0  0
 96 97  1  0  0  0  0
 97 98  2  0  0  0  0
 98 99  1  0  0  0  0
 98100  1  0  0  0  0
100101  2  0  0  0  0
 94102  1  0  0  0  0
102103  2  0  0  0  0
103104  1  0  0  0  0
104105  2  0  0  0  0
105106  1  0  0  0  0
105107  1  0  0  0  0
107108  2  0  0  0  0
 93109  1  0  0  0  0
109110  1  0  0  0  0
 92111  1  0  0  0  0
111112  2  0  0  0  0
112113  1  0  0  0  0
113114  2  0  0  0  0
113115  1  0  0  0  0
115116  2  0  0  0  0
116117  1  0  0  0  0
117118  1  0  0  0  0
118119  1  0  0  0  0
119120  2  0  0  0  0
120121  1  0  0  0  0
121122  1  0  0  0  0
116123  1  0  0  0  0
123124  2  0  0  0  0
124125  1  0  0  0  0
125126  3  0  0  0  0
124127  1  0  0  0  0
127128  3  0  0  0  0
 13  2  1  0  0  0  0
 56 19  1  0  0  0  0
 70 57  1  0  0  0  0
110 73  1  0  0  0  0
123112  1  0  0  0  0
 12  5  1  0  0  0  0
 28 22  1  0  0  0  0
 35 29  1  0  0  0  0
 55 36  2  0  0  0  0
 70 63  1  0  0  0  0
 82 76  1  0  0  0  0
 89 83  1  0  0  0  0
109 90  2  0  0  0  0
122115  1  0  0  0  0
 12  8  2  0  0  0  0
 47 41  1  0  0  0  0
 54 48  1  0  0  0  0
101 95  1  0  0  0  0
108102  1  0  0  0  0
122118  2  0  0  0  0
  1129  1  0  0  0  0
  9130  1  0  0  0  0
 10131  1  0  0  0  0
 23132  1  0  0  0  0
 24133  1  0  0  0  0
 26134  1  0  0  0  0
 26135  1  0  0  0  0
 26136  1  0  0  0  0
 27137  1  0  0  0  0
 28138  1  0  0  0  0
 30139  1  0  0  0  0
 31140  1  0  0  0  0
 33141  1  0  0  0  0
 33142  1  0  0  0  0
 33143  1  0  0  0  0
 34144  1  0  0  0  0
 35145  1  0  0  0  0
 42146  1  0  0  0  0
 43147  1  0  0  0  0
 45148  1  0  0  0  0
 45149  1  0  0  0  0
 45150  1  0  0  0  0
 46151  1  0  0  0  0
 47152  1  0  0  0  0
 49153  1  0  0  0  0
 50154  1  0  0  0  0
 52155  1  0  0  0  0
 52156  1  0  0  0  0
 52157  1  0  0  0  0
 53158  1  0  0  0  0
 54159  1  0  0  0  0
 66160  1  0  0  0  0
 66161  1  0  0  0  0
 67162  1  0  0  0  0
 67163  1  0  0  0  0
 67164  1  0  0  0  0
 71165  1  0  0  0  0
 71166  1  0  0  0  0
 72167  1  0  0  0  0
 72168  1  0  0  0  0
 72169  1  0  0  0  0
 77170  1  0  0  0  0
 78171  1  0  0  0  0
 80172  1  0  0  0  0
 80173  1  0  0  0  0
 80174  1  0  0  0  0
 81175  1  0  0  0  0
 82176  1  0  0  0  0
 84177  1  0  0  0  0
 85178  1  0  0  0  0
 87179  1  0  0  0  0
 87180  1  0  0  0  0
 87181  1  0  0  0  0
 88182  1  0  0  0  0
 89183  1  0  0  0  0
 96184  1  0  0  0  0
 97185  1  0  0  0  0
 99186  1  0  0  0  0
 99187  1  0  0  0  0
 99188  1  0  0  0  0
100189  1  0  0  0  0
101190  1  0  0  0  0
103191  1  0  0  0  0
104192  1  0  0  0  0
106193  1  0  0  0  0
106194  1  0  0  0  0
106195  1  0  0  0  0
107196  1  0  0  0  0
108197  1  0  0  0  0
111198  1  0  0  0  0
119199  1  0  0  0  0
120200  1  0  0  0  0
M  END
