
  xtb     02052208223D
 energy: -312.772900497067 gnorm: 0.000808763074 xtb: 6.4.1 (unknown)
176191  0     0  0            999 V2000
    7.3829    0.2036    0.7453 C   0  0  0  0  0  0  0  0  0  0  0  0
    8.0794    0.8333   -0.2394 C   0  0  0  0  0  0  0  0  0  0  0  0
    7.4667    1.3686   -1.4874 C   0  0  0  0  0  0  0  0  0  0  0  0
    6.2975    1.3357   -1.8098 O   0  0  0  0  0  0  0  0  0  0  0  0
    8.5945    1.8002   -2.3286 C   0  0  0  0  0  0  0  0  0  0  0  0
    8.5573    2.3688   -3.5692 C   0  0  0  0  0  0  0  0  0  0  0  0
    9.7701    2.7052   -4.2093 C   0  0  0  0  0  0  0  0  0  0  0  0
    9.7899    3.3045   -5.4853 C   0  0  0  0  0  0  0  0  0  0  0  0
   10.9712    3.6229   -6.0953 C   0  0  0  0  0  0  0  0  0  0  0  0
   12.1737    3.3445   -5.4310 C   0  0  0  0  0  0  0  0  0  0  0  0
   13.3256    3.6647   -6.0472 F   0  0  0  0  0  0  0  0  0  0  0  0
   12.2110    2.7650   -4.1932 C   0  0  0  0  0  0  0  0  0  0  0  0
   11.0036    2.4310   -3.5493 C   0  0  0  0  0  0  0  0  0  0  0  0
   11.0102    1.8337   -2.2673 C   0  0  0  0  0  0  0  0  0  0  0  0
    9.8211    1.5253   -1.6609 C   0  0  0  0  0  0  0  0  0  0  0  0
    9.5224    0.9257   -0.3646 C   0  0  0  0  0  0  0  0  0  0  0  0
   10.4434    0.5810    0.5892 C   0  0  0  0  0  0  0  0  0  0  0  0
   11.8376    0.7228    0.4277 C   0  0  0  0  0  0  0  0  0  0  0  0
   12.9803    0.8042    0.3520 N   0  0  0  0  0  0  0  0  0  0  0  0
   10.1367    0.0548    1.8621 C   0  0  0  0  0  0  0  0  0  0  0  0
    9.9732   -0.3655    2.9181 N   0  0  0  0  0  0  0  0  0  0  0  0
    5.9621    0.2758    0.9197 C   0  0  0  0  0  0  0  0  0  0  0  0
    5.2224    1.4320    0.7141 C   0  0  0  0  0  0  0  0  0  0  0  0
    5.8354    2.5932    0.4483 F   0  0  0  0  0  0  0  0  0  0  0  0
    3.8346    1.4534    0.8304 C   0  0  0  0  0  0  0  0  0  0  0  0
    3.2261    2.6241    0.5591 F   0  0  0  0  0  0  0  0  0  0  0  0
    3.0869    0.3229    1.1448 C   0  0  0  0  0  0  0  0  0  0  0  0
    3.8347   -0.8337    1.5267 C   0  0  0  0  0  0  0  0  0  0  0  0
    3.1979   -1.8846    2.0682 N   0  0  0  0  0  0  0  0  0  0  0  0
    3.8882   -2.9347    2.4434 C   0  0  0  0  0  0  0  0  0  0  0  0
    3.1162   -4.0201    3.1304 C   0  0  0  0  0  0  0  0  0  0  0  0
    3.1050   -3.7804    4.6426 C   0  0  0  0  0  0  0  0  0  0  0  0
    5.2948   -2.9897    2.2399 C   0  0  0  0  0  0  0  0  0  0  0  0
    5.9314   -1.9627    1.7317 N   0  0  0  0  0  0  0  0  0  0  0  0
    5.2452   -0.8575    1.4027 C   0  0  0  0  0  0  0  0  0  0  0  0
    6.1364   -4.1863    2.5602 C   0  0  0  0  0  0  0  0  0  0  0  0
    6.1288   -5.1772    1.3937 C   0  0  0  0  0  0  0  0  0  0  0  0
    1.6518    0.3282    1.0899 C   0  0  0  0  0  0  0  0  0  0  0  0
    0.7760   -0.6742    0.6754 C   0  0  0  0  0  0  0  0  0  0  0  0
    1.0715   -1.9387    0.2022 N   0  0  0  0  0  0  0  0  0  0  0  0
    0.1894   -2.9670    0.5848 C   0  0  0  0  0  0  0  0  0  0  0  0
   -0.2716   -3.9004   -0.3421 C   0  0  0  0  0  0  0  0  0  0  0  0
   -1.0885   -4.9324    0.0644 C   0  0  0  0  0  0  0  0  0  0  0  0
   -1.4625   -5.0517    1.4013 C   0  0  0  0  0  0  0  0  0  0  0  0
   -2.4802   -6.4312    1.8358 S   0  0  0  0  0  0  0  0  0  0  0  0
   -2.1192   -6.6583    3.6039 C   0  0  0  0  0  0  0  0  0  0  0  0
   -1.0409   -4.0993    2.3196 C   0  0  0  0  0  0  0  0  0  0  0  0
   -0.2189   -3.0671    1.9126 C   0  0  0  0  0  0  0  0  0  0  0  0
    2.2228   -2.2516   -0.5187 C   0  0  0  0  0  0  0  0  0  0  0  0
    2.8869   -1.2932   -1.2833 C   0  0  0  0  0  0  0  0  0  0  0  0
    4.0828   -1.5840   -1.9101 C   0  0  0  0  0  0  0  0  0  0  0  0
    4.6189   -2.8620   -1.8215 C   0  0  0  0  0  0  0  0  0  0  0  0
    6.1514   -3.3491   -2.5496 S   0  0  0  0  0  0  0  0  0  0  0  0
    7.0116   -1.7693   -2.7694 C   0  0  0  0  0  0  0  0  0  0  0  0
    3.9165   -3.8483   -1.1347 C   0  0  0  0  0  0  0  0  0  0  0  0
    2.7455   -3.5472   -0.4803 C   0  0  0  0  0  0  0  0  0  0  0  0
   -0.5656   -0.2130    0.7008 C   0  0  0  0  0  0  0  0  0  0  0  0
   -2.0905   -0.9303    0.2817 S   0  0  0  0  0  0  0  0  0  0  0  0
   -2.8817    0.6122    0.5131 C   0  0  0  0  0  0  0  0  0  0  0  0
   -2.0409    1.5814    1.0598 C   0  0  0  0  0  0  0  0  0  0  0  0
   -2.4637    2.7771    1.5935 N   0  0  0  0  0  0  0  0  0  0  0  0
   -1.6057    3.8827    1.5707 C   0  0  0  0  0  0  0  0  0  0  0  0
   -0.7848    4.1025    0.4673 C   0  0  0  0  0  0  0  0  0  0  0  0
    0.1356    5.1301    0.4705 C   0  0  0  0  0  0  0  0  0  0  0  0
    0.2427    5.9600    1.5787 C   0  0  0  0  0  0  0  0  0  0  0  0
    1.4313    7.2564    1.7011 S   0  0  0  0  0  0  0  0  0  0  0  0
    2.6875    6.7703    0.4820 C   0  0  0  0  0  0  0  0  0  0  0  0
   -0.6256    5.7853    2.6555 C   0  0  0  0  0  0  0  0  0  0  0  0
   -1.5403    4.7563    2.6558 C   0  0  0  0  0  0  0  0  0  0  0  0
   -3.7499    2.8629    2.1522 C   0  0  0  0  0  0  0  0  0  0  0  0
   -4.5564    3.9721    1.9187 C   0  0  0  0  0  0  0  0  0  0  0  0
   -5.8792    3.9743    2.3196 C   0  0  0  0  0  0  0  0  0  0  0  0
   -6.4165    2.8634    2.9571 C   0  0  0  0  0  0  0  0  0  0  0  0
   -8.1171    2.6913    3.3810 S   0  0  0  0  0  0  0  0  0  0  0  0
   -8.9255    3.9933    2.4129 C   0  0  0  0  0  0  0  0  0  0  0  0
   -5.5813    1.7934    3.2817 C   0  0  0  0  0  0  0  0  0  0  0  0
   -4.2634    1.7954    2.8923 C   0  0  0  0  0  0  0  0  0  0  0  0
   -0.7089    1.1018    1.1148 C   0  0  0  0  0  0  0  0  0  0  0  0
    0.8087    1.8199    1.4935 S   0  0  0  0  0  0  0  0  0  0  0  0
   -4.2571    0.7695    0.1500 C   0  0  0  0  0  0  0  0  0  0  0  0
   -4.7692    1.9550   -0.3627 C   0  0  0  0  0  0  0  0  0  0  0  0
   -3.9356    2.9643   -0.6755 F   0  0  0  0  0  0  0  0  0  0  0  0
   -6.1294    2.1282   -0.6122 C   0  0  0  0  0  0  0  0  0  0  0  0
   -6.5449    3.3469   -0.9886 F   0  0  0  0  0  0  0  0  0  0  0  0
   -7.0569    1.1218   -0.3887 C   0  0  0  0  0  0  0  0  0  0  0  0
   -6.5608   -0.1206    0.0965 C   0  0  0  0  0  0  0  0  0  0  0  0
   -7.4112   -1.1393    0.2998 N   0  0  0  0  0  0  0  0  0  0  0  0
   -6.9415   -2.2981    0.6965 C   0  0  0  0  0  0  0  0  0  0  0  0
   -7.9511   -3.3932    0.8575 C   0  0  0  0  0  0  0  0  0  0  0  0
   -8.1132   -4.1533   -0.4619 C   0  0  0  0  0  0  0  0  0  0  0  0
   -5.5452   -2.4900    0.8947 C   0  0  0  0  0  0  0  0  0  0  0  0
   -4.7085   -1.4970    0.7126 N   0  0  0  0  0  0  0  0  0  0  0  0
   -5.1752   -0.3053    0.3179 C   0  0  0  0  0  0  0  0  0  0  0  0
   -4.9453   -3.7787    1.3610 C   0  0  0  0  0  0  0  0  0  0  0  0
   -4.9273   -3.8228    2.8907 C   0  0  0  0  0  0  0  0  0  0  0  0
   -8.4633    1.2829   -0.6507 C   0  0  0  0  0  0  0  0  0  0  0  0
   -8.9588    1.8471   -1.7816 C   0  0  0  0  0  0  0  0  0  0  0  0
   -8.1539    2.0463   -3.0230 C   0  0  0  0  0  0  0  0  0  0  0  0
   -6.9666    1.8664   -3.1747 O   0  0  0  0  0  0  0  0  0  0  0  0
   -9.1313    2.3892   -4.0712 C   0  0  0  0  0  0  0  0  0  0  0  0
   -8.9010    2.6387   -5.3933 C   0  0  0  0  0  0  0  0  0  0  0  0
   -9.9919    2.9426   -6.2371 C   0  0  0  0  0  0  0  0  0  0  0  0
   -9.8104    3.2146   -7.6085 C   0  0  0  0  0  0  0  0  0  0  0  0
  -10.8751    3.5023   -8.4163 C   0  0  0  0  0  0  0  0  0  0  0  0
  -12.1614    3.5254   -7.8599 C   0  0  0  0  0  0  0  0  0  0  0  0
  -13.1966    3.8105   -8.6706 F   0  0  0  0  0  0  0  0  0  0  0  0
  -12.3931    3.2700   -6.5370 C   0  0  0  0  0  0  0  0  0  0  0  0
  -11.3079    2.9717   -5.6898 C   0  0  0  0  0  0  0  0  0  0  0  0
  -11.5158    2.7046   -4.3168 C   0  0  0  0  0  0  0  0  0  0  0  0
  -10.4412    2.4209   -3.5155 C   0  0  0  0  0  0  0  0  0  0  0  0
  -10.3498    2.1223   -2.0913 C   0  0  0  0  0  0  0  0  0  0  0  0
  -11.3822    2.1757   -1.1928 C   0  0  0  0  0  0  0  0  0  0  0  0
  -12.7181    2.4670   -1.5394 C   0  0  0  0  0  0  0  0  0  0  0  0
  -13.8220    2.6898   -1.7623 N   0  0  0  0  0  0  0  0  0  0  0  0
  -11.2478    1.9906    0.1984 C   0  0  0  0  0  0  0  0  0  0  0  0
  -11.2173    1.8910    1.3420 N   0  0  0  0  0  0  0  0  0  0  0  0
    7.8910   -0.4510    1.4407 H   0  0  0  0  0  0  0  0  0  0  0  0
    7.6123    2.5672   -4.0525 H   0  0  0  0  0  0  0  0  0  0  0  0
    8.8506    3.5096   -5.9764 H   0  0  0  0  0  0  0  0  0  0  0  0
   11.0042    4.0814   -7.0708 H   0  0  0  0  0  0  0  0  0  0  0  0
   13.1556    2.5667   -3.7113 H   0  0  0  0  0  0  0  0  0  0  0  0
   11.9602    1.6340   -1.7983 H   0  0  0  0  0  0  0  0  0  0  0  0
    2.0904   -3.9959    2.7593 H   0  0  0  0  0  0  0  0  0  0  0  0
    3.5490   -4.9959    2.9123 H   0  0  0  0  0  0  0  0  0  0  0  0
    2.6453   -2.8201    4.8630 H   0  0  0  0  0  0  0  0  0  0  0  0
    2.5378   -4.5620    5.1422 H   0  0  0  0  0  0  0  0  0  0  0  0
    4.1160   -3.7756    5.0440 H   0  0  0  0  0  0  0  0  0  0  0  0
    5.7805   -4.6762    3.4666 H   0  0  0  0  0  0  0  0  0  0  0  0
    7.1575   -3.8398    2.7237 H   0  0  0  0  0  0  0  0  0  0  0  0
    5.1243   -5.5505    1.2066 H   0  0  0  0  0  0  0  0  0  0  0  0
    6.4899   -4.6931    0.4899 H   0  0  0  0  0  0  0  0  0  0  0  0
    6.7764   -6.0205    1.6192 H   0  0  0  0  0  0  0  0  0  0  0  0
    0.0259   -3.8164   -1.3762 H   0  0  0  0  0  0  0  0  0  0  0  0
   -1.4421   -5.6623   -0.6473 H   0  0  0  0  0  0  0  0  0  0  0  0
   -2.5263   -7.6300    3.8655 H   0  0  0  0  0  0  0  0  0  0  0  0
   -2.6009   -5.8882    4.1996 H   0  0  0  0  0  0  0  0  0  0  0  0
   -1.0442   -6.6527    3.7547 H   0  0  0  0  0  0  0  0  0  0  0  0
   -1.3389   -4.1579    3.3541 H   0  0  0  0  0  0  0  0  0  0  0  0
    0.1274   -2.3358    2.6274 H   0  0  0  0  0  0  0  0  0  0  0  0
    2.4704   -0.3033   -1.3863 H   0  0  0  0  0  0  0  0  0  0  0  0
    4.5843   -0.8028   -2.4583 H   0  0  0  0  0  0  0  0  0  0  0  0
    6.5787   -1.2071   -3.5919 H   0  0  0  0  0  0  0  0  0  0  0  0
    6.9496   -1.2115   -1.8408 H   0  0  0  0  0  0  0  0  0  0  0  0
    8.0450   -2.0152   -2.9946 H   0  0  0  0  0  0  0  0  0  0  0  0
    4.3166   -4.8497   -1.1042 H   0  0  0  0  0  0  0  0  0  0  0  0
    2.2433   -4.3139    0.0887 H   0  0  0  0  0  0  0  0  0  0  0  0
   -0.8807    3.4689   -0.4013 H   0  0  0  0  0  0  0  0  0  0  0  0
    0.7617    5.2736   -0.3945 H   0  0  0  0  0  0  0  0  0  0  0  0
    3.5615    7.3761    0.7003 H   0  0  0  0  0  0  0  0  0  0  0  0
    2.9224    5.7173    0.6057 H   0  0  0  0  0  0  0  0  0  0  0  0
    2.3391    6.9815   -0.5250 H   0  0  0  0  0  0  0  0  0  0  0  0
   -0.5547    6.4530    3.5002 H   0  0  0  0  0  0  0  0  0  0  0  0
   -2.1921    4.6060    3.5035 H   0  0  0  0  0  0  0  0  0  0  0  0
   -4.1554    4.8176    1.3803 H   0  0  0  0  0  0  0  0  0  0  0  0
   -6.4866    4.8379    2.1033 H   0  0  0  0  0  0  0  0  0  0  0  0
   -9.9854    3.7594    2.4469 H   0  0  0  0  0  0  0  0  0  0  0  0
   -8.5728    3.9540    1.3862 H   0  0  0  0  0  0  0  0  0  0  0  0
   -8.7413    4.9671    2.8578 H   0  0  0  0  0  0  0  0  0  0  0  0
   -5.9901    0.9576    3.8281 H   0  0  0  0  0  0  0  0  0  0  0  0
   -3.6298    0.9536    3.1290 H   0  0  0  0  0  0  0  0  0  0  0  0
   -8.9052   -2.9364    1.1225 H   0  0  0  0  0  0  0  0  0  0  0  0
   -7.6549   -4.0812    1.6485 H   0  0  0  0  0  0  0  0  0  0  0  0
   -8.8585   -4.9368   -0.3520 H   0  0  0  0  0  0  0  0  0  0  0  0
   -7.1734   -4.6078   -0.7686 H   0  0  0  0  0  0  0  0  0  0  0  0
   -8.4362   -3.4717   -1.2449 H   0  0  0  0  0  0  0  0  0  0  0  0
   -5.5013   -4.6310    0.9730 H   0  0  0  0  0  0  0  0  0  0  0  0
   -3.9205   -3.8272    0.9910 H   0  0  0  0  0  0  0  0  0  0  0  0
   -4.2850   -3.0349    3.2765 H   0  0  0  0  0  0  0  0  0  0  0  0
   -5.9262   -3.6831    3.2987 H   0  0  0  0  0  0  0  0  0  0  0  0
   -4.5511   -4.7855    3.2245 H   0  0  0  0  0  0  0  0  0  0  0  0
   -9.1262    0.8481    0.0862 H   0  0  0  0  0  0  0  0  0  0  0  0
   -7.8967    2.6080   -5.7887 H   0  0  0  0  0  0  0  0  0  0  0  0
   -8.8099    3.1909   -8.0135 H   0  0  0  0  0  0  0  0  0  0  0  0
  -10.7540    3.7115   -9.4673 H   0  0  0  0  0  0  0  0  0  0  0  0
  -13.3970    3.2981   -6.1429 H   0  0  0  0  0  0  0  0  0  0  0  0
  -12.5239    2.7265   -3.9349 H   0  0  0  0  0  0  0  0  0  0  0  0
  1  2  2  0  0  0  0
  2  3  1  0  0  0  0
  3  4  2  0  0  0  0
  3  5  1  0  0  0  0
  5  6  2  0  0  0  0
  6  7  1  0  0  0  0
  7  8  2  0  0  0  0
  8  9  1  0  0  0  0
  9 10  2  0  0  0  0
 10 11  1  0  0  0  0
 10 12  1  0  0  0  0
 12 13  2  0  0  0  0
 13 14  1  0  0  0  0
 14 15  2  0  0  0  0
 15 16  1  0  0  0  0
 16 17  2  0  0  0  0
 17 18  1  0  0  0  0
 18 19  3  0  0  0  0
 17 20  1  0  0  0  0
 20 21  3  0  0  0  0
  1 22  1  0  0  0  0
 22 23  2  0  0  0  0
 23 24  1  0  0  0  0
 23 25  1  0  0  0  0
 25 26  1  0  0  0  0
 25 27  2  0  0  0  0
 27 28  1  0  0  0  0
 28 29  2  0  0  0  0
 29 30  1  0  0  0  0
 30 31  1  0  0  0  0
 31 32  1  0  0  0  0
 30 33  2  0  0  0  0
 33 34  1  0  0  0  0
 34 35  2  0  0  0  0
 33 36  1  0  0  0  0
 36 37  1  0  0  0  0
 27 38  1  0  0  0  0
 38 39  2  0  0  0  0
 39 40  1  0  0  0  0
 40 41  1  0  0  0  0
 41 42  2  0  0  0  0
 42 43  1  0  0  0  0
 43 44  2  0  0  0  0
 44 45  1  0  0  0  0
 45 46  1  0  0  0  0
 44 47  1  0  0  0  0
 47 48  2  0  0  0  0
 40 49  1  0  0  0  0
 49 50  2  0  0  0  0
 50 51  1  0  0  0  0
 51 52  2  0  0  0  0
 52 53  1  0  0  0  0
 53 54  1  0  0  0  0
 52 55  1  0  0  0  0
 55 56  2  0  0  0  0
 39 57  1  0  0  0  0
 57 58  1  0  0  0  0
 58 59  1  0  0  0  0
 59 60  2  0  0  0  0
 60 61  1  0  0  0  0
 61 62  1  0  0  0  0
 62 63  2  0  0  0  0
 63 64  1  0  0  0  0
 64 65  2  0  0  0  0
 65 66  1  0  0  0  0
 66 67  1  0  0  0  0
 65 68  1  0  0  0  0
 68 69  2  0  0  0  0
 61 70  1  0  0  0  0
 70 71  2  0  0  0  0
 71 72  1  0  0  0  0
 72 73  2  0  0  0  0
 73 74  1  0  0  0  0
 74 75  1  0  0  0  0
 73 76  1  0  0  0  0
 76 77  2  0  0  0  0
 60 78  1  0  0  0  0
 78 79  1  0  0  0  0
 59 80  1  0  0  0  0
 80 81  2  0  0  0  0
 81 82  1  0  0  0  0
 81 83  1  0  0  0  0
 83 84  1  0  0  0  0
 83 85  2  0  0  0  0
 85 86  1  0  0  0  0
 86 87  2  0  0  0  0
 87 88  1  0  0  0  0
 88 89  1  0  0  0  0
 89 90  1  0  0  0  0
 88 91  2  0  0  0  0
 91 92  1  0  0  0  0
 92 93  2  0  0  0  0
 91 94  1  0  0  0  0
 94 95  1  0  0  0  0
 85 96  1  0  0  0  0
 96 97  2  0  0  0  0
 97 98  1  0  0  0  0
 98 99  2  0  0  0  0
 98100  1  0  0  0  0
100101  2  0  0  0  0
101102  1  0  0  0  0
102103  2  0  0  0  0
103104  1  0  0  0  0
104105  2  0  0  0  0
105106  1  0  0  0  0
105107  1  0  0  0  0
107108  2  0  0  0  0
108109  1  0  0  0  0
109110  2  0  0  0  0
110111  1  0  0  0  0
111112  2  0  0  0  0
112113  1  0  0  0  0
113114  3  0  0  0  0
112115  1  0  0  0  0
115116  3  0  0  0  0
 16  2  1  0  0  0  0
 35 22  1  0  0  0  0
 79 38  1  0  0  0  0
 93 80  1  0  0  0  0
111 97  1  0  0  0  0
 15  5  1  0  0  0  0
 35 28  1  0  0  0  0
 48 41  1  0  0  0  0
 56 49  1  0  0  0  0
 78 57  2  0  0  0  0
 93 86  1  0  0  0  0
110100  1  0  0  0  0
 13  7  1  0  0  0  0
 69 62  1  0  0  0  0
 77 70  1  0  0  0  0
108102  1  0  0  0  0
  1117  1  0  0  0  0
  6118  1  0  0  0  0
  8119  1  0  0  0  0
  9120  1  0  0  0  0
 12121  1  0  0  0  0
 14122  1  0  0  0  0
 31123  1  0  0  0  0
 31124  1  0  0  0  0
 32125  1  0  0  0  0
 32126  1  0  0  0  0
 32127  1  0  0  0  0
 36128  1  0  0  0  0
 36129  1  0  0  0  0
 37130  1  0  0  0  0
 37131  1  0  0  0  0
 37132  1  0  0  0  0
 42133  1  0  0  0  0
 43134  1  0  0  0  0
 46135  1  0  0  0  0
 46136  1  0  0  0  0
 46137  1  0  0  0  0
 47138  1  0  0  0  0
 48139  1  0  0  0  0
 50140  1  0  0  0  0
 51141  1  0  0  0  0
 54142  1  0  0  0  0
 54143  1  0  0  0  0
 54144  1  0  0  0  0
 55145  1  0  0  0  0
 56146  1  0  0  0  0
 63147  1  0  0  0  0
 64148  1  0  0  0  0
 67149  1  0  0  0  0
 67150  1  0  0  0  0
 67151  1  0  0  0  0
 68152  1  0  0  0  0
 69153  1  0  0  0  0
 71154  1  0  0  0  0
 72155  1  0  0  0  0
 75156  1  0  0  0  0
 75157  1  0  0  0  0
 75158  1  0  0  0  0
 76159  1  0  0  0  0
 77160  1  0  0  0  0
 89161  1  0  0  0  0
 89162  1  0  0  0  0
 90163  1  0  0  0  0
 90164  1  0  0  0  0
 90165  1  0  0  0  0
 94166  1  0  0  0  0
 94167  1  0  0  0  0
 95168  1  0  0  0  0
 95169  1  0  0  0  0
 95170  1  0  0  0  0
 96171  1  0  0  0  0
101172  1  0  0  0  0
103173  1  0  0  0  0
104174  1  0  0  0  0
107175  1  0  0  0  0
109176  1  0  0  0  0
M  END
