139

C          3.06330       -0.23840        6.68420
C          2.50740        0.21070        7.85570
C          3.39650        0.59030        8.98170
O          4.58170        0.36540        9.08930
C          2.53480        1.34500        9.91830
C          2.87630        2.00660       11.06050
C          1.87390        2.68990       11.78780
C          2.17290        3.39050       12.97330
C          1.19770        4.05280       13.66690
C         -0.11520        4.02590       13.17990
F         -1.06370        4.68420       13.87480
C         -0.45960        3.36130       12.03590
C          0.53160        2.67300       11.31020
C          0.20530        1.96920       10.12640
C          1.19220        1.31350        9.44340
C          1.15460        0.49980        8.23190
C          0.02050       -0.05950        7.68540
C          0.05470       -1.08650        6.73110
N          0.02710       -1.96130        5.98410
C         -1.29100        0.27060        8.06770
N         -2.38630        0.52570        8.30530
C          2.53860       -0.25560        5.37800
C          1.44420        0.50540        4.90200
C          0.98260        0.41440        3.53790
N         -0.03340        1.23780        3.29960
S         -0.36800        2.07320        4.63540
N          0.74970        1.41350        5.58850
C          1.54280       -0.45610        2.56710
C          2.72290       -1.10550        3.00370
N          3.55630       -1.81600        2.24410
S          4.79790       -2.31060        3.14090
N          4.34520       -1.65410        4.53690
C          3.20490       -0.99340        4.36400
C          0.97090       -0.52460        1.28220
C          1.18540       -1.42700        0.21360
N          1.74200       -2.67370        0.29150
C          2.37070       -3.18870       -0.85630
C          2.09190       -4.47680       -1.30160
C          2.69600       -4.97040       -2.44040
C          3.59250       -4.18040       -3.15090
S          4.41620       -4.69160       -4.61850
C          3.80510       -6.37650       -4.90740
C          3.88340       -2.89320       -2.69640
C          3.27990       -2.40080       -1.56290
C          1.65900       -3.45980        1.44140
C          0.59480       -3.32370        2.33310
C          0.55830       -4.03900        3.51000
C          1.58380       -4.92930        3.81540
S          1.67660       -5.84730        5.30580
C          0.30070       -5.21060        6.30080
C          2.61220       -5.12660        2.89030
C          2.64960       -4.40730        1.71990
C          0.61050       -0.92790       -0.97900
S          0.51830       -1.51180       -2.61390
C         -0.45030       -0.12380       -3.06950
C         -0.80250        0.66930       -1.96720
N         -1.78810        1.62280       -1.95080
C         -1.75830        2.59770       -0.94120
C         -2.89190        2.85570       -0.17750
C         -2.82390        3.71110        0.90380
C         -1.62030        4.32440        1.23030
S         -1.39500        5.35170        2.64380
C         -2.87910        5.03780        3.64220
C         -0.50640        4.13300        0.41410
C         -0.57200        3.27690       -0.66140
C         -2.85290        1.57430       -2.86010
C         -3.35310        2.74730       -3.42520
C         -4.26400        2.68410       -4.45630
C         -4.70980        1.45220       -4.93630
S         -5.74510        1.47040       -6.35730
C         -5.88520       -0.28110       -6.80530
C         -4.31040        0.28930       -4.28530
C         -3.39540        0.35350       -3.25600
C         -0.13390        0.22890       -0.80490
S         -0.13540        0.76920        0.84140
C         -0.81550        0.08290       -4.42570
C         -0.93420        1.36790       -4.99730
C         -1.44380        1.58740       -6.33410
N         -1.51230        2.88790       -6.62060
S         -0.91350        3.72950       -5.39940
N         -0.59050        2.51450       -4.40410
C         -1.85610        0.52860       -7.16950
C         -1.72860       -0.75600       -6.59820
N         -2.07500       -1.90480       -7.18200
S         -1.72140       -3.12550       -6.19710
N         -1.11800       -2.27550       -4.97500
C         -1.15870       -0.97950       -5.28620
C         -2.41330        0.69690       -8.46630
C         -2.08200        1.67050       -9.36090
C         -0.83330        2.48460       -9.33000
O          0.10280        2.38540       -8.56970
C         -0.90630        3.33260      -10.53630
C         -0.12980        4.32560      -11.15070
C         -0.70550        4.73120      -12.32450
Cl        -0.10740        5.92310      -13.38370
S         -2.19580        3.90320      -12.70330
C         -2.04230        2.99600      -11.25390
C         -2.79770        1.96960      -10.59100
C         -3.97980        1.44780      -11.05450
C         -4.76490        0.47810      -10.40840
N         -5.46680       -0.30380       -9.94360
C         -4.52310        1.87830      -12.28310
N         -4.97190        2.21650      -13.28370
H          4.09350       -0.57270        6.76090
H          3.89850        2.01150       11.40830
H          3.19250        3.39680       13.32850
H          1.41070        4.59370       14.57520
H         -1.48220        3.35980       11.69210
H         -0.81750        1.97540        9.78380
H          1.38870       -5.08910       -0.75720
H          2.45270       -5.96810       -2.76660
H          4.08210       -7.02080       -4.07830
H          2.72970       -6.36080       -5.05760
H          4.29830       -6.71280       -5.81420
H          4.59070       -2.29140       -3.24550
H          3.51250       -1.41010       -1.20350
H         -0.21430       -2.64600        2.10760
H         -0.26600       -3.88500        4.18480
H          0.35180       -4.12620        6.34910
H         -0.64400       -5.54410        5.88060
H          0.43350       -5.63600        7.29080
H          3.39210       -5.83660        3.11900
H          3.47300       -4.53390        1.03430
H         -3.82050        2.35830       -0.41610
H         -3.71040        3.87680        1.49380
H         -3.75120        5.48440        3.17370
H         -3.00510        3.96800        3.77910
H         -2.69500        5.51480        4.59970
H          0.41150        4.64900        0.64890
H          0.29000        3.11210       -1.28930
H         -2.98110        3.70100       -3.08130
H         -4.61740        3.58750       -4.92870
H         -6.50960       -0.80280       -6.08560
H         -4.89540       -0.72260       -6.87020
H         -6.34990       -0.29830       -7.78670
H         -4.70180       -0.67220       -4.57530
H         -3.07900       -0.55700       -2.76860
H         -3.14130       -0.05210       -8.75530
H          0.78770        4.72280      -10.75940
