
  xtb     02062206423D
 energy: -435.621119800972 gnorm: 0.000531112474 xtb: 6.4.1 (unknown)
258280  0     0  0            999 V2000
    6.8187   -5.5624   -2.8576 C   0  0  0  0  0  0  0  0  0  0  0  0
    6.4206   -6.0522   -4.0662 C   0  0  0  0  0  0  0  0  0  0  0  0
    4.9932   -6.3504   -4.3540 C   0  0  0  0  0  0  0  0  0  0  0  0
    4.0655   -6.2705   -3.5781 O   0  0  0  0  0  0  0  0  0  0  0  0
    4.9729   -6.9038   -5.7159 C   0  0  0  0  0  0  0  0  0  0  0  0
    3.8939   -7.2545   -6.4739 C   0  0  0  0  0  0  0  0  0  0  0  0
    4.1009   -7.6992   -7.7973 C   0  0  0  0  0  0  0  0  0  0  0  0
    3.0171   -8.0092   -8.6439 C   0  0  0  0  0  0  0  0  0  0  0  0
    3.2287   -8.4432   -9.9230 C   0  0  0  0  0  0  0  0  0  0  0  0
    4.5454   -8.5804  -10.3840 C   0  0  0  0  0  0  0  0  0  0  0  0
    4.7337   -9.0153  -11.6438 F   0  0  0  0  0  0  0  0  0  0  0  0
    5.6308   -8.2832   -9.6074 C   0  0  0  0  0  0  0  0  0  0  0  0
    5.4327   -7.8249   -8.2901 C   0  0  0  0  0  0  0  0  0  0  0  0
    6.5331   -7.4785   -7.4713 C   0  0  0  0  0  0  0  0  0  0  0  0
    6.3061   -7.0051   -6.2059 C   0  0  0  0  0  0  0  0  0  0  0  0
    7.2194   -6.5051   -5.1828 C   0  0  0  0  0  0  0  0  0  0  0  0
    8.5762   -6.3538   -5.3089 C   0  0  0  0  0  0  0  0  0  0  0  0
    9.3182   -6.7638   -6.4348 C   0  0  0  0  0  0  0  0  0  0  0  0
    9.9723   -7.0875   -7.3209 N   0  0  0  0  0  0  0  0  0  0  0  0
    9.3893   -5.7438   -4.3320 C   0  0  0  0  0  0  0  0  0  0  0  0
   10.0894   -5.2313   -3.5798 N   0  0  0  0  0  0  0  0  0  0  0  0
    5.9489   -4.7408   -2.0853 C   0  0  0  0  0  0  0  0  0  0  0  0
    5.2275   -3.6649   -2.5895 C   0  0  0  0  0  0  0  0  0  0  0  0
    5.2123   -3.2534   -3.9346 N   0  0  0  0  0  0  0  0  0  0  0  0
    4.1385   -3.5940   -4.7563 C   0  0  0  0  0  0  0  0  0  0  0  0
    4.3176   -3.6495   -6.1404 C   0  0  0  0  0  0  0  0  0  0  0  0
    3.2911   -4.0690   -6.9607 C   0  0  0  0  0  0  0  0  0  0  0  0
    2.0729   -4.4388   -6.4105 C   0  0  0  0  0  0  0  0  0  0  0  0
    0.7620   -5.0453   -7.4615 S   0  0  0  0  0  0  0  0  0  0  0  0
    0.0999   -3.4487   -8.0301 C   0  0  0  0  0  0  0  0  0  0  0  0
    1.8808   -4.3764   -5.0407 C   0  0  0  0  0  0  0  0  0  0  0  0
    2.9027   -3.9529   -4.2171 C   0  0  0  0  0  0  0  0  0  0  0  0
    6.0840   -2.1978   -4.2580 C   0  0  0  0  0  0  0  0  0  0  0  0
    5.6527   -1.1101   -5.0130 C   0  0  0  0  0  0  0  0  0  0  0  0
    6.5188   -0.0839   -5.3335 C   0  0  0  0  0  0  0  0  0  0  0  0
    7.8340   -0.1180   -4.8899 C   0  0  0  0  0  0  0  0  0  0  0  0
    9.0342    1.1217   -5.2582 S   0  0  0  0  0  0  0  0  0  0  0  0
    8.0629    2.4658   -5.9943 C   0  0  0  0  0  0  0  0  0  0  0  0
    8.2642   -1.1923   -4.1151 C   0  0  0  0  0  0  0  0  0  0  0  0
    7.4016   -2.2185   -3.7994 C   0  0  0  0  0  0  0  0  0  0  0  0
    4.6016   -2.9499   -1.5553 C   0  0  0  0  0  0  0  0  0  0  0  0
    3.5264   -1.6058   -1.5464 S   0  0  0  0  0  0  0  0  0  0  0  0
    3.2425   -1.8310    0.1767 C   0  0  0  0  0  0  0  0  0  0  0  0
    3.9896   -2.8624    0.7073 C   0  0  0  0  0  0  0  0  0  0  0  0
    3.9203   -3.2901    2.0252 N   0  0  0  0  0  0  0  0  0  0  0  0
    3.8739   -4.6725    2.2602 C   0  0  0  0  0  0  0  0  0  0  0  0
    3.1413   -5.4986    1.4063 C   0  0  0  0  0  0  0  0  0  0  0  0
    3.1167   -6.8597    1.6081 C   0  0  0  0  0  0  0  0  0  0  0  0
    3.8100   -7.4293    2.6742 C   0  0  0  0  0  0  0  0  0  0  0  0
    3.6954   -9.1837    2.8347 S   0  0  0  0  0  0  0  0  0  0  0  0
    4.7502   -9.5657    4.2621 C   0  0  0  0  0  0  0  0  0  0  0  0
    4.5300   -6.6102    3.5332 C   0  0  0  0  0  0  0  0  0  0  0  0
    4.5662   -5.2454    3.3224 C   0  0  0  0  0  0  0  0  0  0  0  0
    4.0301   -2.3818    3.0839 C   0  0  0  0  0  0  0  0  0  0  0  0
    3.3206   -2.5874    4.2643 C   0  0  0  0  0  0  0  0  0  0  0  0
    3.4734   -1.7348    5.3412 C   0  0  0  0  0  0  0  0  0  0  0  0
    4.3406   -0.6536    5.2538 C   0  0  0  0  0  0  0  0  0  0  0  0
    4.6294    0.5113    6.5467 S   0  0  0  0  0  0  0  0  0  0  0  0
    3.5296   -0.0310    7.8834 C   0  0  0  0  0  0  0  0  0  0  0  0
    5.0430   -0.4407    4.0698 C   0  0  0  0  0  0  0  0  0  0  0  0
    4.8881   -1.2854    2.9944 C   0  0  0  0  0  0  0  0  0  0  0  0
    4.7835   -3.4888   -0.2892 C   0  0  0  0  0  0  0  0  0  0  0  0
    5.8494   -4.8473   -0.3405 S   0  0  0  0  0  0  0  0  0  0  0  0
    2.0773   -1.1987    0.7529 C   0  0  0  0  0  0  0  0  0  0  0  0
    1.8835   -0.0073    1.4143 C   0  0  0  0  0  0  0  0  0  0  0  0
    2.8727    0.9064    1.7486 N   0  0  0  0  0  0  0  0  0  0  0  0
    2.6397    1.7055    2.8774 C   0  0  0  0  0  0  0  0  0  0  0  0
    2.8820    3.0754    2.8708 C   0  0  0  0  0  0  0  0  0  0  0  0
    2.5272    3.8590    3.9521 C   0  0  0  0  0  0  0  0  0  0  0  0
    1.9308    3.2838    5.0656 C   0  0  0  0  0  0  0  0  0  0  0  0
    1.3464    4.1867    6.4645 S   0  0  0  0  0  0  0  0  0  0  0  0
    1.6813    5.9173    6.0499 C   0  0  0  0  0  0  0  0  0  0  0  0
    1.7426    1.9041    5.0985 C   0  0  0  0  0  0  0  0  0  0  0  0
    2.0835    1.1244    4.0181 C   0  0  0  0  0  0  0  0  0  0  0  0
    3.8207    1.2636    0.7770 C   0  0  0  0  0  0  0  0  0  0  0  0
    3.4783    1.2800   -0.5750 C   0  0  0  0  0  0  0  0  0  0  0  0
    4.4238    1.5725   -1.5326 C   0  0  0  0  0  0  0  0  0  0  0  0
    5.7321    1.8678   -1.1629 C   0  0  0  0  0  0  0  0  0  0  0  0
    6.8666    2.2051   -2.4710 S   0  0  0  0  0  0  0  0  0  0  0  0
    8.4939    2.0001   -1.6962 C   0  0  0  0  0  0  0  0  0  0  0  0
    6.0661    1.9102    0.1848 C   0  0  0  0  0  0  0  0  0  0  0  0
    5.1174    1.6123    1.1437 C   0  0  0  0  0  0  0  0  0  0  0  0
    0.5003    0.2259    1.6442 C   0  0  0  0  0  0  0  0  0  0  0  0
   -0.3923    1.5117    2.3822 S   0  0  0  0  0  0  0  0  0  0  0  0
   -1.8993    0.7986    1.8208 C   0  0  0  0  0  0  0  0  0  0  0  0
   -1.7078   -0.4143    1.1877 C   0  0  0  0  0  0  0  0  0  0  0  0
   -2.7595   -1.2152    0.7433 N   0  0  0  0  0  0  0  0  0  0  0  0
   -2.6893   -1.7043   -0.5615 C   0  0  0  0  0  0  0  0  0  0  0  0
   -2.1325   -0.8902   -1.5506 C   0  0  0  0  0  0  0  0  0  0  0  0
   -1.9572   -1.3651   -2.8295 C   0  0  0  0  0  0  0  0  0  0  0  0
   -2.3488   -2.6606   -3.1567 C   0  0  0  0  0  0  0  0  0  0  0  0
   -2.0608   -3.1802   -4.8257 S   0  0  0  0  0  0  0  0  0  0  0  0
   -2.0975   -4.9923   -4.7225 C   0  0  0  0  0  0  0  0  0  0  0  0
   -2.9506   -3.4569   -2.1921 C   0  0  0  0  0  0  0  0  0  0  0  0
   -3.1127   -2.9855   -0.9036 C   0  0  0  0  0  0  0  0  0  0  0  0
   -3.6102   -1.7362    1.7272 C   0  0  0  0  0  0  0  0  0  0  0  0
   -3.1100   -1.9949    3.0027 C   0  0  0  0  0  0  0  0  0  0  0  0
   -3.9280   -2.4953    3.9922 C   0  0  0  0  0  0  0  0  0  0  0  0
   -5.2664   -2.7423    3.7216 C   0  0  0  0  0  0  0  0  0  0  0  0
   -6.3675   -3.3559    4.9685 S   0  0  0  0  0  0  0  0  0  0  0  0
   -5.2827   -4.4768    5.9082 C   0  0  0  0  0  0  0  0  0  0  0  0
   -5.7756   -2.4765    2.4545 C   0  0  0  0  0  0  0  0  0  0  0  0
   -4.9554   -1.9812    1.4618 C   0  0  0  0  0  0  0  0  0  0  0  0
   -0.3349   -0.7297    1.0923 C   0  0  0  0  0  0  0  0  0  0  0  0
    0.5535   -2.0073    0.3566 S   0  0  0  0  0  0  0  0  0  0  0  0
   -3.0709    1.5979    1.7978 C   0  0  0  0  0  0  0  0  0  0  0  0
   -3.3105    2.6983    2.6032 C   0  0  0  0  0  0  0  0  0  0  0  0
   -2.6499    2.8768    3.8173 N   0  0  0  0  0  0  0  0  0  0  0  0
   -2.8249    1.8605    4.7696 C   0  0  0  0  0  0  0  0  0  0  0  0
   -1.8183    1.5572    5.6831 C   0  0  0  0  0  0  0  0  0  0  0  0
   -1.9993    0.5385    6.5960 C   0  0  0  0  0  0  0  0  0  0  0  0
   -3.1869   -0.1856    6.6177 C   0  0  0  0  0  0  0  0  0  0  0  0
   -3.3572   -1.5023    7.7924 S   0  0  0  0  0  0  0  0  0  0  0  0
   -5.1311   -1.4244    8.1936 C   0  0  0  0  0  0  0  0  0  0  0  0
   -4.1928    0.1138    5.7101 C   0  0  0  0  0  0  0  0  0  0  0  0
   -4.0103    1.1279    4.7951 C   0  0  0  0  0  0  0  0  0  0  0  0
   -2.2106    4.1581    4.1457 C   0  0  0  0  0  0  0  0  0  0  0  0
   -2.3076    4.6607    5.4416 C   0  0  0  0  0  0  0  0  0  0  0  0
   -1.9607    5.9701    5.6994 C   0  0  0  0  0  0  0  0  0  0  0  0
   -1.5238    6.7890    4.6696 C   0  0  0  0  0  0  0  0  0  0  0  0
   -1.2207    8.5216    4.9686 S   0  0  0  0  0  0  0  0  0  0  0  0
   -2.9618    9.0334    5.1314 C   0  0  0  0  0  0  0  0  0  0  0  0
   -1.3693    6.2807    3.3897 C   0  0  0  0  0  0  0  0  0  0  0  0
   -1.7047    4.9695    3.1300 C   0  0  0  0  0  0  0  0  0  0  0  0
   -4.3426    3.5082    2.0902 C   0  0  0  0  0  0  0  0  0  0  0  0
   -4.9568    5.0575    2.5254 S   0  0  0  0  0  0  0  0  0  0  0  0
   -6.0774    4.9993    1.1560 C   0  0  0  0  0  0  0  0  0  0  0  0
   -5.8860    3.8366    0.3578 C   0  0  0  0  0  0  0  0  0  0  0  0
   -6.4967    3.5574   -0.8324 N   0  0  0  0  0  0  0  0  0  0  0  0
   -6.5173    2.2046   -1.2466 C   0  0  0  0  0  0  0  0  0  0  0  0
   -5.9436    1.8317   -2.4568 C   0  0  0  0  0  0  0  0  0  0  0  0
   -5.8915    0.5025   -2.8267 C   0  0  0  0  0  0  0  0  0  0  0  0
   -6.4372   -0.4702   -1.9981 C   0  0  0  0  0  0  0  0  0  0  0  0
   -6.3761   -2.1968   -2.3396 S   0  0  0  0  0  0  0  0  0  0  0  0
   -5.7777   -2.2872   -4.0481 C   0  0  0  0  0  0  0  0  0  0  0  0
   -7.0588   -0.0909   -0.8083 C   0  0  0  0  0  0  0  0  0  0  0  0
   -7.0899    1.2322   -0.4288 C   0  0  0  0  0  0  0  0  0  0  0  0
   -6.9314    4.5236   -1.7565 C   0  0  0  0  0  0  0  0  0  0  0  0
   -6.2588    5.7329   -1.9212 C   0  0  0  0  0  0  0  0  0  0  0  0
   -6.7400    6.6872   -2.7936 C   0  0  0  0  0  0  0  0  0  0  0  0
   -7.8867    6.4370   -3.5399 C   0  0  0  0  0  0  0  0  0  0  0  0
   -8.5985    7.6053   -4.6518 S   0  0  0  0  0  0  0  0  0  0  0  0
   -7.9621    9.1960   -4.0486 C   0  0  0  0  0  0  0  0  0  0  0  0
   -8.5158    5.1998   -3.4319 C   0  0  0  0  0  0  0  0  0  0  0  0
   -8.0503    4.2552   -2.5442 C   0  0  0  0  0  0  0  0  0  0  0  0
   -4.9149    2.9978    0.9287 C   0  0  0  0  0  0  0  0  0  0  0  0
   -4.2038    1.4769    0.4660 S   0  0  0  0  0  0  0  0  0  0  0  0
   -7.0697    5.9413    0.9185 C   0  0  0  0  0  0  0  0  0  0  0  0
   -7.2801    7.1885    1.4738 C   0  0  0  0  0  0  0  0  0  0  0  0
   -6.4345    7.8593    2.4574 C   0  0  0  0  0  0  0  0  0  0  0  0
   -5.4753    7.4117    3.0650 O   0  0  0  0  0  0  0  0  0  0  0  0
   -6.9579    9.2386    2.5690 C   0  0  0  0  0  0  0  0  0  0  0  0
   -6.5074   10.2657    3.3702 C   0  0  0  0  0  0  0  0  0  0  0  0
   -7.1792   11.4809    3.2930 C   0  0  0  0  0  0  0  0  0  0  0  0
   -6.6557   12.7997    4.2722 Cl  0  0  0  0  0  0  0  0  0  0  0  0
   -8.2656   11.6499    2.4442 C   0  0  0  0  0  0  0  0  0  0  0  0
   -8.7129   10.6074    1.6445 C   0  0  0  0  0  0  0  0  0  0  0  0
   -8.0532    9.3897    1.7014 C   0  0  0  0  0  0  0  0  0  0  0  0
   -8.2901    8.1152    1.0234 C   0  0  0  0  0  0  0  0  0  0  0  0
   -9.2944    7.8794    0.1133 C   0  0  0  0  0  0  0  0  0  0  0  0
   -9.6466    6.6215   -0.4117 C   0  0  0  0  0  0  0  0  0  0  0  0
  -10.0273    5.6287   -0.8502 N   0  0  0  0  0  0  0  0  0  0  0  0
  -10.1231    8.8875   -0.4161 C   0  0  0  0  0  0  0  0  0  0  0  0
  -10.7923    9.6715   -0.9234 N   0  0  0  0  0  0  0  0  0  0  0  0
    7.8157   -5.7350   -2.4739 H   0  0  0  0  0  0  0  0  0  0  0  0
    2.8928   -7.1670   -6.0806 H   0  0  0  0  0  0  0  0  0  0  0  0
    2.0142   -7.8823   -8.2653 H   0  0  0  0  0  0  0  0  0  0  0  0
    2.4126   -8.6821  -10.5862 H   0  0  0  0  0  0  0  0  0  0  0  0
    6.6298   -8.3921  -10.0002 H   0  0  0  0  0  0  0  0  0  0  0  0
    7.5290   -7.5875   -7.8709 H   0  0  0  0  0  0  0  0  0  0  0  0
    5.2759   -3.3849   -6.5633 H   0  0  0  0  0  0  0  0  0  0  0  0
    3.4427   -4.1371   -8.0280 H   0  0  0  0  0  0  0  0  0  0  0  0
    0.8915   -2.8860   -8.5159 H   0  0  0  0  0  0  0  0  0  0  0  0
   -0.2978   -2.9038   -7.1786 H   0  0  0  0  0  0  0  0  0  0  0  0
   -0.6923   -3.6720   -8.7368 H   0  0  0  0  0  0  0  0  0  0  0  0
    0.9315   -4.6658   -4.6195 H   0  0  0  0  0  0  0  0  0  0  0  0
    2.7457   -3.9240   -3.1517 H   0  0  0  0  0  0  0  0  0  0  0  0
    4.6274   -1.0687   -5.3500 H   0  0  0  0  0  0  0  0  0  0  0  0
    6.1514    0.7417   -5.9209 H   0  0  0  0  0  0  0  0  0  0  0  0
    7.2711    2.7541   -5.3095 H   0  0  0  0  0  0  0  0  0  0  0  0
    7.6686    2.1582   -6.9585 H   0  0  0  0  0  0  0  0  0  0  0  0
    8.7578    3.2889   -6.1282 H   0  0  0  0  0  0  0  0  0  0  0  0
    9.2861   -1.2192   -3.7692 H   0  0  0  0  0  0  0  0  0  0  0  0
    7.7563   -3.0460   -3.2045 H   0  0  0  0  0  0  0  0  0  0  0  0
    2.5890   -5.0667    0.5847 H   0  0  0  0  0  0  0  0  0  0  0  0
    2.5557   -7.4986    0.9438 H   0  0  0  0  0  0  0  0  0  0  0  0
    4.3536   -9.0942    5.1566 H   0  0  0  0  0  0  0  0  0  0  0  0
    4.7143  -10.6454    4.3693 H   0  0  0  0  0  0  0  0  0  0  0  0
    5.7701   -9.2486    4.0652 H   0  0  0  0  0  0  0  0  0  0  0  0
    5.0791   -7.0197    4.3655 H   0  0  0  0  0  0  0  0  0  0  0  0
    5.1427   -4.6176    3.9854 H   0  0  0  0  0  0  0  0  0  0  0  0
    2.6491   -3.4304    4.3391 H   0  0  0  0  0  0  0  0  0  0  0  0
    2.9082   -1.9253    6.2395 H   0  0  0  0  0  0  0  0  0  0  0  0
    2.4993   -0.0223    7.5416 H   0  0  0  0  0  0  0  0  0  0  0  0
    3.8234   -1.0167    8.2325 H   0  0  0  0  0  0  0  0  0  0  0  0
    3.6582    0.6966    8.6786 H   0  0  0  0  0  0  0  0  0  0  0  0
    5.7291    0.3909    4.0216 H   0  0  0  0  0  0  0  0  0  0  0  0
    5.4444   -1.1149    2.0844 H   0  0  0  0  0  0  0  0  0  0  0  0
    3.3227    3.5366    1.9993 H   0  0  0  0  0  0  0  0  0  0  0  0
    2.7027    4.9213    3.9029 H   0  0  0  0  0  0  0  0  0  0  0  0
    2.7515    6.0738    5.9502 H   0  0  0  0  0  0  0  0  0  0  0  0
    1.3003    6.4987    6.8835 H   0  0  0  0  0  0  0  0  0  0  0  0
    1.1489    6.1913    5.1438 H   0  0  0  0  0  0  0  0  0  0  0  0
    1.3104    1.4545    5.9790 H   0  0  0  0  0  0  0  0  0  0  0  0
    1.9103    0.0590    4.0412 H   0  0  0  0  0  0  0  0  0  0  0  0
    2.4644    1.0583   -0.8743 H   0  0  0  0  0  0  0  0  0  0  0  0
    4.1600    1.5673   -2.5790 H   0  0  0  0  0  0  0  0  0  0  0  0
    9.2076    1.9811   -2.5145 H   0  0  0  0  0  0  0  0  0  0  0  0
    8.5195    1.0557   -1.1612 H   0  0  0  0  0  0  0  0  0  0  0  0
    8.7078    2.8366   -1.0371 H   0  0  0  0  0  0  0  0  0  0  0  0
    7.0641    2.1711    0.4997 H   0  0  0  0  0  0  0  0  0  0  0  0
    5.3783    1.6527    2.1892 H   0  0  0  0  0  0  0  0  0  0  0  0
   -1.8302    0.1163   -1.3019 H   0  0  0  0  0  0  0  0  0  0  0  0
   -1.5115   -0.7408   -3.5890 H   0  0  0  0  0  0  0  0  0  0  0  0
   -3.1221   -5.3468   -4.6528 H   0  0  0  0  0  0  0  0  0  0  0  0
   -1.6439   -5.3515   -5.6422 H   0  0  0  0  0  0  0  0  0  0  0  0
   -1.5133   -5.3157   -3.8662 H   0  0  0  0  0  0  0  0  0  0  0  0
   -3.2886   -4.4533   -2.4289 H   0  0  0  0  0  0  0  0  0  0  0  0
   -3.5575   -3.6231   -0.1552 H   0  0  0  0  0  0  0  0  0  0  0  0
   -2.0689   -1.8102    3.2223 H   0  0  0  0  0  0  0  0  0  0  0  0
   -3.5120   -2.6942    4.9667 H   0  0  0  0  0  0  0  0  0  0  0  0
   -4.5997   -3.9196    6.5427 H   0  0  0  0  0  0  0  0  0  0  0  0
   -4.7371   -5.1047    5.2110 H   0  0  0  0  0  0  0  0  0  0  0  0
   -5.9419   -5.0830    6.5215 H   0  0  0  0  0  0  0  0  0  0  0  0
   -6.8194   -2.6645    2.2550 H   0  0  0  0  0  0  0  0  0  0  0  0
   -5.3458   -1.7843    0.4757 H   0  0  0  0  0  0  0  0  0  0  0  0
   -0.9045    2.1303    5.6715 H   0  0  0  0  0  0  0  0  0  0  0  0
   -1.2217    0.2976    7.3049 H   0  0  0  0  0  0  0  0  0  0  0  0
   -5.3998   -0.3933    8.4006 H   0  0  0  0  0  0  0  0  0  0  0  0
   -5.7332   -1.8260    7.3837 H   0  0  0  0  0  0  0  0  0  0  0  0
   -5.2616   -2.0311    9.0843 H   0  0  0  0  0  0  0  0  0  0  0  0
   -5.1230   -0.4312    5.7104 H   0  0  0  0  0  0  0  0  0  0  0  0
   -4.8030    1.3570    4.0985 H   0  0  0  0  0  0  0  0  0  0  0  0
   -2.6812    4.0337    6.2364 H   0  0  0  0  0  0  0  0  0  0  0  0
   -2.0523    6.3670    6.6990 H   0  0  0  0  0  0  0  0  0  0  0  0
   -2.9737   10.1173    5.0728 H   0  0  0  0  0  0  0  0  0  0  0  0
   -3.5331    8.5932    4.3186 H   0  0  0  0  0  0  0  0  0  0  0  0
   -3.3510    8.7041    6.0907 H   0  0  0  0  0  0  0  0  0  0  0  0
   -0.9999    6.9199    2.6023 H   0  0  0  0  0  0  0  0  0  0  0  0
   -1.5939    4.5655    2.1344 H   0  0  0  0  0  0  0  0  0  0  0  0
   -5.5152    2.5876   -3.0980 H   0  0  0  0  0  0  0  0  0  0  0  0
   -5.4093    0.2370   -3.7530 H   0  0  0  0  0  0  0  0  0  0  0  0
   -6.4262   -1.7037   -4.6946 H   0  0  0  0  0  0  0  0  0  0  0  0
   -5.8342   -3.3362   -4.3216 H   0  0  0  0  0  0  0  0  0  0  0  0
   -4.7476   -1.9480   -4.1041 H   0  0  0  0  0  0  0  0  0  0  0  0
   -7.5146   -0.8458   -0.1865 H   0  0  0  0  0  0  0  0  0  0  0  0
   -7.5580    1.5237    0.4994 H   0  0  0  0  0  0  0  0  0  0  0  0
   -5.3639    5.9335   -1.3508 H   0  0  0  0  0  0  0  0  0  0  0  0
   -6.2074    7.6197   -2.8934 H   0  0  0  0  0  0  0  0  0  0  0  0
   -8.5457    9.9563   -4.5578 H   0  0  0  0  0  0  0  0  0  0  0  0
   -6.9118    9.3097   -4.3011 H   0  0  0  0  0  0  0  0  0  0  0  0
   -8.1226    9.2671   -2.9768 H   0  0  0  0  0  0  0  0  0  0  0  0
   -9.3941    5.0027   -4.0252 H   0  0  0  0  0  0  0  0  0  0  0  0
   -8.5673    3.3150   -2.4343 H   0  0  0  0  0  0  0  0  0  0  0  0
   -7.7690    5.6557    0.1440 H   0  0  0  0  0  0  0  0  0  0  0  0
   -5.6681   10.1242    4.0327 H   0  0  0  0  0  0  0  0  0  0  0  0
   -8.7680   12.6038    2.4099 H   0  0  0  0  0  0  0  0  0  0  0  0
   -9.5614   10.7625    0.9983 H   0  0  0  0  0  0  0  0  0  0  0  0
  1  2  2  0  0  0  0
  2  3  1  0  0  0  0
  3  4  2  0  0  0  0
  3  5  1  0  0  0  0
  5  6  2  0  0  0  0
  6  7  1  0  0  0  0
  7  8  2  0  0  0  0
  8  9  1  0  0  0  0
  9 10  2  0  0  0  0
 10 11  1  0  0  0  0
 10 12  1  0  0  0  0
 12 13  2  0  0  0  0
 13 14  1  0  0  0  0
 14 15  2  0  0  0  0
 15 16  1  0  0  0  0
 16 17  2  0  0  0  0
 17 18  1  0  0  0  0
 18 19  3  0  0  0  0
 17 20  1  0  0  0  0
 20 21  3  0  0  0  0
  1 22  1  0  0  0  0
 22 23  2  0  0  0  0
 23 24  1  0  0  0  0
 24 25  1  0  0  0  0
 25 26  2  0  0  0  0
 26 27  1  0  0  0  0
 27 28  2  0  0  0  0
 28 29  1  0  0  0  0
 29 30  1  0  0  0  0
 28 31  1  0  0  0  0
 31 32  2  0  0  0  0
 24 33  1  0  0  0  0
 33 34  2  0  0  0  0
 34 35  1  0  0  0  0
 35 36  2  0  0  0  0
 36 37  1  0  0  0  0
 37 38  1  0  0  0  0
 36 39  1  0  0  0  0
 39 40  2  0  0  0  0
 23 41  1  0  0  0  0
 41 42  1  0  0  0  0
 42 43  1  0  0  0  0
 43 44  2  0  0  0  0
 44 45  1  0  0  0  0
 45 46  1  0  0  0  0
 46 47  2  0  0  0  0
 47 48  1  0  0  0  0
 48 49  2  0  0  0  0
 49 50  1  0  0  0  0
 50 51  1  0  0  0  0
 49 52  1  0  0  0  0
 52 53  2  0  0  0  0
 45 54  1  0  0  0  0
 54 55  2  0  0  0  0
 55 56  1  0  0  0  0
 56 57  2  0  0  0  0
 57 58  1  0  0  0  0
 58 59  1  0  0  0  0
 57 60  1  0  0  0  0
 60 61  2  0  0  0  0
 44 62  1  0  0  0  0
 62 63  1  0  0  0  0
 43 64  1  0  0  0  0
 64 65  2  0  0  0  0
 65 66  1  0  0  0  0
 66 67  1  0  0  0  0
 67 68  2  0  0  0  0
 68 69  1  0  0  0  0
 69 70  2  0  0  0  0
 70 71  1  0  0  0  0
 71 72  1  0  0  0  0
 70 73  1  0  0  0  0
 73 74  2  0  0  0  0
 66 75  1  0  0  0  0
 75 76  2  0  0  0  0
 76 77  1  0  0  0  0
 77 78  2  0  0  0  0
 78 79  1  0  0  0  0
 79 80  1  0  0  0  0
 78 81  1  0  0  0  0
 81 82  2  0  0  0  0
 65 83  1  0  0  0  0
 83 84  1  0  0  0  0
 84 85  1  0  0  0  0
 85 86  2  0  0  0  0
 86 87  1  0  0  0  0
 87 88  1  0  0  0  0
 88 89  2  0  0  0  0
 89 90  1  0  0  0  0
 90 91  2  0  0  0  0
 91 92  1  0  0  0  0
 92 93  1  0  0  0  0
 91 94  1  0  0  0  0
 94 95  2  0  0  0  0
 87 96  1  0  0  0  0
 96 97  2  0  0  0  0
 97 98  1  0  0  0  0
 98 99  2  0  0  0  0
 99100  1  0  0  0  0
100101  1  0  0  0  0
 99102  1  0  0  0  0
102103  2  0  0  0  0
 86104  1  0  0  0  0
104105  1  0  0  0  0
 85106  1  0  0  0  0
106107  2  0  0  0  0
107108  1  0  0  0  0
108109  1  0  0  0  0
109110  2  0  0  0  0
110111  1  0  0  0  0
111112  2  0  0  0  0
112113  1  0  0  0  0
113114  1  0  0  0  0
112115  1  0  0  0  0
115116  2  0  0  0  0
108117  1  0  0  0  0
117118  2  0  0  0  0
118119  1  0  0  0  0
119120  2  0  0  0  0
120121  1  0  0  0  0
121122  1  0  0  0  0
120123  1  0  0  0  0
123124  2  0  0  0  0
107125  1  0  0  0  0
125126  1  0  0  0  0
126127  1  0  0  0  0
127128  2  0  0  0  0
128129  1  0  0  0  0
129130  1  0  0  0  0
130131  2  0  0  0  0
131132  1  0  0  0  0
132133  2  0  0  0  0
133134  1  0  0  0  0
134135  1  0  0  0  0
133136  1  0  0  0  0
136137  2  0  0  0  0
129138  1  0  0  0  0
138139  2  0  0  0  0
139140  1  0  0  0  0
140141  2  0  0  0  0
141142  1  0  0  0  0
142143  1  0  0  0  0
141144  1  0  0  0  0
144145  2  0  0  0  0
128146  1  0  0  0  0
146147  1  0  0  0  0
127148  1  0  0  0  0
148149  2  0  0  0  0
149150  1  0  0  0  0
150151  2  0  0  0  0
150152  1  0  0  0  0
152153  2  0  0  0  0
153154  1  0  0  0  0
154155  1  0  0  0  0
154156  2  0  0  0  0
156157  1  0  0  0  0
157158  2  0  0  0  0
158159  1  0  0  0  0
159160  2  0  0  0  0
160161  1  0  0  0  0
161162  3  0  0  0  0
160163  1  0  0  0  0
163164  3  0  0  0  0
 16  2  1  0  0  0  0
 63 22  1  0  0  0  0
105 64  1  0  0  0  0
147106  1  0  0  0  0
159149  1  0  0  0  0
 15  5  1  0  0  0  0
 32 25  1  0  0  0  0
 40 33  1  0  0  0  0
 62 41  2  0  0  0  0
 74 67  1  0  0  0  0
 82 75  1  0  0  0  0
104 83  2  0  0  0  0
116109  1  0  0  0  0
124117  1  0  0  0  0
146125  2  0  0  0  0
158152  1  0  0  0  0
 13  7  1  0  0  0  0
 53 46  1  0  0  0  0
 61 54  1  0  0  0  0
 95 88  1  0  0  0  0
103 96  1  0  0  0  0
137130  1  0  0  0  0
145138  1  0  0  0  0
  1165  1  0  0  0  0
  6166  1  0  0  0  0
  8167  1  0  0  0  0
  9168  1  0  0  0  0
 12169  1  0  0  0  0
 14170  1  0  0  0  0
 26171  1  0  0  0  0
 27172  1  0  0  0  0
 30173  1  0  0  0  0
 30174  1  0  0  0  0
 30175  1  0  0  0  0
 31176  1  0  0  0  0
 32177  1  0  0  0  0
 34178  1  0  0  0  0
 35179  1  0  0  0  0
 38180  1  0  0  0  0
 38181  1  0  0  0  0
 38182  1  0  0  0  0
 39183  1  0  0  0  0
 40184  1  0  0  0  0
 47185  1  0  0  0  0
 48186  1  0  0  0  0
 51187  1  0  0  0  0
 51188  1  0  0  0  0
 51189  1  0  0  0  0
 52190  1  0  0  0  0
 53191  1  0  0  0  0
 55192  1  0  0  0  0
 56193  1  0  0  0  0
 59194  1  0  0  0  0
 59195  1  0  0  0  0
 59196  1  0  0  0  0
 60197  1  0  0  0  0
 61198  1  0  0  0  0
 68199  1  0  0  0  0
 69200  1  0  0  0  0
 72201  1  0  0  0  0
 72202  1  0  0  0  0
 72203  1  0  0  0  0
 73204  1  0  0  0  0
 74205  1  0  0  0  0
 76206  1  0  0  0  0
 77207  1  0  0  0  0
 80208  1  0  0  0  0
 80209  1  0  0  0  0
 80210  1  0  0  0  0
 81211  1  0  0  0  0
 82212  1  0  0  0  0
 89213  1  0  0  0  0
 90214  1  0  0  0  0
 93215  1  0  0  0  0
 93216  1  0  0  0  0
 93217  1  0  0  0  0
 94218  1  0  0  0  0
 95219  1  0  0  0  0
 97220  1  0  0  0  0
 98221  1  0  0  0  0
101222  1  0  0  0  0
101223  1  0  0  0  0
101224  1  0  0  0  0
102225  1  0  0  0  0
103226  1  0  0  0  0
110227  1  0  0  0  0
111228  1  0  0  0  0
114229  1  0  0  0  0
114230  1  0  0  0  0
114231  1  0  0  0  0
115232  1  0  0  0  0
116233  1  0  0  0  0
118234  1  0  0  0  0
119235  1  0  0  0  0
122236  1  0  0  0  0
122237  1  0  0  0  0
122238  1  0  0  0  0
123239  1  0  0  0  0
124240  1  0  0  0  0
131241  1  0  0  0  0
132242  1  0  0  0  0
135243  1  0  0  0  0
135244  1  0  0  0  0
135245  1  0  0  0  0
136246  1  0  0  0  0
137247  1  0  0  0  0
139248  1  0  0  0  0
140249  1  0  0  0  0
143250  1  0  0  0  0
143251  1  0  0  0  0
143252  1  0  0  0  0
144253  1  0  0  0  0
145254  1  0  0  0  0
148255  1  0  0  0  0
153256  1  0  0  0  0
156257  1  0  0  0  0
157258  1  0  0  0  0
M  END
