
  xtb     02112204283D
 energy: -270.776551201385 gnorm: 0.000288623680 xtb: 6.4.1 (unknown)
139155  0     0  0            999 V2000
    6.1359   -0.7013    3.0089 C   0  0  0  0  0  0  0  0  0  0  0  0
    7.1973    0.1269    2.7309 C   0  0  0  0  0  0  0  0  0  0  0  0
    7.2512    1.0345    1.5702 C   0  0  0  0  0  0  0  0  0  0  0  0
    6.4212    1.1737    0.6884 O   0  0  0  0  0  0  0  0  0  0  0  0
    8.6076    1.6130    1.5744 C   0  0  0  0  0  0  0  0  0  0  0  0
    9.1465    2.5365    0.7270 C   0  0  0  0  0  0  0  0  0  0  0  0
   10.4988    2.9135    0.8892 C   0  0  0  0  0  0  0  0  0  0  0  0
   11.1063    3.8585    0.0383 C   0  0  0  0  0  0  0  0  0  0  0  0
   12.4217    4.1999    0.1905 C   0  0  0  0  0  0  0  0  0  0  0  0
   13.1637    3.5959    1.2139 C   0  0  0  0  0  0  0  0  0  0  0  0
   14.4585    3.9423    1.3466 F   0  0  0  0  0  0  0  0  0  0  0  0
   12.6214    2.6782    2.0702 C   0  0  0  0  0  0  0  0  0  0  0  0
   11.2687    2.3144    1.9273 C   0  0  0  0  0  0  0  0  0  0  0  0
   10.6773    1.3686    2.7989 C   0  0  0  0  0  0  0  0  0  0  0  0
    9.3633    1.0271    2.6289 C   0  0  0  0  0  0  0  0  0  0  0  0
    8.4919    0.1134    3.3651 C   0  0  0  0  0  0  0  0  0  0  0  0
    8.8308   -0.5638    4.5111 C   0  0  0  0  0  0  0  0  0  0  0  0
    7.9458   -1.3592    5.2668 C   0  0  0  0  0  0  0  0  0  0  0  0
    7.2852   -2.0063    5.9483 N   0  0  0  0  0  0  0  0  0  0  0  0
   10.1109   -0.5297    5.0974 C   0  0  0  0  0  0  0  0  0  0  0  0
   11.1366   -0.5480    5.6145 N   0  0  0  0  0  0  0  0  0  0  0  0
    4.8183   -0.5016    2.5557 C   0  0  0  0  0  0  0  0  0  0  0  0
    4.2378    0.7660    2.3025 C   0  0  0  0  0  0  0  0  0  0  0  0
    2.9178    0.9289    1.7284 C   0  0  0  0  0  0  0  0  0  0  0  0
    2.5617    2.2125    1.6750 N   0  0  0  0  0  0  0  0  0  0  0  0
    3.7497    3.1144    2.2777 S   0  0  0  0  0  4  0  0  0  0  0  0
    4.7730    1.9336    2.6414 N   0  0  0  0  0  0  0  0  0  0  0  0
    2.1108   -0.1736    1.3540 C   0  0  0  0  0  0  0  0  0  0  0  0
    2.6133   -1.4217    1.8095 C   0  0  0  0  0  0  0  0  0  0  0  0
    1.9727   -2.5832    1.7040 N   0  0  0  0  0  0  0  0  0  0  0  0
    2.9045   -3.7594    2.2968 S   0  0  0  0  0  0  0  0  0  0  0  0
    4.1774   -2.8585    2.6841 N   0  0  0  0  0  0  0  0  0  0  0  0
    3.9218   -1.5847    2.3958 C   0  0  0  0  0  0  0  0  0  0  0  0
    0.8960   -0.1282    0.6367 C   0  0  0  0  0  0  0  0  0  0  0  0
    0.2962    0.8882   -0.1372 C   0  0  0  0  0  0  0  0  0  0  0  0
    0.8162    2.1009   -0.5229 N   0  0  0  0  0  0  0  0  0  0  0  0
   -0.1275    3.1350   -0.6990 C   0  0  0  0  0  0  0  0  0  0  0  0
   -1.0465    3.3947    0.3138 C   0  0  0  0  0  0  0  0  0  0  0  0
   -2.0655    4.3047    0.1216 C   0  0  0  0  0  0  0  0  0  0  0  0
   -2.1800    4.9684   -1.0941 C   0  0  0  0  0  0  0  0  0  0  0  0
   -3.4886    6.0798   -1.4778 S   0  0  0  0  0  0  0  0  0  0  0  0
   -4.7248    5.7302   -0.1944 C   0  0  0  0  0  0  0  0  0  0  0  0
   -1.2193    4.7606   -2.0837 C   0  0  0  0  0  0  0  0  0  0  0  0
   -0.2019    3.8537   -1.8917 C   0  0  0  0  0  0  0  0  0  0  0  0
    2.1441    2.3166   -0.8660 C   0  0  0  0  0  0  0  0  0  0  0  0
    2.6705    3.6138   -0.8313 C   0  0  0  0  0  0  0  0  0  0  0  0
    3.9835    3.8409   -1.1630 C   0  0  0  0  0  0  0  0  0  0  0  0
    4.8131    2.7863   -1.5529 C   0  0  0  0  0  0  0  0  0  0  0  0
    6.4654    3.1974   -1.9606 S   0  0  0  0  0  0  0  0  0  0  0  0
    7.2404    1.6012   -2.3308 C   0  0  0  0  0  0  0  0  0  0  0  0
    4.2886    1.5001   -1.6169 C   0  0  0  0  0  0  0  0  0  0  0  0
    2.9708    1.2721   -1.2837 C   0  0  0  0  0  0  0  0  0  0  0  0
   -0.9867    0.4842   -0.5794 C   0  0  0  0  0  0  0  0  0  0  0  0
   -2.2182    1.2602   -1.5269 S   0  0  0  0  0  0  0  0  0  0  0  0
   -3.1759   -0.2039   -1.5005 C   0  0  0  0  0  0  0  0  0  0  0  0
   -2.6240   -1.1993   -0.6772 C   0  0  0  0  0  0  0  0  0  0  0  0
   -3.2753   -2.3259   -0.2414 N   0  0  0  0  0  0  0  0  0  0  0  0
   -2.5090   -3.4364    0.1443 C   0  0  0  0  0  0  0  0  0  0  0  0
   -2.7968   -4.1216    1.3246 C   0  0  0  0  0  0  0  0  0  0  0  0
   -1.9861   -5.1549    1.7336 C   0  0  0  0  0  0  0  0  0  0  0  0
   -0.8760   -5.5288    0.9749 C   0  0  0  0  0  0  0  0  0  0  0  0
    0.1216   -6.8218    1.6322 S   0  0  0  0  0  0  0  0  0  0  0  0
    1.5458   -6.8869    0.5089 C   0  0  0  0  0  0  0  0  0  0  0  0
   -0.6207   -4.8835   -0.2280 C   0  0  0  0  0  0  0  0  0  0  0  0
   -1.4328   -3.8452   -0.6380 C   0  0  0  0  0  0  0  0  0  0  0  0
   -4.6713   -2.3656   -0.1341 C   0  0  0  0  0  0  0  0  0  0  0  0
   -5.3654   -3.5284   -0.4608 C   0  0  0  0  0  0  0  0  0  0  0  0
   -6.7451   -3.5294   -0.5207 C   0  0  0  0  0  0  0  0  0  0  0  0
   -7.4555   -2.3675   -0.2430 C   0  0  0  0  0  0  0  0  0  0  0  0
   -9.2072   -2.2509   -0.4103 S   0  0  0  0  0  0  0  0  0  0  0  0
   -9.5561   -3.4906   -1.6956 C   0  0  0  0  0  0  0  0  0  0  0  0
   -6.7715   -1.2358    0.1987 C   0  0  0  0  0  0  0  0  0  0  0  0
   -5.3966   -1.2368    0.2553 C   0  0  0  0  0  0  0  0  0  0  0  0
   -1.3517   -0.7997   -0.2080 C   0  0  0  0  0  0  0  0  0  0  0  0
   -0.1039   -1.5793    0.7057 S   0  0  0  0  0  0  0  0  0  0  0  0
   -4.3796   -0.2397   -2.2412 C   0  0  0  0  0  0  0  0  0  0  0  0
   -4.9221   -1.4105   -2.8184 C   0  0  0  0  0  0  0  0  0  0  0  0
   -6.2767   -1.4605   -3.3193 C   0  0  0  0  0  0  0  0  0  0  0  0
   -6.5797   -2.6659   -3.7980 N   0  0  0  0  0  0  0  0  0  0  0  0
   -5.2817   -3.6128   -3.7019 S   0  0  0  0  0  4  0  0  0  0  0  0
   -4.2868   -2.5695   -2.9925 N   0  0  0  0  0  0  0  0  0  0  0  0
   -7.1607   -0.3601   -3.2155 C   0  0  0  0  0  0  0  0  0  0  0  0
   -6.5314    0.8613   -2.8890 C   0  0  0  0  0  0  0  0  0  0  0  0
   -7.0710    2.0753   -2.9681 N   0  0  0  0  0  0  0  0  0  0  0  0
   -6.0014    3.1633   -2.4803 S   0  0  0  0  0  0  0  0  0  0  0  0
   -4.7793    2.1676   -2.1562 N   0  0  0  0  0  0  0  0  0  0  0  0
   -5.1590    0.9216   -2.4361 C   0  0  0  0  0  0  0  0  0  0  0  0
   -8.5452   -0.5483   -3.4256 C   0  0  0  0  0  0  0  0  0  0  0  0
   -9.5605    0.0951   -2.7709 C   0  0  0  0  0  0  0  0  0  0  0  0
   -9.4057    0.8960   -1.5282 C   0  0  0  0  0  0  0  0  0  0  0  0
   -8.3880    1.1658   -0.9257 O   0  0  0  0  0  0  0  0  0  0  0  0
  -10.7806    1.2034   -1.1093 C   0  0  0  0  0  0  0  0  0  0  0  0
  -11.7112    0.6099   -2.0202 C   0  0  0  0  0  0  0  0  0  0  0  0
  -13.0094    0.8331   -1.6844 C   0  0  0  0  0  0  0  0  0  0  0  0
  -13.1278    1.7754   -0.2418 S   0  0  0  0  0  0  0  0  0  0  0  0
  -11.3870    1.8647   -0.0876 C   0  0  0  0  0  0  0  0  0  0  0  0
  -10.6612    2.6969    1.1982 Cl  0  0  0  0  0  0  0  0  0  0  0  0
  -10.9703   -0.0823   -3.0563 C   0  0  0  0  0  0  0  0  0  0  0  0
  -11.5465   -0.7497   -4.1076 C   0  0  0  0  0  0  0  0  0  0  0  0
  -12.9472   -0.8298   -4.2430 C   0  0  0  0  0  0  0  0  0  0  0  0
  -14.0855   -0.9126   -4.3665 N   0  0  0  0  0  0  0  0  0  0  0  0
  -10.8629   -1.4150   -5.1432 C   0  0  0  0  0  0  0  0  0  0  0  0
  -10.3836   -1.9822   -6.0197 N   0  0  0  0  0  0  0  0  0  0  0  0
    6.2998   -1.6105    3.5738 H   0  0  0  0  0  0  0  0  0  0  0  0
    8.5501    2.9863   -0.0528 H   0  0  0  0  0  0  0  0  0  0  0  0
   10.5121    4.3103   -0.7422 H   0  0  0  0  0  0  0  0  0  0  0  0
   12.9032    4.9186   -0.4535 H   0  0  0  0  0  0  0  0  0  0  0  0
   13.2227    2.2357    2.8490 H   0  0  0  0  0  0  0  0  0  0  0  0
   11.2855    0.9346    3.5762 H   0  0  0  0  0  0  0  0  0  0  0  0
   -0.9608    2.8649    1.2508 H   0  0  0  0  0  0  0  0  0  0  0  0
   -2.7653    4.4828    0.9213 H   0  0  0  0  0  0  0  0  0  0  0  0
   -4.3988    6.1265    0.7630 H   0  0  0  0  0  0  0  0  0  0  0  0
   -5.6302    6.2391   -0.5099 H   0  0  0  0  0  0  0  0  0  0  0  0
   -4.8973    4.6594   -0.1448 H   0  0  0  0  0  0  0  0  0  0  0  0
   -1.3018    5.2991   -3.0148 H   0  0  0  0  0  0  0  0  0  0  0  0
    0.5187    3.6688   -2.6738 H   0  0  0  0  0  0  0  0  0  0  0  0
    2.0483    4.4312   -0.5021 H   0  0  0  0  0  0  0  0  0  0  0  0
    4.3917    4.8390   -1.1177 H   0  0  0  0  0  0  0  0  0  0  0  0
    7.1523    0.9651   -1.4546 H   0  0  0  0  0  0  0  0  0  0  0  0
    8.2847    1.8134   -2.5394 H   0  0  0  0  0  0  0  0  0  0  0  0
    6.7740    1.1551   -3.2044 H   0  0  0  0  0  0  0  0  0  0  0  0
    4.8984    0.6663   -1.9211 H   0  0  0  0  0  0  0  0  0  0  0  0
    2.5747    0.2704   -1.3554 H   0  0  0  0  0  0  0  0  0  0  0  0
   -3.6423   -3.8203    1.9247 H   0  0  0  0  0  0  0  0  0  0  0  0
   -2.1886   -5.6753    2.6569 H   0  0  0  0  0  0  0  0  0  0  0  0
    2.0084   -5.9062    0.4477 H   0  0  0  0  0  0  0  0  0  0  0  0
    1.2355   -7.2433   -0.4692 H   0  0  0  0  0  0  0  0  0  0  0  0
    2.2371   -7.5957    0.9541 H   0  0  0  0  0  0  0  0  0  0  0  0
    0.2059   -5.1760   -0.8539 H   0  0  0  0  0  0  0  0  0  0  0  0
   -1.2416   -3.3452   -1.5754 H   0  0  0  0  0  0  0  0  0  0  0  0
   -4.8140   -4.4225   -0.7123 H   0  0  0  0  0  0  0  0  0  0  0  0
   -7.2577   -4.4341   -0.8060 H   0  0  0  0  0  0  0  0  0  0  0  0
  -10.5514   -3.2658   -2.0664 H   0  0  0  0  0  0  0  0  0  0  0  0
   -9.5456   -4.4902   -1.2715 H   0  0  0  0  0  0  0  0  0  0  0  0
   -8.8274   -3.3918   -2.4953 H   0  0  0  0  0  0  0  0  0  0  0  0
   -7.3272   -0.3483    0.4566 H   0  0  0  0  0  0  0  0  0  0  0  0
   -4.8741   -0.3494    0.5791 H   0  0  0  0  0  0  0  0  0  0  0  0
   -8.7936   -1.3588   -4.1006 H   0  0  0  0  0  0  0  0  0  0  0  0
  -13.9066    0.5112   -2.1744 H   0  0  0  0  0  0  0  0  0  0  0  0
  1  2  2  0  0  0  0
  2  3  1  0  0  0  0
  3  4  2  0  0  0  0
  3  5  1  0  0  0  0
  5  6  2  0  0  0  0
  6  7  1  0  0  0  0
  7  8  2  0  0  0  0
  8  9  1  0  0  0  0
  9 10  2  0  0  0  0
 10 11  1  0  0  0  0
 10 12  1  0  0  0  0
 12 13  2  0  0  0  0
 13 14  1  0  0  0  0
 14 15  2  0  0  0  0
 15 16  1  0  0  0  0
 16 17  2  0  0  0  0
 17 18  1  0  0  0  0
 18 19  3  0  0  0  0
 17 20  1  0  0  0  0
 20 21  3  0  0  0  0
  1 22  1  0  0  0  0
 22 23  2  0  0  0  0
 23 24  1  0  0  0  0
 24 25  1  0  0  0  0
 25 26  2  0  0  0  0
 26 27  2  0  0  0  0
 24 28  2  0  0  0  0
 28 29  1  0  0  0  0
 29 30  2  0  0  0  0
 30 31  1  0  0  0  0
 31 32  1  0  0  0  0
 32 33  2  0  0  0  0
 28 34  1  0  0  0  0
 34 35  2  0  0  0  0
 35 36  1  0  0  0  0
 36 37  1  0  0  0  0
 37 38  2  0  0  0  0
 38 39  1  0  0  0  0
 39 40  2  0  0  0  0
 40 41  1  0  0  0  0
 41 42  1  0  0  0  0
 40 43  1  0  0  0  0
 43 44  2  0  0  0  0
 36 45  1  0  0  0  0
 45 46  2  0  0  0  0
 46 47  1  0  0  0  0
 47 48  2  0  0  0  0
 48 49  1  0  0  0  0
 49 50  1  0  0  0  0
 48 51  1  0  0  0  0
 51 52  2  0  0  0  0
 35 53  1  0  0  0  0
 53 54  1  0  0  0  0
 54 55  1  0  0  0  0
 55 56  2  0  0  0  0
 56 57  1  0  0  0  0
 57 58  1  0  0  0  0
 58 59  2  0  0  0  0
 59 60  1  0  0  0  0
 60 61  2  0  0  0  0
 61 62  1  0  0  0  0
 62 63  1  0  0  0  0
 61 64  1  0  0  0  0
 64 65  2  0  0  0  0
 57 66  1  0  0  0  0
 66 67  2  0  0  0  0
 67 68  1  0  0  0  0
 68 69  2  0  0  0  0
 69 70  1  0  0  0  0
 70 71  1  0  0  0  0
 69 72  1  0  0  0  0
 72 73  2  0  0  0  0
 56 74  1  0  0  0  0
 74 75  1  0  0  0  0
 55 76  1  0  0  0  0
 76 77  2  0  0  0  0
 77 78  1  0  0  0  0
 78 79  1  0  0  0  0
 79 80  2  0  0  0  0
 80 81  2  0  0  0  0
 78 82  2  0  0  0  0
 82 83  1  0  0  0  0
 83 84  2  0  0  0  0
 84 85  1  0  0  0  0
 85 86  1  0  0  0  0
 86 87  2  0  0  0  0
 82 88  1  0  0  0  0
 88 89  2  0  0  0  0
 89 90  1  0  0  0  0
 90 91  2  0  0  0  0
 90 92  1  0  0  0  0
 92 93  1  0  0  0  0
 93 94  2  0  0  0  0
 94 95  1  0  0  0  0
 95 96  1  0  0  0  0
 96 97  1  0  0  0  0
 93 98  1  0  0  0  0
 98 99  2  0  0  0  0
 99100  1  0  0  0  0
100101  3  0  0  0  0
 99102  1  0  0  0  0
102103  3  0  0  0  0
 16  2  1  0  0  0  0
 33 22  1  0  0  0  0
 75 34  1  0  0  0  0
 87 76  1  0  0  0  0
 98 89  1  0  0  0  0
 15  5  1  0  0  0  0
 27 23  1  0  0  0  0
 33 29  1  0  0  0  0
 44 37  1  0  0  0  0
 52 45  1  0  0  0  0
 74 53  2  0  0  0  0
 81 77  1  0  0  0  0
 87 83  1  0  0  0  0
 96 92  2  0  0  0  0
 13  7  1  0  0  0  0
 65 58  1  0  0  0  0
 73 66  1  0  0  0  0
  1104  1  0  0  0  0
  6105  1  0  0  0  0
  8106  1  0  0  0  0
  9107  1  0  0  0  0
 12108  1  0  0  0  0
 14109  1  0  0  0  0
 38110  1  0  0  0  0
 39111  1  0  0  0  0
 42112  1  0  0  0  0
 42113  1  0  0  0  0
 42114  1  0  0  0  0
 43115  1  0  0  0  0
 44116  1  0  0  0  0
 46117  1  0  0  0  0
 47118  1  0  0  0  0
 50119  1  0  0  0  0
 50120  1  0  0  0  0
 50121  1  0  0  0  0
 51122  1  0  0  0  0
 52123  1  0  0  0  0
 59124  1  0  0  0  0
 60125  1  0  0  0  0
 63126  1  0  0  0  0
 63127  1  0  0  0  0
 63128  1  0  0  0  0
 64129  1  0  0  0  0
 65130  1  0  0  0  0
 67131  1  0  0  0  0
 68132  1  0  0  0  0
 71133  1  0  0  0  0
 71134  1  0  0  0  0
 71135  1  0  0  0  0
 72136  1  0  0  0  0
 73137  1  0  0  0  0
 88138  1  0  0  0  0
 94139  1  0  0  0  0
M  END
