
  xtb     02122200403D
 energy: -432.451729246225 gnorm: 0.000465212047 xtb: 6.4.1 (unknown)
260283  0     0  0            999 V2000
   -0.9190   -5.8956   -6.2575 C   0  0  0  0  0  0  0  0  0  0  0  0
   -0.0504   -6.0476   -7.3207 C   0  0  0  0  0  0  0  0  0  0  0  0
    1.1197   -5.1860   -7.5480 C   0  0  0  0  0  0  0  0  0  0  0  0
    1.4564   -4.2119   -6.9002 O   0  0  0  0  0  0  0  0  0  0  0  0
    1.8734   -5.8250   -8.6471 C   0  0  0  0  0  0  0  0  0  0  0  0
    3.0344   -5.4239   -9.2369 C   0  0  0  0  0  0  0  0  0  0  0  0
    3.5620   -6.1836  -10.3071 C   0  0  0  0  0  0  0  0  0  0  0  0
    4.7536   -5.8093  -10.9589 C   0  0  0  0  0  0  0  0  0  0  0  0
    5.2545   -6.5501  -11.9939 C   0  0  0  0  0  0  0  0  0  0  0  0
    4.5605   -7.6951  -12.4043 C   0  0  0  0  0  0  0  0  0  0  0  0
    5.0682   -8.4120  -13.4255 F   0  0  0  0  0  0  0  0  0  0  0  0
    3.3998   -8.1022  -11.8070 C   0  0  0  0  0  0  0  0  0  0  0  0
    2.8717   -7.3521  -10.7392 C   0  0  0  0  0  0  0  0  0  0  0  0
    1.6727   -7.7488  -10.0999 C   0  0  0  0  0  0  0  0  0  0  0  0
    1.1830   -6.9954   -9.0698 C   0  0  0  0  0  0  0  0  0  0  0  0
   -0.0217   -7.1315   -8.2580 C   0  0  0  0  0  0  0  0  0  0  0  0
   -1.0376   -8.0349   -8.4667 C   0  0  0  0  0  0  0  0  0  0  0  0
   -2.2691   -7.9959   -7.7866 C   0  0  0  0  0  0  0  0  0  0  0  0
   -3.3186   -7.9888   -7.3171 N   0  0  0  0  0  0  0  0  0  0  0  0
   -1.0105   -9.0479   -9.4417 C   0  0  0  0  0  0  0  0  0  0  0  0
   -1.0586   -9.8919  -10.2202 N   0  0  0  0  0  0  0  0  0  0  0  0
   -1.2170   -4.7011   -5.6007 C   0  0  0  0  0  0  0  0  0  0  0  0
   -1.1537   -3.3559   -6.0258 C   0  0  0  0  0  0  0  0  0  0  0  0
   -0.8384   -2.8996   -7.2794 N   0  0  0  0  0  0  0  0  0  0  0  0
   -1.0970   -3.6528   -8.4289 C   0  0  0  0  0  0  0  0  0  0  0  0
   -2.2538   -4.4236   -8.5303 C   0  0  0  0  0  0  0  0  0  0  0  0
   -2.4743   -5.2287   -9.6282 C   0  0  0  0  0  0  0  0  0  0  0  0
   -1.5351   -5.2830  -10.6533 C   0  0  0  0  0  0  0  0  0  0  0  0
   -1.6554   -6.3414  -12.0530 S   0  0  0  0  0  0  0  0  0  0  0  0
   -3.1984   -7.2577  -11.7896 C   0  0  0  0  0  0  0  0  0  0  0  0
   -0.4066   -4.4662  -10.5851 C   0  0  0  0  0  0  0  0  0  0  0  0
   -0.1892   -3.6590   -9.4912 C   0  0  0  0  0  0  0  0  0  0  0  0
   -0.2073   -1.6474   -7.3968 C   0  0  0  0  0  0  0  0  0  0  0  0
    0.7880   -1.2864   -6.4911 C   0  0  0  0  0  0  0  0  0  0  0  0
    1.4166   -0.0648   -6.6060 C   0  0  0  0  0  0  0  0  0  0  0  0
    1.0616    0.7970   -7.6310 C   0  0  0  0  0  0  0  0  0  0  0  0
    1.9405    2.3406   -7.8228 S   0  0  0  0  0  0  0  0  0  0  0  0
    3.3530    1.6756   -8.7668 C   0  0  0  0  0  0  0  0  0  0  0  0
    0.0678    0.4504   -8.5321 C   0  0  0  0  0  0  0  0  0  0  0  0
   -0.5684   -0.7706   -8.4164 C   0  0  0  0  0  0  0  0  0  0  0  0
   -1.5714   -2.4895   -4.9935 C   0  0  0  0  0  0  0  0  0  0  0  0
   -1.7490   -0.7711   -4.8535 S   0  0  0  0  0  0  0  0  0  0  0  0
   -2.3451   -0.9305   -3.2097 C   0  0  0  0  0  0  0  0  0  0  0  0
   -2.4137   -2.2546   -2.8049 C   0  0  0  0  0  0  0  0  0  0  0  0
   -2.7900   -2.7135   -1.5223 N   0  0  0  0  0  0  0  0  0  0  0  0
   -4.0197   -3.3714   -1.4124 C   0  0  0  0  0  0  0  0  0  0  0  0
   -4.6342   -3.5730   -0.1729 C   0  0  0  0  0  0  0  0  0  0  0  0
   -5.8405   -4.2338   -0.0793 C   0  0  0  0  0  0  0  0  0  0  0  0
   -6.4869   -4.6933   -1.2203 C   0  0  0  0  0  0  0  0  0  0  0  0
   -8.0514   -5.5046   -1.0352 S   0  0  0  0  0  0  0  0  0  0  0  0
   -8.0793   -6.6208   -2.4719 C   0  0  0  0  0  0  0  0  0  0  0  0
   -5.9254   -4.4338   -2.4600 C   0  0  0  0  0  0  0  0  0  0  0  0
   -4.7147   -3.7811   -2.5520 C   0  0  0  0  0  0  0  0  0  0  0  0
   -1.8085   -2.7235   -0.5201 C   0  0  0  0  0  0  0  0  0  0  0  0
   -0.8120   -1.7407   -0.4856 C   0  0  0  0  0  0  0  0  0  0  0  0
    0.0800   -1.6698    0.5615 C   0  0  0  0  0  0  0  0  0  0  0  0
    0.0333   -2.5932    1.6008 C   0  0  0  0  0  0  0  0  0  0  0  0
    1.1465   -2.3169    2.9493 S   0  0  0  0  0  0  0  0  0  0  0  0
    1.1515   -3.8949    3.8461 C   0  0  0  0  0  0  0  0  0  0  0  0
   -0.8725   -3.6413    1.5182 C   0  0  0  0  0  0  0  0  0  0  0  0
   -1.7660   -3.7122    0.4651 C   0  0  0  0  0  0  0  0  0  0  0  0
   -1.9804   -3.1234   -3.8276 C   0  0  0  0  0  0  0  0  0  0  0  0
   -1.8666   -4.8392   -3.9588 S   0  0  0  0  0  0  0  0  0  0  0  0
   -2.4133    0.2522   -2.4111 C   0  0  0  0  0  0  0  0  0  0  0  0
   -3.1161    0.5293   -1.2396 C   0  0  0  0  0  0  0  0  0  0  0  0
   -4.3162   -0.0178   -0.8449 N   0  0  0  0  0  0  0  0  0  0  0  0
   -5.3037   -0.4734   -1.7290 C   0  0  0  0  0  0  0  0  0  0  0  0
   -5.2952   -0.1729   -3.0918 C   0  0  0  0  0  0  0  0  0  0  0  0
   -6.2659   -0.6796   -3.9286 C   0  0  0  0  0  0  0  0  0  0  0  0
   -7.2947   -1.4745   -3.4313 C   0  0  0  0  0  0  0  0  0  0  0  0
   -8.4456   -2.1346   -4.5939 S   0  0  0  0  0  0  0  0  0  0  0  0
   -9.7260   -2.8886   -3.5500 C   0  0  0  0  0  0  0  0  0  0  0  0
   -7.3489   -1.7223   -2.0680 C   0  0  0  0  0  0  0  0  0  0  0  0
   -6.3621   -1.2376   -1.2367 C   0  0  0  0  0  0  0  0  0  0  0  0
   -4.6133   -0.0016    0.5391 C   0  0  0  0  0  0  0  0  0  0  0  0
   -3.7433   -0.5962    1.4454 C   0  0  0  0  0  0  0  0  0  0  0  0
   -4.0380   -0.6197    2.7960 C   0  0  0  0  0  0  0  0  0  0  0  0
   -5.2130   -0.0461    3.2578 C   0  0  0  0  0  0  0  0  0  0  0  0
   -5.7032   -0.0145    4.9532 S   0  0  0  0  0  0  0  0  0  0  0  0
   -4.2450   -0.6297    5.8394 C   0  0  0  0  0  0  0  0  0  0  0  0
   -6.0830    0.5618    2.3520 C   0  0  0  0  0  0  0  0  0  0  0  0
   -5.7832    0.5928    1.0100 C   0  0  0  0  0  0  0  0  0  0  0  0
   -2.4171    1.5045   -0.4751 C   0  0  0  0  0  0  0  0  0  0  0  0
   -2.5380    2.0520    1.1667 S   0  0  0  0  0  0  0  0  0  0  0  0
   -0.9682    2.8318    1.0471 C   0  0  0  0  0  0  0  0  0  0  0  0
   -0.4696    2.7992   -0.2478 C   0  0  0  0  0  0  0  0  0  0  0  0
    0.7017    3.4374   -0.6025 N   0  0  0  0  0  0  0  0  0  0  0  0
    1.0571    4.6351    0.0379 C   0  0  0  0  0  0  0  0  0  0  0  0
    2.3903    4.8895    0.3583 C   0  0  0  0  0  0  0  0  0  0  0  0
    2.7469    6.0804    0.9509 C   0  0  0  0  0  0  0  0  0  0  0  0
    1.7828    7.0434    1.2450 C   0  0  0  0  0  0  0  0  0  0  0  0
    2.3569    8.5435    1.9751 S   0  0  0  0  0  0  0  0  0  0  0  0
    0.8392    9.4611    2.3535 C   0  0  0  0  0  0  0  0  0  0  0  0
    0.4521    6.7833    0.9477 C   0  0  0  0  0  0  0  0  0  0  0  0
    0.0950    5.5917    0.3491 C   0  0  0  0  0  0  0  0  0  0  0  0
    1.5482    2.8898   -1.5756 C   0  0  0  0  0  0  0  0  0  0  0  0
    2.1717    3.7183   -2.5037 C   0  0  0  0  0  0  0  0  0  0  0  0
    3.0121    3.1938   -3.4645 C   0  0  0  0  0  0  0  0  0  0  0  0
    3.2364    1.8251   -3.5156 C   0  0  0  0  0  0  0  0  0  0  0  0
    4.3303    1.0545   -4.6705 S   0  0  0  0  0  0  0  0  0  0  0  0
    5.0187    2.4435   -5.6120 C   0  0  0  0  0  0  0  0  0  0  0  0
    2.6032    0.9896   -2.5988 C   0  0  0  0  0  0  0  0  0  0  0  0
    1.7753    1.5153   -1.6323 C   0  0  0  0  0  0  0  0  0  0  0  0
   -1.2901    2.0256   -1.0969 C   0  0  0  0  0  0  0  0  0  0  0  0
   -1.0831    1.3906   -2.6865 S   0  0  0  0  0  0  0  0  0  0  0  0
   -0.0758    2.9464    2.1709 C   0  0  0  0  0  0  0  0  0  0  0  0
   -0.0651    3.6409    3.3642 C   0  0  0  0  0  0  0  0  0  0  0  0
   -0.9155    4.6796    3.6882 N   0  0  0  0  0  0  0  0  0  0  0  0
   -0.4274    5.7925    4.3804 C   0  0  0  0  0  0  0  0  0  0  0  0
    0.9099    6.1706    4.2745 C   0  0  0  0  0  0  0  0  0  0  0  0
    1.3869    7.2555    4.9816 C   0  0  0  0  0  0  0  0  0  0  0  0
    0.5483    8.0134    5.7890 C   0  0  0  0  0  0  0  0  0  0  0  0
    1.0780    9.1832    6.5604 C   0  0  0  0  0  0  0  0  0  0  0  0
   -0.7884    7.6436    5.8742 C   0  0  0  0  0  0  0  0  0  0  0  0
   -1.2736    6.5466    5.1907 C   0  0  0  0  0  0  0  0  0  0  0  0
   -2.2848    4.5836    3.3773 C   0  0  0  0  0  0  0  0  0  0  0  0
   -2.9295    5.6068    2.6918 C   0  0  0  0  0  0  0  0  0  0  0  0
   -4.2804    5.5134    2.4197 C   0  0  0  0  0  0  0  0  0  0  0  0
   -5.0194    4.4127    2.8363 C   0  0  0  0  0  0  0  0  0  0  0  0
   -6.4819    4.3027    2.5350 C   0  0  0  0  0  0  0  0  0  0  0  0
   -4.3686    3.4012    3.5317 C   0  0  0  0  0  0  0  0  0  0  0  0
   -3.0149    3.4744    3.7921 C   0  0  0  0  0  0  0  0  0  0  0  0
    1.0004    3.2077    4.2032 C   0  0  0  0  0  0  0  0  0  0  0  0
    1.4358    3.5152    5.8518 S   0  0  0  0  0  0  0  0  0  0  0  0
    2.7256    2.3060    5.7527 C   0  0  0  0  0  0  0  0  0  0  0  0
    2.7686    1.6886    4.4783 C   0  0  0  0  0  0  0  0  0  0  0  0
    3.6302    0.7052    4.0640 N   0  0  0  0  0  0  0  0  0  0  0  0
    4.1122    0.8041    2.7429 C   0  0  0  0  0  0  0  0  0  0  0  0
    4.1323   -0.2930    1.8887 C   0  0  0  0  0  0  0  0  0  0  0  0
    4.6314   -0.1591    0.6073 C   0  0  0  0  0  0  0  0  0  0  0  0
    5.1208    1.0577    0.1477 C   0  0  0  0  0  0  0  0  0  0  0  0
    5.7237    1.1914   -1.2151 C   0  0  0  0  0  0  0  0  0  0  0  0
    5.0767    2.1524    1.0040 C   0  0  0  0  0  0  0  0  0  0  0  0
    4.5803    2.0342    2.2853 C   0  0  0  0  0  0  0  0  0  0  0  0
    3.8998   -0.4369    4.8293 C   0  0  0  0  0  0  0  0  0  0  0  0
    5.1182   -1.0998    4.6986 C   0  0  0  0  0  0  0  0  0  0  0  0
    5.3659   -2.2390    5.4367 C   0  0  0  0  0  0  0  0  0  0  0  0
    4.4234   -2.7402    6.3275 C   0  0  0  0  0  0  0  0  0  0  0  0
    4.7223   -3.9652    7.1363 C   0  0  0  0  0  0  0  0  0  0  0  0
    3.2109   -2.0717    6.4500 C   0  0  0  0  0  0  0  0  0  0  0  0
    2.9427   -0.9385    5.7086 C   0  0  0  0  0  0  0  0  0  0  0  0
    1.7987    2.2334    3.6269 C   0  0  0  0  0  0  0  0  0  0  0  0
    1.2709    1.8005    2.0467 S   0  0  0  0  0  0  0  0  0  0  0  0
    3.6672    2.0305    6.7389 C   0  0  0  0  0  0  0  0  0  0  0  0
    3.8063    2.5326    8.0151 C   0  0  0  0  0  0  0  0  0  0  0  0
    2.8705    3.4331    8.6879 C   0  0  0  0  0  0  0  0  0  0  0  0
    1.8679    3.9516    8.2247 O   0  0  0  0  0  0  0  0  0  0  0  0
    3.3651    3.5766   10.0700 C   0  0  0  0  0  0  0  0  0  0  0  0
    2.8397    4.3024   11.0981 C   0  0  0  0  0  0  0  0  0  0  0  0
    3.4878    4.2859   12.3543 C   0  0  0  0  0  0  0  0  0  0  0  0
    2.9902    5.0163   13.4518 C   0  0  0  0  0  0  0  0  0  0  0  0
    3.6256    4.9904   14.6626 C   0  0  0  0  0  0  0  0  0  0  0  0
    4.7886    4.2219   14.8002 C   0  0  0  0  0  0  0  0  0  0  0  0
    5.4007    4.2077   16.0002 F   0  0  0  0  0  0  0  0  0  0  0  0
    5.3138    3.4955   13.7681 C   0  0  0  0  0  0  0  0  0  0  0  0
    4.6724    3.5111   12.5146 C   0  0  0  0  0  0  0  0  0  0  0  0
    5.1947    2.7709   11.4271 C   0  0  0  0  0  0  0  0  0  0  0  0
    4.5507    2.8030   10.2203 C   0  0  0  0  0  0  0  0  0  0  0  0
    4.8534    2.1697    8.9376 C   0  0  0  0  0  0  0  0  0  0  0  0
    5.9621    1.3968    8.6806 C   0  0  0  0  0  0  0  0  0  0  0  0
    6.3361    0.8873    7.4231 C   0  0  0  0  0  0  0  0  0  0  0  0
    6.7375    0.4664    6.4306 N   0  0  0  0  0  0  0  0  0  0  0  0
    6.9136    1.0351    9.6541 C   0  0  0  0  0  0  0  0  0  0  0  0
    7.7166    0.6903   10.4002 N   0  0  0  0  0  0  0  0  0  0  0  0
   -1.3996   -6.7811   -5.8576 H   0  0  0  0  0  0  0  0  0  0  0  0
    3.5439   -4.5333   -8.8998 H   0  0  0  0  0  0  0  0  0  0  0  0
    5.2713   -4.9226  -10.6244 H   0  0  0  0  0  0  0  0  0  0  0  0
    6.1665   -6.2780  -12.5013 H   0  0  0  0  0  0  0  0  0  0  0  0
    2.8903   -8.9889  -12.1503 H   0  0  0  0  0  0  0  0  0  0  0  0
    1.1749   -8.6417  -10.4429 H   0  0  0  0  0  0  0  0  0  0  0  0
   -2.9862   -4.4016   -7.7373 H   0  0  0  0  0  0  0  0  0  0  0  0
   -3.3767   -5.8166   -9.6657 H   0  0  0  0  0  0  0  0  0  0  0  0
   -3.1460   -7.8259  -10.8656 H   0  0  0  0  0  0  0  0  0  0  0  0
   -4.0422   -6.5738  -11.7894 H   0  0  0  0  0  0  0  0  0  0  0  0
   -3.2745   -7.9400  -12.6303 H   0  0  0  0  0  0  0  0  0  0  0  0
    0.3085   -4.4936  -11.3929 H   0  0  0  0  0  0  0  0  0  0  0  0
    0.6963   -3.0443   -9.4386 H   0  0  0  0  0  0  0  0  0  0  0  0
    1.0892   -1.9854   -5.7276 H   0  0  0  0  0  0  0  0  0  0  0  0
    2.1945    0.2118   -5.9122 H   0  0  0  0  0  0  0  0  0  0  0  0
    4.0210    2.5069   -8.9661 H   0  0  0  0  0  0  0  0  0  0  0  0
    3.8540    0.9167   -8.1731 H   0  0  0  0  0  0  0  0  0  0  0  0
    2.9917    1.2538   -9.7000 H   0  0  0  0  0  0  0  0  0  0  0  0
   -0.2059    1.1358   -9.3199 H   0  0  0  0  0  0  0  0  0  0  0  0
   -1.3438   -1.0493   -9.1147 H   0  0  0  0  0  0  0  0  0  0  0  0
   -4.1809   -3.1864    0.7261 H   0  0  0  0  0  0  0  0  0  0  0  0
   -6.2994   -4.3851    0.8860 H   0  0  0  0  0  0  0  0  0  0  0  0
   -8.3104   -6.0741   -3.3818 H   0  0  0  0  0  0  0  0  0  0  0  0
   -8.8624   -7.3454   -2.2722 H   0  0  0  0  0  0  0  0  0  0  0  0
   -7.1186   -7.1192   -2.5532 H   0  0  0  0  0  0  0  0  0  0  0  0
   -6.4238   -4.7296   -3.3693 H   0  0  0  0  0  0  0  0  0  0  0  0
   -4.3338   -3.5733   -3.5371 H   0  0  0  0  0  0  0  0  0  0  0  0
   -0.7250   -1.0215   -1.2803 H   0  0  0  0  0  0  0  0  0  0  0  0
    0.8221   -0.8861    0.5936 H   0  0  0  0  0  0  0  0  0  0  0  0
    0.1948   -4.0556    4.3350 H   0  0  0  0  0  0  0  0  0  0  0  0
    1.3827   -4.7040    3.1600 H   0  0  0  0  0  0  0  0  0  0  0  0
    1.9359   -3.8002    4.5916 H   0  0  0  0  0  0  0  0  0  0  0  0
   -0.8943   -4.4177    2.2669 H   0  0  0  0  0  0  0  0  0  0  0  0
   -2.4352   -4.5563    0.4075 H   0  0  0  0  0  0  0  0  0  0  0  0
   -4.5394    0.4737   -3.5071 H   0  0  0  0  0  0  0  0  0  0  0  0
   -6.2369   -0.4546   -4.9839 H   0  0  0  0  0  0  0  0  0  0  0  0
  -10.1797   -2.1286   -2.9208 H   0  0  0  0  0  0  0  0  0  0  0  0
   -9.3062   -3.6898   -2.9493 H   0  0  0  0  0  0  0  0  0  0  0  0
  -10.4650   -3.2890   -4.2372 H   0  0  0  0  0  0  0  0  0  0  0  0
   -8.1436   -2.3042   -1.6322 H   0  0  0  0  0  0  0  0  0  0  0  0
   -6.4191   -1.4742   -0.1872 H   0  0  0  0  0  0  0  0  0  0  0  0
   -2.8244   -1.0388    1.0929 H   0  0  0  0  0  0  0  0  0  0  0  0
   -3.3415   -1.0934    3.4684 H   0  0  0  0  0  0  0  0  0  0  0  0
   -4.4745   -0.5155    6.8944 H   0  0  0  0  0  0  0  0  0  0  0  0
   -4.0819   -1.6790    5.6104 H   0  0  0  0  0  0  0  0  0  0  0  0
   -3.3783   -0.0284    5.5819 H   0  0  0  0  0  0  0  0  0  0  0  0
   -6.9921    1.0122    2.7198 H   0  0  0  0  0  0  0  0  0  0  0  0
   -6.4557    1.0703    0.3129 H   0  0  0  0  0  0  0  0  0  0  0  0
    3.1377    4.1407    0.1420 H   0  0  0  0  0  0  0  0  0  0  0  0
    3.7783    6.2800    1.1987 H   0  0  0  0  0  0  0  0  0  0  0  0
    0.2156    8.8766    3.0242 H   0  0  0  0  0  0  0  0  0  0  0  0
    0.3172    9.7156    1.4355 H   0  0  0  0  0  0  0  0  0  0  0  0
    1.1650   10.3686    2.8523 H   0  0  0  0  0  0  0  0  0  0  0  0
   -0.3158    7.5077    1.1657 H   0  0  0  0  0  0  0  0  0  0  0  0
   -0.9424    5.4044    0.1141 H   0  0  0  0  0  0  0  0  0  0  0  0
    1.9957    4.7832   -2.4699 H   0  0  0  0  0  0  0  0  0  0  0  0
    3.4738    3.8636   -4.1710 H   0  0  0  0  0  0  0  0  0  0  0  0
    5.7255    2.0034   -6.3088 H   0  0  0  0  0  0  0  0  0  0  0  0
    5.5391    3.1209   -4.9415 H   0  0  0  0  0  0  0  0  0  0  0  0
    4.2251    2.9493   -6.1551 H   0  0  0  0  0  0  0  0  0  0  0  0
    2.7781   -0.0745   -2.6433 H   0  0  0  0  0  0  0  0  0  0  0  0
    1.3153    0.8684   -0.9016 H   0  0  0  0  0  0  0  0  0  0  0  0
    1.5761    5.6206    3.6272 H   0  0  0  0  0  0  0  0  0  0  0  0
    2.4281    7.5271    4.8893 H   0  0  0  0  0  0  0  0  0  0  0  0
    0.3052    9.9340    6.7107 H   0  0  0  0  0  0  0  0  0  0  0  0
    1.9203    9.6381    6.0437 H   0  0  0  0  0  0  0  0  0  0  0  0
    1.4234    8.8540    7.5409 H   0  0  0  0  0  0  0  0  0  0  0  0
   -1.4612    8.2162    6.4967 H   0  0  0  0  0  0  0  0  0  0  0  0
   -2.3116    6.2653    5.2882 H   0  0  0  0  0  0  0  0  0  0  0  0
   -2.3642    6.4733    2.3824 H   0  0  0  0  0  0  0  0  0  0  0  0
   -4.7696    6.3109    1.8788 H   0  0  0  0  0  0  0  0  0  0  0  0
   -7.0138    3.8577    3.3730 H   0  0  0  0  0  0  0  0  0  0  0  0
   -6.6318    3.6628    1.6650 H   0  0  0  0  0  0  0  0  0  0  0  0
   -6.9120    5.2779    2.3200 H   0  0  0  0  0  0  0  0  0  0  0  0
   -4.9338    2.5513    3.8793 H   0  0  0  0  0  0  0  0  0  0  0  0
   -2.5143    2.6849    4.3334 H   0  0  0  0  0  0  0  0  0  0  0  0
    3.7472   -1.2407    2.2325 H   0  0  0  0  0  0  0  0  0  0  0  0
    4.6415   -1.0174   -0.0483 H   0  0  0  0  0  0  0  0  0  0  0  0
    5.4416    2.1394   -1.6689 H   0  0  0  0  0  0  0  0  0  0  0  0
    6.8115    1.1660   -1.1409 H   0  0  0  0  0  0  0  0  0  0  0  0
    5.4094    0.3813   -1.8668 H   0  0  0  0  0  0  0  0  0  0  0  0
    5.4563    3.1067    0.6671 H   0  0  0  0  0  0  0  0  0  0  0  0
    4.5658    2.8891    2.9461 H   0  0  0  0  0  0  0  0  0  0  0  0
    5.8676   -0.7136    4.0266 H   0  0  0  0  0  0  0  0  0  0  0  0
    6.3164   -2.7399    5.3323 H   0  0  0  0  0  0  0  0  0  0  0  0
    5.5042   -3.7500    7.8643 H   0  0  0  0  0  0  0  0  0  0  0  0
    5.0799   -4.7701    6.4960 H   0  0  0  0  0  0  0  0  0  0  0  0
    3.8396   -4.3073    7.6714 H   0  0  0  0  0  0  0  0  0  0  0  0
    2.4595   -2.4470    7.1310 H   0  0  0  0  0  0  0  0  0  0  0  0
    1.9888   -0.4408    5.8015 H   0  0  0  0  0  0  0  0  0  0  0  0
    4.4055    1.2977    6.4368 H   0  0  0  0  0  0  0  0  0  0  0  0
    1.9406    4.8835   10.9560 H   0  0  0  0  0  0  0  0  0  0  0  0
    2.0921    5.6013   13.3209 H   0  0  0  0  0  0  0  0  0  0  0  0
    3.2576    5.5435   15.5122 H   0  0  0  0  0  0  0  0  0  0  0  0
    6.2121    2.9149   13.9099 H   0  0  0  0  0  0  0  0  0  0  0  0
    6.0934    2.1960   11.5818 H   0  0  0  0  0  0  0  0  0  0  0  0
  1  2  2  0  0  0  0
  2  3  1  0  0  0  0
  3  4  2  0  0  0  0
  3  5  1  0  0  0  0
  5  6  2  0  0  0  0
  6  7  1  0  0  0  0
  7  8  2  0  0  0  0
  8  9  1  0  0  0  0
  9 10  2  0  0  0  0
 10 11  1  0  0  0  0
 10 12  1  0  0  0  0
 12 13  2  0  0  0  0
 13 14  1  0  0  0  0
 14 15  2  0  0  0  0
 15 16  1  0  0  0  0
 16 17  2  0  0  0  0
 17 18  1  0  0  0  0
 18 19  3  0  0  0  0
 17 20  1  0  0  0  0
 20 21  3  0  0  0  0
  1 22  1  0  0  0  0
 22 23  2  0  0  0  0
 23 24  1  0  0  0  0
 24 25  1  0  0  0  0
 25 26  2  0  0  0  0
 26 27  1  0  0  0  0
 27 28  2  0  0  0  0
 28 29  1  0  0  0  0
 29 30  1  0  0  0  0
 28 31  1  0  0  0  0
 31 32  2  0  0  0  0
 24 33  1  0  0  0  0
 33 34  2  0  0  0  0
 34 35  1  0  0  0  0
 35 36  2  0  0  0  0
 36 37  1  0  0  0  0
 37 38  1  0  0  0  0
 36 39  1  0  0  0  0
 39 40  2  0  0  0  0
 23 41  1  0  0  0  0
 41 42  1  0  0  0  0
 42 43  1  0  0  0  0
 43 44  2  0  0  0  0
 44 45  1  0  0  0  0
 45 46  1  0  0  0  0
 46 47  2  0  0  0  0
 47 48  1  0  0  0  0
 48 49  2  0  0  0  0
 49 50  1  0  0  0  0
 50 51  1  0  0  0  0
 49 52  1  0  0  0  0
 52 53  2  0  0  0  0
 45 54  1  0  0  0  0
 54 55  2  0  0  0  0
 55 56  1  0  0  0  0
 56 57  2  0  0  0  0
 57 58  1  0  0  0  0
 58 59  1  0  0  0  0
 57 60  1  0  0  0  0
 60 61  2  0  0  0  0
 44 62  1  0  0  0  0
 62 63  1  0  0  0  0
 43 64  1  0  0  0  0
 64 65  2  0  0  0  0
 65 66  1  0  0  0  0
 66 67  1  0  0  0  0
 67 68  2  0  0  0  0
 68 69  1  0  0  0  0
 69 70  2  0  0  0  0
 70 71  1  0  0  0  0
 71 72  1  0  0  0  0
 70 73  1  0  0  0  0
 73 74  2  0  0  0  0
 66 75  1  0  0  0  0
 75 76  2  0  0  0  0
 76 77  1  0  0  0  0
 77 78  2  0  0  0  0
 78 79  1  0  0  0  0
 79 80  1  0  0  0  0
 78 81  1  0  0  0  0
 81 82  2  0  0  0  0
 65 83  1  0  0  0  0
 83 84  1  0  0  0  0
 84 85  1  0  0  0  0
 85 86  2  0  0  0  0
 86 87  1  0  0  0  0
 87 88  1  0  0  0  0
 88 89  2  0  0  0  0
 89 90  1  0  0  0  0
 90 91  2  0  0  0  0
 91 92  1  0  0  0  0
 92 93  1  0  0  0  0
 91 94  1  0  0  0  0
 94 95  2  0  0  0  0
 87 96  1  0  0  0  0
 96 97  2  0  0  0  0
 97 98  1  0  0  0  0
 98 99  2  0  0  0  0
 99100  1  0  0  0  0
100101  1  0  0  0  0
 99102  1  0  0  0  0
102103  2  0  0  0  0
 86104  1  0  0  0  0
104105  1  0  0  0  0
 85106  1  0  0  0  0
106107  2  0  0  0  0
107108  1  0  0  0  0
108109  1  0  0  0  0
109110  2  0  0  0  0
110111  1  0  0  0  0
111112  2  0  0  0  0
112113  1  0  0  0  0
112114  1  0  0  0  0
114115  2  0  0  0  0
108116  1  0  0  0  0
116117  2  0  0  0  0
117118  1  0  0  0  0
118119  2  0  0  0  0
119120  1  0  0  0  0
119121  1  0  0  0  0
121122  2  0  0  0  0
107123  1  0  0  0  0
123124  1  0  0  0  0
124125  1  0  0  0  0
125126  2  0  0  0  0
126127  1  0  0  0  0
127128  1  0  0  0  0
128129  2  0  0  0  0
129130  1  0  0  0  0
130131  2  0  0  0  0
131132  1  0  0  0  0
131133  1  0  0  0  0
133134  2  0  0  0  0
127135  1  0  0  0  0
135136  2  0  0  0  0
136137  1  0  0  0  0
137138  2  0  0  0  0
138139  1  0  0  0  0
138140  1  0  0  0  0
140141  2  0  0  0  0
126142  1  0  0  0  0
142143  1  0  0  0  0
125144  1  0  0  0  0
144145  2  0  0  0  0
145146  1  0  0  0  0
146147  2  0  0  0  0
146148  1  0  0  0  0
148149  2  0  0  0  0
149150  1  0  0  0  0
150151  2  0  0  0  0
151152  1  0  0  0  0
152153  2  0  0  0  0
153154  1  0  0  0  0
153155  1  0  0  0  0
155156  2  0  0  0  0
156157  1  0  0  0  0
157158  2  0  0  0  0
158159  1  0  0  0  0
159160  2  0  0  0  0
160161  1  0  0  0  0
161162  3  0  0  0  0
160163  1  0  0  0  0
163164  3  0  0  0  0
 16  2  1  0  0  0  0
 63 22  1  0  0  0  0
105 64  1  0  0  0  0
143106  1  0  0  0  0
159145  1  0  0  0  0
 15  5  1  0  0  0  0
 32 25  1  0  0  0  0
 40 33  1  0  0  0  0
 62 41  2  0  0  0  0
 74 67  1  0  0  0  0
 82 75  1  0  0  0  0
104 83  2  0  0  0  0
115109  1  0  0  0  0
122116  1  0  0  0  0
142123  2  0  0  0  0
158148  1  0  0  0  0
 13  7  1  0  0  0  0
 53 46  1  0  0  0  0
 61 54  1  0  0  0  0
 95 88  1  0  0  0  0
103 96  1  0  0  0  0
134128  1  0  0  0  0
141135  1  0  0  0  0
156150  1  0  0  0  0
  1165  1  0  0  0  0
  6166  1  0  0  0  0
  8167  1  0  0  0  0
  9168  1  0  0  0  0
 12169  1  0  0  0  0
 14170  1  0  0  0  0
 26171  1  0  0  0  0
 27172  1  0  0  0  0
 30173  1  0  0  0  0
 30174  1  0  0  0  0
 30175  1  0  0  0  0
 31176  1  0  0  0  0
 32177  1  0  0  0  0
 34178  1  0  0  0  0
 35179  1  0  0  0  0
 38180  1  0  0  0  0
 38181  1  0  0  0  0
 38182  1  0  0  0  0
 39183  1  0  0  0  0
 40184  1  0  0  0  0
 47185  1  0  0  0  0
 48186  1  0  0  0  0
 51187  1  0  0  0  0
 51188  1  0  0  0  0
 51189  1  0  0  0  0
 52190  1  0  0  0  0
 53191  1  0  0  0  0
 55192  1  0  0  0  0
 56193  1  0  0  0  0
 59194  1  0  0  0  0
 59195  1  0  0  0  0
 59196  1  0  0  0  0
 60197  1  0  0  0  0
 61198  1  0  0  0  0
 68199  1  0  0  0  0
 69200  1  0  0  0  0
 72201  1  0  0  0  0
 72202  1  0  0  0  0
 72203  1  0  0  0  0
 73204  1  0  0  0  0
 74205  1  0  0  0  0
 76206  1  0  0  0  0
 77207  1  0  0  0  0
 80208  1  0  0  0  0
 80209  1  0  0  0  0
 80210  1  0  0  0  0
 81211  1  0  0  0  0
 82212  1  0  0  0  0
 89213  1  0  0  0  0
 90214  1  0  0  0  0
 93215  1  0  0  0  0
 93216  1  0  0  0  0
 93217  1  0  0  0  0
 94218  1  0  0  0  0
 95219  1  0  0  0  0
 97220  1  0  0  0  0
 98221  1  0  0  0  0
101222  1  0  0  0  0
101223  1  0  0  0  0
101224  1  0  0  0  0
102225  1  0  0  0  0
103226  1  0  0  0  0
110227  1  0  0  0  0
111228  1  0  0  0  0
113229  1  0  0  0  0
113230  1  0  0  0  0
113231  1  0  0  0  0
114232  1  0  0  0  0
115233  1  0  0  0  0
117234  1  0  0  0  0
118235  1  0  0  0  0
120236  1  0  0  0  0
120237  1  0  0  0  0
120238  1  0  0  0  0
121239  1  0  0  0  0
122240  1  0  0  0  0
129241  1  0  0  0  0
130242  1  0  0  0  0
132243  1  0  0  0  0
132244  1  0  0  0  0
132245  1  0  0  0  0
133246  1  0  0  0  0
134247  1  0  0  0  0
136248  1  0  0  0  0
137249  1  0  0  0  0
139250  1  0  0  0  0
139251  1  0  0  0  0
139252  1  0  0  0  0
140253  1  0  0  0  0
141254  1  0  0  0  0
144255  1  0  0  0  0
149256  1  0  0  0  0
151257  1  0  0  0  0
152258  1  0  0  0  0
155259  1  0  0  0  0
157260  1  0  0  0  0
M  END
