
  xtb     02112203423D
 energy: -317.107321003912 gnorm: 0.000636625505 xtb: 6.4.1 (unknown)
191209  0     0  0            999 V2000
  -11.6684    0.9816    3.6440 C   0  0  0  0  0  0  0  0  0  0  0  0
  -12.1316    0.0208    4.4839 C   0  0  0  0  0  0  0  0  0  0  0  0
  -11.7704   -1.4246    4.4109 C   0  0  0  0  0  0  0  0  0  0  0  0
  -10.8881   -1.9443    3.7664 O   0  0  0  0  0  0  0  0  0  0  0  0
  -12.7883   -2.1193    5.2223 C   0  0  0  0  0  0  0  0  0  0  0  0
  -12.9326   -3.4612    5.4282 C   0  0  0  0  0  0  0  0  0  0  0  0
  -13.9890   -3.9231    6.2436 C   0  0  0  0  0  0  0  0  0  0  0  0
  -14.1809   -5.2976    6.4927 C   0  0  0  0  0  0  0  0  0  0  0  0
  -15.2102   -5.7336    7.2796 C   0  0  0  0  0  0  0  0  0  0  0  0
  -16.0802   -4.7896    7.8428 C   0  0  0  0  0  0  0  0  0  0  0  0
  -17.0868   -5.2378    8.6142 F   0  0  0  0  0  0  0  0  0  0  0  0
  -15.9391   -3.4459    7.6343 C   0  0  0  0  0  0  0  0  0  0  0  0
  -14.8842   -2.9784    6.8261 C   0  0  0  0  0  0  0  0  0  0  0  0
  -14.7106   -1.5944    6.5941 C   0  0  0  0  0  0  0  0  0  0  0  0
  -13.6733   -1.1696    5.8061 C   0  0  0  0  0  0  0  0  0  0  0  0
  -13.2447    0.1647    5.4083 C   0  0  0  0  0  0  0  0  0  0  0  0
  -13.7286    1.3480    5.8990 C   0  0  0  0  0  0  0  0  0  0  0  0
  -13.1883    2.6148    5.5909 C   0  0  0  0  0  0  0  0  0  0  0  0
  -12.7752    3.6700    5.4060 N   0  0  0  0  0  0  0  0  0  0  0  0
  -14.7968    1.4438    6.8150 C   0  0  0  0  0  0  0  0  0  0  0  0
  -15.6665    1.5789    7.5516 N   0  0  0  0  0  0  0  0  0  0  0  0
  -10.5079    0.8858    2.7962 C   0  0  0  0  0  0  0  0  0  0  0  0
   -9.3334    0.2486    3.2319 C   0  0  0  0  0  0  0  0  0  0  0  0
   -8.2503    0.2197    2.3889 C   0  0  0  0  0  0  0  0  0  0  0  0
   -6.8844   -0.3125    2.6390 C   0  0  0  0  0  0  0  0  0  0  0  0
   -6.4581   -0.8091    3.6548 O   0  0  0  0  0  0  0  0  0  0  0  0
   -6.1488   -0.0397    1.3774 C   0  0  0  0  0  0  0  0  0  0  0  0
   -7.0105    0.5917    0.4575 C   0  0  0  0  0  0  0  0  0  0  0  0
   -8.3040    0.7786    1.0948 C   0  0  0  0  0  0  0  0  0  0  0  0
   -9.4509    1.4262    0.6706 C   0  0  0  0  0  0  0  0  0  0  0  0
  -10.5295    1.4962    1.5354 C   0  0  0  0  0  0  0  0  0  0  0  0
   -6.5472    0.9263   -0.8008 C   0  0  0  0  0  0  0  0  0  0  0  0
   -5.2084    0.7161   -1.0929 C   0  0  0  0  0  0  0  0  0  0  0  0
   -4.3261    0.1907   -0.1476 C   0  0  0  0  0  0  0  0  0  0  0  0
   -4.8246   -0.2555    1.0884 C   0  0  0  0  0  0  0  0  0  0  0  0
   -2.9007    0.1786   -0.3958 C   0  0  0  0  0  0  0  0  0  0  0  0
   -1.8952    0.5540    0.4811 C   0  0  0  0  0  0  0  0  0  0  0  0
   -2.0792    1.0736    1.7521 N   0  0  0  0  0  0  0  0  0  0  0  0
   -3.2366    1.7976    2.0767 C   0  0  0  0  0  0  0  0  0  0  0  0
   -3.8616    1.6081    3.3063 C   0  0  0  0  0  0  0  0  0  0  0  0
   -5.0693    2.2161    3.5879 C   0  0  0  0  0  0  0  0  0  0  0  0
   -5.6795    3.0203    2.6359 C   0  0  0  0  0  0  0  0  0  0  0  0
   -7.2821    3.7391    2.8185 S   0  0  0  0  0  0  0  0  0  0  0  0
   -7.8070    3.2362    4.4800 C   0  0  0  0  0  0  0  0  0  0  0  0
   -5.0190    3.2768    1.4350 C   0  0  0  0  0  0  0  0  0  0  0  0
   -3.8078    2.6846    1.1623 C   0  0  0  0  0  0  0  0  0  0  0  0
   -1.1087    0.8389    2.7368 C   0  0  0  0  0  0  0  0  0  0  0  0
   -0.4633   -0.3910    2.8231 C   0  0  0  0  0  0  0  0  0  0  0  0
    0.5178   -0.6088    3.7716 C   0  0  0  0  0  0  0  0  0  0  0  0
    0.8628    0.4016    4.6571 C   0  0  0  0  0  0  0  0  0  0  0  0
    2.1024    0.2423    5.9039 S   0  0  0  0  0  0  0  0  0  0  0  0
    2.9522   -1.3023    5.4691 C   0  0  0  0  0  0  0  0  0  0  0  0
    0.1979    1.6255    4.5933 C   0  0  0  0  0  0  0  0  0  0  0  0
   -0.7734    1.8447    3.6442 C   0  0  0  0  0  0  0  0  0  0  0  0
   -0.6206    0.4123   -0.1284 C   0  0  0  0  0  0  0  0  0  0  0  0
    1.0083    0.6913    0.3862 S   0  0  0  0  0  0  0  0  0  0  0  0
    1.6181    0.1703   -1.1776 C   0  0  0  0  0  0  0  0  0  0  0  0
    0.5993   -0.1349   -2.0656 C   0  0  0  0  0  0  0  0  0  0  0  0
    0.7741   -0.4589   -3.4060 N   0  0  0  0  0  0  0  0  0  0  0  0
   -0.0809   -1.4228   -3.9571 C   0  0  0  0  0  0  0  0  0  0  0  0
   -0.6517   -1.2562   -5.2195 C   0  0  0  0  0  0  0  0  0  0  0  0
   -1.5199   -2.2013   -5.7159 C   0  0  0  0  0  0  0  0  0  0  0  0
   -1.8478   -3.3295   -4.9657 C   0  0  0  0  0  0  0  0  0  0  0  0
   -2.9834   -4.4622   -5.7048 S   0  0  0  0  0  0  0  0  0  0  0  0
   -3.3760   -5.6201   -4.3626 C   0  0  0  0  0  0  0  0  0  0  0  0
   -1.2755   -3.5051   -3.7141 C   0  0  0  0  0  0  0  0  0  0  0  0
   -0.3985   -2.5599   -3.2187 C   0  0  0  0  0  0  0  0  0  0  0  0
    1.6222    0.3068   -4.2124 C   0  0  0  0  0  0  0  0  0  0  0  0
    1.8767    1.6439   -3.9180 C   0  0  0  0  0  0  0  0  0  0  0  0
    2.6983    2.4031   -4.7267 C   0  0  0  0  0  0  0  0  0  0  0  0
    3.2814    1.8393   -5.8522 C   0  0  0  0  0  0  0  0  0  0  0  0
    4.2958    2.7456   -6.9821 S   0  0  0  0  0  0  0  0  0  0  0  0
    4.7747    4.2202   -6.0369 C   0  0  0  0  0  0  0  0  0  0  0  0
    3.0426    0.4991   -6.1464 C   0  0  0  0  0  0  0  0  0  0  0  0
    2.2316   -0.2602   -5.3333 C   0  0  0  0  0  0  0  0  0  0  0  0
   -0.6671   -0.0168   -1.4446 C   0  0  0  0  0  0  0  0  0  0  0  0
   -2.2906   -0.2517   -1.9852 S   0  0  0  0  0  0  0  0  0  0  0  0
    3.0230    0.0282   -1.3758 C   0  0  0  0  0  0  0  0  0  0  0  0
    4.1490    0.9625   -0.4128 S   0  0  0  0  0  0  0  0  0  0  0  0
    5.4657    0.1331   -1.1378 C   0  0  0  0  0  0  0  0  0  0  0  0
    6.8935    0.1183   -1.0000 C   0  0  0  0  0  0  0  0  0  0  0  0
    7.3740   -0.9023   -1.8483 C   0  0  0  0  0  0  0  0  0  0  0  0
    6.2366   -1.5718   -2.5985 C   0  0  0  0  0  0  0  0  0  0  0  0
    6.0157   -3.0262   -2.2282 C   0  0  0  0  0  0  0  0  0  0  0  0
    6.5996   -3.5985   -1.1078 C   0  0  0  0  0  0  0  0  0  0  0  0
    6.3363   -4.9162   -0.7776 C   0  0  0  0  0  0  0  0  0  0  0  0
    5.4809   -5.6903   -1.5488 C   0  0  0  0  0  0  0  0  0  0  0  0
    5.1641   -7.1066   -1.1624 C   0  0  0  0  0  0  0  0  0  0  0  0
    3.9487   -7.1476   -0.2338 C   0  0  0  0  0  0  0  0  0  0  0  0
    4.8853   -5.1067   -2.6605 C   0  0  0  0  0  0  0  0  0  0  0  0
    5.1465   -3.7929   -2.9961 C   0  0  0  0  0  0  0  0  0  0  0  0
    6.5074   -1.3942   -4.0798 C   0  0  0  0  0  0  0  0  0  0  0  0
    6.1112   -0.2409   -4.7413 C   0  0  0  0  0  0  0  0  0  0  0  0
    6.4277   -0.0570   -6.0742 C   0  0  0  0  0  0  0  0  0  0  0  0
    7.1382   -1.0178   -6.7801 C   0  0  0  0  0  0  0  0  0  0  0  0
    7.5048   -0.7945   -8.2190 C   0  0  0  0  0  0  0  0  0  0  0  0
    8.8708   -0.1135   -8.3233 C   0  0  0  0  0  0  0  0  0  0  0  0
    7.5417   -2.1655   -6.1107 C   0  0  0  0  0  0  0  0  0  0  0  0
    7.2379   -2.3497   -4.7753 C   0  0  0  0  0  0  0  0  0  0  0  0
    5.0533   -0.7958   -2.0732 C   0  0  0  0  0  0  0  0  0  0  0  0
    3.6666   -0.8579   -2.2160 C   0  0  0  0  0  0  0  0  0  0  0  0
    8.7265   -1.1631   -1.9185 C   0  0  0  0  0  0  0  0  0  0  0  0
    9.5911   -0.4158   -1.1378 C   0  0  0  0  0  0  0  0  0  0  0  0
    9.1272    0.6251   -0.3196 C   0  0  0  0  0  0  0  0  0  0  0  0
    7.7554    0.8824   -0.2376 C   0  0  0  0  0  0  0  0  0  0  0  0
   10.0958    1.3667    0.4518 C   0  0  0  0  0  0  0  0  0  0  0  0
   10.0780    2.6876    0.7541 C   0  0  0  0  0  0  0  0  0  0  0  0
    9.2264    3.7280    0.1037 C   0  0  0  0  0  0  0  0  0  0  0  0
    8.2884    3.5715   -0.6453 O   0  0  0  0  0  0  0  0  0  0  0  0
    9.8226    5.0164    0.4991 C   0  0  0  0  0  0  0  0  0  0  0  0
    9.4492    6.2927    0.1196 C   0  0  0  0  0  0  0  0  0  0  0  0
   10.1683    7.3646    0.6197 C   0  0  0  0  0  0  0  0  0  0  0  0
   11.2501    7.1749    1.4803 C   0  0  0  0  0  0  0  0  0  0  0  0
   12.0180    8.3559    1.9822 C   0  0  0  0  0  0  0  0  0  0  0  0
   11.6216    5.8863    1.8559 C   0  0  0  0  0  0  0  0  0  0  0  0
   10.9065    4.8043    1.3680 C   0  0  0  0  0  0  0  0  0  0  0  0
   11.0579    3.3712    1.5889 C   0  0  0  0  0  0  0  0  0  0  0  0
   11.9106    2.7835    2.4822 C   0  0  0  0  0  0  0  0  0  0  0  0
   11.9785    1.3989    2.7514 C   0  0  0  0  0  0  0  0  0  0  0  0
   12.0837    0.2933    3.0429 N   0  0  0  0  0  0  0  0  0  0  0  0
   12.8255    3.4938    3.2891 C   0  0  0  0  0  0  0  0  0  0  0  0
   13.5951    4.0113    3.9654 N   0  0  0  0  0  0  0  0  0  0  0  0
  -12.2312    1.9042    3.5568 H   0  0  0  0  0  0  0  0  0  0  0  0
  -12.2460   -4.1606    4.9752 H   0  0  0  0  0  0  0  0  0  0  0  0
  -13.4973   -6.0050    6.0479 H   0  0  0  0  0  0  0  0  0  0  0  0
  -15.3717   -6.7811    7.4791 H   0  0  0  0  0  0  0  0  0  0  0  0
  -16.6268   -2.7481    8.0858 H   0  0  0  0  0  0  0  0  0  0  0  0
  -15.4079   -0.9042    7.0414 H   0  0  0  0  0  0  0  0  0  0  0  0
   -9.2646   -0.1722    4.2225 H   0  0  0  0  0  0  0  0  0  0  0  0
   -9.5021    1.8859   -0.3043 H   0  0  0  0  0  0  0  0  0  0  0  0
  -11.4278    2.0100    1.2240 H   0  0  0  0  0  0  0  0  0  0  0  0
   -7.1996    1.3731   -1.5353 H   0  0  0  0  0  0  0  0  0  0  0  0
   -4.8184    1.0087   -2.0573 H   0  0  0  0  0  0  0  0  0  0  0  0
   -4.1812   -0.7498    1.7996 H   0  0  0  0  0  0  0  0  0  0  0  0
   -3.4169    0.9506    4.0380 H   0  0  0  0  0  0  0  0  0  0  0  0
   -5.5335    2.0247    4.5411 H   0  0  0  0  0  0  0  0  0  0  0  0
   -7.8234    2.1527    4.5513 H   0  0  0  0  0  0  0  0  0  0  0  0
   -8.8121    3.6292    4.6010 H   0  0  0  0  0  0  0  0  0  0  0  0
   -7.1468    3.6733    5.2236 H   0  0  0  0  0  0  0  0  0  0  0  0
   -5.4769    3.9397    0.7171 H   0  0  0  0  0  0  0  0  0  0  0  0
   -3.3070    2.8858    0.2273 H   0  0  0  0  0  0  0  0  0  0  0  0
   -0.7352   -1.1879    2.1462 H   0  0  0  0  0  0  0  0  0  0  0  0
    0.9965   -1.5738    3.8110 H   0  0  0  0  0  0  0  0  0  0  0  0
    3.8115   -1.3599    6.1300 H   0  0  0  0  0  0  0  0  0  0  0  0
    3.2816   -1.2587    4.4352 H   0  0  0  0  0  0  0  0  0  0  0  0
    2.2994   -2.1532    5.6423 H   0  0  0  0  0  0  0  0  0  0  0  0
    0.4651    2.4042    5.2909 H   0  0  0  0  0  0  0  0  0  0  0  0
   -1.2754    2.7990    3.5889 H   0  0  0  0  0  0  0  0  0  0  0  0
   -0.4216   -0.3752   -5.7992 H   0  0  0  0  0  0  0  0  0  0  0  0
   -1.9692   -2.0704   -6.6882 H   0  0  0  0  0  0  0  0  0  0  0  0
   -4.1616   -6.2613   -4.7501 H   0  0  0  0  0  0  0  0  0  0  0  0
   -3.7390   -5.0709   -3.4990 H   0  0  0  0  0  0  0  0  0  0  0  0
   -2.5040   -6.2183   -4.1144 H   0  0  0  0  0  0  0  0  0  0  0  0
   -1.4975   -4.3730   -3.1145 H   0  0  0  0  0  0  0  0  0  0  0  0
    0.0482   -2.7031   -2.2451 H   0  0  0  0  0  0  0  0  0  0  0  0
    1.4131    2.1040   -3.0585 H   0  0  0  0  0  0  0  0  0  0  0  0
    2.8598    3.4390   -4.4747 H   0  0  0  0  0  0  0  0  0  0  0  0
    5.5512    4.7044   -6.6211 H   0  0  0  0  0  0  0  0  0  0  0  0
    5.1696    3.9210   -5.0706 H   0  0  0  0  0  0  0  0  0  0  0  0
    3.9274    4.8913   -5.9281 H   0  0  0  0  0  0  0  0  0  0  0  0
    3.5052    0.0577   -7.0154 H   0  0  0  0  0  0  0  0  0  0  0  0
    2.0606   -1.3006   -5.5663 H   0  0  0  0  0  0  0  0  0  0  0  0
    7.2671   -3.0167   -0.4891 H   0  0  0  0  0  0  0  0  0  0  0  0
    6.8071   -5.3490    0.0938 H   0  0  0  0  0  0  0  0  0  0  0  0
    6.0207   -7.5524   -0.6531 H   0  0  0  0  0  0  0  0  0  0  0  0
    4.9533   -7.6962   -2.0570 H   0  0  0  0  0  0  0  0  0  0  0  0
    3.7164   -8.1728    0.0452 H   0  0  0  0  0  0  0  0  0  0  0  0
    4.1455   -6.5769    0.6711 H   0  0  0  0  0  0  0  0  0  0  0  0
    3.0810   -6.7161   -0.7280 H   0  0  0  0  0  0  0  0  0  0  0  0
    4.2120   -5.6901   -3.2728 H   0  0  0  0  0  0  0  0  0  0  0  0
    4.6840   -3.3576   -3.8705 H   0  0  0  0  0  0  0  0  0  0  0  0
    5.5501    0.5161   -4.2122 H   0  0  0  0  0  0  0  0  0  0  0  0
    6.1168    0.8455   -6.5782 H   0  0  0  0  0  0  0  0  0  0  0  0
    6.7526   -0.1637   -8.6968 H   0  0  0  0  0  0  0  0  0  0  0  0
    7.5379   -1.7503   -8.7463 H   0  0  0  0  0  0  0  0  0  0  0  0
    8.8521    0.8479   -7.8149 H   0  0  0  0  0  0  0  0  0  0  0  0
    9.1368    0.0490   -9.3652 H   0  0  0  0  0  0  0  0  0  0  0  0
    9.6384   -0.7302   -7.8605 H   0  0  0  0  0  0  0  0  0  0  0  0
    8.1015   -2.9244   -6.6393 H   0  0  0  0  0  0  0  0  0  0  0  0
    7.5615   -3.2499   -4.2723 H   0  0  0  0  0  0  0  0  0  0  0  0
    3.1456   -1.5396   -2.8614 H   0  0  0  0  0  0  0  0  0  0  0  0
    9.1048   -1.9441   -2.5608 H   0  0  0  0  0  0  0  0  0  0  0  0
   10.6522   -0.6148   -1.1772 H   0  0  0  0  0  0  0  0  0  0  0  0
    7.3711    1.6386    0.4266 H   0  0  0  0  0  0  0  0  0  0  0  0
   10.9507    0.7855    0.7790 H   0  0  0  0  0  0  0  0  0  0  0  0
    8.6129    6.4345   -0.5475 H   0  0  0  0  0  0  0  0  0  0  0  0
    9.8920    8.3713    0.3415 H   0  0  0  0  0  0  0  0  0  0  0  0
   12.6391    8.7607    1.1829 H   0  0  0  0  0  0  0  0  0  0  0  0
   11.3418    9.1441    2.3072 H   0  0  0  0  0  0  0  0  0  0  0  0
   12.6644    8.0785    2.8104 H   0  0  0  0  0  0  0  0  0  0  0  0
   12.4631    5.7483    2.5157 H   0  0  0  0  0  0  0  0  0  0  0  0
  1  2  2  0  0  0  0
  2  3  1  0  0  0  0
  3  4  2  0  0  0  0
  3  5  1  0  0  0  0
  5  6  2  0  0  0  0
  6  7  1  0  0  0  0
  7  8  2  0  0  0  0
  8  9  1  0  0  0  0
  9 10  2  0  0  0  0
 10 11  1  0  0  0  0
 10 12  1  0  0  0  0
 12 13  2  0  0  0  0
 13 14  1  0  0  0  0
 14 15  2  0  0  0  0
 15 16  1  0  0  0  0
 16 17  2  0  0  0  0
 17 18  1  0  0  0  0
 18 19  3  0  0  0  0
 17 20  1  0  0  0  0
 20 21  3  0  0  0  0
  1 22  1  0  0  0  0
 22 23  2  0  0  0  0
 23 24  1  0  0  0  0
 24 25  1  0  0  0  0
 25 26  2  0  0  0  0
 25 27  1  0  0  0  0
 27 28  2  0  0  0  0
 28 29  1  0  0  0  0
 29 30  1  0  0  0  0
 30 31  2  0  0  0  0
 28 32  1  0  0  0  0
 32 33  2  0  0  0  0
 33 34  1  0  0  0  0
 34 35  2  0  0  0  0
 34 36  1  0  0  0  0
 36 37  2  0  0  0  0
 37 38  1  0  0  0  0
 38 39  1  0  0  0  0
 39 40  2  0  0  0  0
 40 41  1  0  0  0  0
 41 42  2  0  0  0  0
 42 43  1  0  0  0  0
 43 44  1  0  0  0  0
 42 45  1  0  0  0  0
 45 46  2  0  0  0  0
 38 47  1  0  0  0  0
 47 48  2  0  0  0  0
 48 49  1  0  0  0  0
 49 50  2  0  0  0  0
 50 51  1  0  0  0  0
 51 52  1  0  0  0  0
 50 53  1  0  0  0  0
 53 54  2  0  0  0  0
 37 55  1  0  0  0  0
 55 56  1  0  0  0  0
 56 57  1  0  0  0  0
 57 58  2  0  0  0  0
 58 59  1  0  0  0  0
 59 60  1  0  0  0  0
 60 61  2  0  0  0  0
 61 62  1  0  0  0  0
 62 63  2  0  0  0  0
 63 64  1  0  0  0  0
 64 65  1  0  0  0  0
 63 66  1  0  0  0  0
 66 67  2  0  0  0  0
 59 68  1  0  0  0  0
 68 69  2  0  0  0  0
 69 70  1  0  0  0  0
 70 71  2  0  0  0  0
 71 72  1  0  0  0  0
 72 73  1  0  0  0  0
 71 74  1  0  0  0  0
 74 75  2  0  0  0  0
 58 76  1  0  0  0  0
 76 77  1  0  0  0  0
 57 78  1  0  0  0  0
 78 79  1  0  0  0  0
 79 80  1  0  0  0  0
 80 81  1  0  0  0  0
 81 82  2  0  0  0  0
 82 83  1  0  0  0  0
 83 84  1  0  0  0  0
 84 85  2  0  0  0  0
 85 86  1  0  0  0  0
 86 87  2  0  0  0  0
 87 88  1  0  0  0  0
 88 89  1  0  0  0  0
 87 90  1  0  0  0  0
 90 91  2  0  0  0  0
 83 92  1  0  0  0  0
 92 93  2  0  0  0  0
 93 94  1  0  0  0  0
 94 95  2  0  0  0  0
 95 96  1  0  0  0  0
 96 97  1  0  0  0  0
 95 98  1  0  0  0  0
 98 99  2  0  0  0  0
 83100  1  0  0  0  0
100101  1  0  0  0  0
 82102  1  0  0  0  0
102103  2  0  0  0  0
103104  1  0  0  0  0
104105  2  0  0  0  0
104106  1  0  0  0  0
106107  2  0  0  0  0
107108  1  0  0  0  0
108109  2  0  0  0  0
108110  1  0  0  0  0
110111  2  0  0  0  0
111112  1  0  0  0  0
112113  2  0  0  0  0
113114  1  0  0  0  0
113115  1  0  0  0  0
115116  2  0  0  0  0
116117  1  0  0  0  0
117118  2  0  0  0  0
118119  1  0  0  0  0
119120  3  0  0  0  0
118121  1  0  0  0  0
121122  3  0  0  0  0
 16  2  1  0  0  0  0
 31 22  1  0  0  0  0
 77 36  1  0  0  0  0
101 78  2  0  0  0  0
117107  1  0  0  0  0
 15  5  1  0  0  0  0
 29 24  2  0  0  0  0
 46 39  1  0  0  0  0
 54 47  1  0  0  0  0
 76 55  2  0  0  0  0
100 80  2  0  0  0  0
116110  1  0  0  0  0
 13  7  1  0  0  0  0
 35 27  1  0  0  0  0
 67 60  1  0  0  0  0
 75 68  1  0  0  0  0
105 81  1  0  0  0  0
 91 84  1  0  0  0  0
 99 92  1  0  0  0  0
  1123  1  0  0  0  0
  6124  1  0  0  0  0
  8125  1  0  0  0  0
  9126  1  0  0  0  0
 12127  1  0  0  0  0
 14128  1  0  0  0  0
 23129  1  0  0  0  0
 30130  1  0  0  0  0
 31131  1  0  0  0  0
 32132  1  0  0  0  0
 33133  1  0  0  0  0
 35134  1  0  0  0  0
 40135  1  0  0  0  0
 41136  1  0  0  0  0
 44137  1  0  0  0  0
 44138  1  0  0  0  0
 44139  1  0  0  0  0
 45140  1  0  0  0  0
 46141  1  0  0  0  0
 48142  1  0  0  0  0
 49143  1  0  0  0  0
 52144  1  0  0  0  0
 52145  1  0  0  0  0
 52146  1  0  0  0  0
 53147  1  0  0  0  0
 54148  1  0  0  0  0
 61149  1  0  0  0  0
 62150  1  0  0  0  0
 65151  1  0  0  0  0
 65152  1  0  0  0  0
 65153  1  0  0  0  0
 66154  1  0  0  0  0
 67155  1  0  0  0  0
 69156  1  0  0  0  0
 70157  1  0  0  0  0
 73158  1  0  0  0  0
 73159  1  0  0  0  0
 73160  1  0  0  0  0
 74161  1  0  0  0  0
 75162  1  0  0  0  0
 85163  1  0  0  0  0
 86164  1  0  0  0  0
 88165  1  0  0  0  0
 88166  1  0  0  0  0
 89167  1  0  0  0  0
 89168  1  0  0  0  0
 89169  1  0  0  0  0
 90170  1  0  0  0  0
 91171  1  0  0  0  0
 93172  1  0  0  0  0
 94173  1  0  0  0  0
 96174  1  0  0  0  0
 96175  1  0  0  0  0
 97176  1  0  0  0  0
 97177  1  0  0  0  0
 97178  1  0  0  0  0
 98179  1  0  0  0  0
 99180  1  0  0  0  0
101181  1  0  0  0  0
102182  1  0  0  0  0
103183  1  0  0  0  0
105184  1  0  0  0  0
106185  1  0  0  0  0
111186  1  0  0  0  0
112187  1  0  0  0  0
114188  1  0  0  0  0
114189  1  0  0  0  0
114190  1  0  0  0  0
115191  1  0  0  0  0
M  END
