204

C         -4.64310       -0.15790        8.15080
C         -4.33540        1.05500        7.61850
C         -3.54830        1.26500        6.37110
O         -2.93740        0.44930        5.71210
C         -3.73040        2.68100        6.01820
C         -3.21890        3.35350        4.94540
C         -3.53650        4.71730        4.77220
C         -3.04560        5.45280        3.67360
C         -3.38190        6.76680        3.50430
C         -4.21810        7.38020        4.44740
F         -4.53860        8.67330        4.26010
C         -4.71300        6.71500        5.53480
C         -4.38350        5.35840        5.72330
C         -4.88340        4.63970        6.83500
C         -4.55870        3.31640        6.98440
C         -4.91090        2.33580        8.00520
C         -5.60710        2.59750        9.15480
C         -5.88750        1.65370       10.16570
N         -6.14730        0.94660       11.03240
C         -6.12590        3.86570        9.49200
N         -6.57660        4.86950        9.81810
C         -4.04740       -1.39780        7.72240
C         -2.67890       -1.48170        7.41440
C         -2.23000       -2.58290        6.73260
C         -0.89990       -2.79670        6.11590
O          0.12930       -2.19430        6.31770
C         -1.13990       -3.88470        5.13660
C         -2.43860       -4.40810        5.31130
C         -3.10980       -3.61190        6.32700
C         -4.41370       -3.61310        6.78920
C         -4.86670       -2.51010        7.49790
C         -2.91170       -5.35930        4.42500
C         -2.17390       -5.62810        3.27990
C         -0.95410       -4.99390        3.03480
C         -0.38040       -4.19840        4.04020
C         -0.39550       -4.85630        1.70420
C         -1.10600       -4.42330        0.59990
N         -2.49630       -4.34370        0.49360
C         -3.22020       -3.64320        1.46870
C         -2.64890       -2.58690        2.18230
C         -3.37930       -1.91100        3.13350
C         -4.70640       -2.25590        3.38090
S         -5.56570       -1.25830        4.55750
C         -7.19500       -2.05410        4.69240
C         -5.27920       -3.30950        2.68200
C         -4.53840       -3.99920        1.74220
C         -3.03030       -4.57020       -0.78100
C         -4.05960       -3.79070       -1.30100
C         -4.53220       -4.00820       -2.58070
C         -3.97780       -5.00580       -3.36990
S         -4.47670       -5.35330       -5.02950
C         -5.85100       -4.20850       -5.33000
C         -2.95240       -5.79480       -2.85220
C         -2.48850       -5.58440       -1.57450
C         -0.25220       -3.83580       -0.36430
S         -0.58990       -2.84300       -1.73540
C          1.04860       -2.19270       -1.68010
C          1.82790       -2.81860       -0.72560
N          3.12920       -2.45670       -0.42350
C          4.06630       -2.17870       -1.42010
C          5.09640       -1.26760       -1.17600
C          6.05850       -1.02980       -2.13150
C          6.01850       -1.69300       -3.35630
S          7.30390       -1.32470       -4.50900
C          6.69010       -2.01140       -6.07190
C          4.99640       -2.59800       -3.60260
C          4.02450       -2.83080       -2.64970
C          3.49850       -2.42010        0.93470
C          4.69500       -2.99210        1.36530
C          5.01770       -2.99420        2.70320
C          4.15110       -2.43650        3.64350
S          4.64710       -2.53230        5.33180
C          3.40570       -1.54770        6.21800
C          2.96460       -1.85580        3.21650
C          2.64730       -1.84100        1.87160
C          1.07770       -3.77540        0.00960
S          1.33560       -4.60260        1.50970
C          1.25620       -0.81690       -2.08290
C          1.67780       -0.16340       -3.21880
N          2.04520       -0.77460       -4.40060
C          3.02730       -0.16380       -5.19800
C          4.10950        0.47790       -4.59990
C          5.05680        1.11550       -5.37490
C          4.96310        1.12060       -6.76090
C          5.98300        1.83760       -7.58920
C          3.88900        0.46510       -7.35050
C          2.92680       -0.16540       -6.58590
C          1.35550       -1.91260       -4.84680
C          2.02420       -2.91870       -5.54080
C          1.34660       -4.04240       -5.96540
C         -0.01280       -4.20370       -5.71530
C         -0.72620       -5.43700       -6.17530
C         -0.67840       -3.18800       -5.04460
C         -0.01090       -2.05330       -4.62230
C          1.67270        1.24980       -3.02390
S          2.08460        2.59240       -4.02760
C          1.60400        3.71840       -2.74480
C          1.06540        3.03710       -1.61720
N          0.49830        3.59690       -0.51440
C         -0.19280        4.82430       -0.49030
C         -0.11670        5.61280        0.65350
C         -0.81390        6.80320        0.72120
C         -1.60290        7.23270       -0.33780
C         -2.36770        8.51770       -0.25850
C         -1.68520        6.42740       -1.47040
C         -0.99680        5.23450       -1.55160
C          0.36650        2.79820        0.65330
C         -0.89940        2.48140        1.13400
C         -1.03080        1.66290        2.23820
C          0.08690        1.17080        2.90460
C         -0.06960        0.26030        4.08000
C          1.34690        1.52400        2.43300
C          1.49290        2.32170        1.31390
C          1.18780        1.64650       -1.78620
S          0.77280        0.29360       -0.79910
C          1.83940        5.08580       -2.76010
C          2.38250        5.90090       -3.73420
C          2.79990        5.49570       -5.06910
O          2.81360        4.37790       -5.54980
C          3.17760        6.74580       -5.77150
C          3.57650        6.90830       -7.08460
Cl         3.87940        5.56590       -8.09350
C          3.72270        8.21310       -7.57590
Cl         4.25350        8.46760       -9.18180
C          3.38870        9.29970       -6.77110
Cl         3.46600       10.87900       -7.42560
C          2.97690        9.12530       -5.43890
Cl         2.40520       10.49820       -4.58380
C          2.95250        7.84050       -4.91260
C          2.63380        7.31570       -3.58330
C          2.75250        7.99260       -2.39260
C          2.47190        7.45010       -1.12160
N          2.27020        7.10290       -0.04400
C          3.35090        9.25770       -2.21370
N          3.90790       10.22300       -1.93710
H         -5.45160       -0.22870        8.86770
H         -2.57600        2.85530        4.23590
H         -2.40000        4.96000        2.96150
H         -3.02280        7.34070        2.66530
H         -5.35120        7.22220        6.24140
H         -5.51880        5.15560        7.53690
H         -1.99790       -0.69210        7.68910
H         -5.08570       -4.42580        6.55640
H         -5.90200       -2.46240        7.80400
H         -3.87530       -5.82470        4.56620
H         -2.57560       -6.29630        2.53310
H          0.58660       -3.74050        3.89080
H         -1.63270       -2.28680        1.97440
H         -2.94110       -1.09820        3.69200
H         -7.71860       -2.00050        3.74260
H         -7.73780       -1.48510        5.44060
H         -7.07850       -3.08200        5.02190
H         -6.30080       -3.60590        2.85670
H         -4.98800       -4.82010        1.20320
H         -4.48020       -2.99260       -0.70810
H         -5.32300       -3.37710       -2.95320
H         -5.50080       -3.18180       -5.27590
H         -6.64960       -4.39310       -4.61750
H         -6.19630       -4.42660       -6.33580
H         -2.52750       -6.57470       -3.46490
H         -1.69570       -6.20280       -1.18070
H          5.13420       -0.74910       -0.22950
H          6.85150       -0.32270       -1.94250
H          5.69580       -1.62280       -6.27220
H          6.69920       -3.09720       -6.03780
H          7.38060       -1.66480       -6.83450
H          4.95860       -3.14760       -4.52860
H          3.23620       -3.54010       -2.85550
H          5.36200       -3.43890        0.64340
H          5.93940       -3.44210        3.04120
H          2.42010       -1.99670        6.13730
H          3.72410       -1.55330        7.25600
H          3.41160       -0.52940        5.83990
H          2.27890       -1.41920        3.92310
H          1.72750       -1.37730        1.54170
H          4.20650        0.47020       -3.52450
H          5.88720        1.61040       -4.89400
H          6.97530        1.73520       -7.15460
H          5.99900        1.45750       -8.60800
H          5.74140        2.90000       -7.62680
H          3.79380        0.45920       -8.42690
H          2.08760       -0.65200       -7.06110
H          3.07720       -2.80840       -5.74790
H          1.88300       -4.81580       -6.49690
H         -0.25070       -6.32640       -5.76420
H         -0.68740       -5.51410       -7.26120
H         -1.76840       -5.42330       -5.86730
H         -1.73590       -3.28230       -4.84520
H         -0.55390       -1.26560       -4.11990
H          0.50480        5.29840        1.47720
H         -0.72060        7.41490        1.60600
H         -1.91000        9.19900        0.45520
H         -3.39360        8.32610        0.06100
H         -2.41030        9.00320       -1.23080
H         -2.30330        6.73870       -2.29990
H         -1.07300        4.61940       -2.43630
H         -1.77260        2.85890        0.62120
H         -2.01730        1.38080        2.57790
H         -1.00730        0.43680        4.60050
H         -0.07460       -0.77830        3.74630
H          0.74840        0.38210        4.78590
H          2.22840        1.16060        2.94000
H          2.47460        2.57790        0.94400
H          1.54610        5.59110       -1.84960
