
  xtb     02102223483D
 energy: -290.415382202404 gnorm: 0.000261901978 xtb: 6.4.1 (unknown)
164181  0     0  0            999 V2000
    4.4560   -3.9600    9.6166 C   0  0  0  0  0  0  0  0  0  0  0  0
    3.6764   -5.0463    9.8462 C   0  0  0  0  0  0  0  0  0  0  0  0
    2.9456   -5.8090    8.7907 C   0  0  0  0  0  0  0  0  0  0  0  0
    2.8741   -5.5631    7.6079 O   0  0  0  0  0  0  0  0  0  0  0  0
    2.4080   -7.0020    9.4683 C   0  0  0  0  0  0  0  0  0  0  0  0
    1.6630   -8.0127    8.9316 C   0  0  0  0  0  0  0  0  0  0  0  0
    1.2381   -9.0711    9.7635 C   0  0  0  0  0  0  0  0  0  0  0  0
    0.4591  -10.1353    9.2645 C   0  0  0  0  0  0  0  0  0  0  0  0
    0.0555  -11.1550   10.0805 C   0  0  0  0  0  0  0  0  0  0  0  0
    0.4278  -11.1301   11.4320 C   0  0  0  0  0  0  0  0  0  0  0  0
    0.0210  -12.1423   12.2188 F   0  0  0  0  0  0  0  0  0  0  0  0
    1.1814  -10.1228   11.9669 C   0  0  0  0  0  0  0  0  0  0  0  0
    1.6060   -9.0633   11.1409 C   0  0  0  0  0  0  0  0  0  0  0  0
    2.3841   -8.0061   11.6663 C   0  0  0  0  0  0  0  0  0  0  0  0
    2.7784   -6.9844   10.8419 C   0  0  0  0  0  0  0  0  0  0  0  0
    3.5624   -5.7814   11.0982 C   0  0  0  0  0  0  0  0  0  0  0  0
    4.0503   -5.3956   12.3178 C   0  0  0  0  0  0  0  0  0  0  0  0
    4.7738   -4.2110   12.5733 C   0  0  0  0  0  0  0  0  0  0  0  0
    5.3645   -3.2709   12.8660 N   0  0  0  0  0  0  0  0  0  0  0  0
    3.8896   -6.1405   13.5060 C   0  0  0  0  0  0  0  0  0  0  0  0
    3.8011   -6.7005   14.5040 N   0  0  0  0  0  0  0  0  0  0  0  0
    4.4766   -3.1788    8.4036 C   0  0  0  0  0  0  0  0  0  0  0  0
    3.2965   -2.8875    7.6988 C   0  0  0  0  0  0  0  0  0  0  0  0
    3.3871   -2.1656    6.5361 C   0  0  0  0  0  0  0  0  0  0  0  0
    2.3002   -1.7389    5.6164 C   0  0  0  0  0  0  0  0  0  0  0  0
    1.1118   -1.9121    5.7360 O   0  0  0  0  0  0  0  0  0  0  0  0
    3.0091   -1.0240    4.5229 C   0  0  0  0  0  0  0  0  0  0  0  0
    4.3948   -1.0187    4.7802 C   0  0  0  0  0  0  0  0  0  0  0  0
    4.6283   -1.7214    6.0340 C   0  0  0  0  0  0  0  0  0  0  0  0
    5.7865   -1.9649    6.7505 C   0  0  0  0  0  0  0  0  0  0  0  0
    5.6957   -2.6734    7.9379 C   0  0  0  0  0  0  0  0  0  0  0  0
    5.2568   -0.4135    3.8845 C   0  0  0  0  0  0  0  0  0  0  0  0
    4.7231    0.2401    2.7829 C   0  0  0  0  0  0  0  0  0  0  0  0
    3.3469    0.3002    2.5648 C   0  0  0  0  0  0  0  0  0  0  0  0
    2.4804   -0.3962    3.4243 C   0  0  0  0  0  0  0  0  0  0  0  0
    2.7883    1.1015    1.4969 C   0  0  0  0  0  0  0  0  0  0  0  0
    1.6731    1.9210    1.5598 C   0  0  0  0  0  0  0  0  0  0  0  0
    0.9485    2.2252    2.6986 N   0  0  0  0  0  0  0  0  0  0  0  0
   -0.4265    2.4937    2.5867 C   0  0  0  0  0  0  0  0  0  0  0  0
   -0.9958    3.5180    3.3362 C   0  0  0  0  0  0  0  0  0  0  0  0
   -2.3415    3.8067    3.2273 C   0  0  0  0  0  0  0  0  0  0  0  0
   -3.1414    3.0765    2.3574 C   0  0  0  0  0  0  0  0  0  0  0  0
   -4.8654    3.3606    2.1186 S   0  0  0  0  0  0  0  0  0  0  0  0
   -5.2159    4.8192    3.1407 C   0  0  0  0  0  0  0  0  0  0  0  0
   -2.5778    2.0391    1.6170 C   0  0  0  0  0  0  0  0  0  0  0  0
   -1.2375    1.7451    1.7337 C   0  0  0  0  0  0  0  0  0  0  0  0
    1.5308    2.1581    3.9727 C   0  0  0  0  0  0  0  0  0  0  0  0
    2.8329    2.6009    4.1898 C   0  0  0  0  0  0  0  0  0  0  0  0
    3.4584    2.3834    5.4013 C   0  0  0  0  0  0  0  0  0  0  0  0
    2.7839    1.7296    6.4238 C   0  0  0  0  0  0  0  0  0  0  0  0
    3.5196    1.2807    7.9652 S   0  0  0  0  0  0  0  0  0  0  0  0
    5.2930    1.5509    7.6833 C   0  0  0  0  0  0  0  0  0  0  0  0
    1.4465    1.3823    6.2468 C   0  0  0  0  0  0  0  0  0  0  0  0
    0.8257    1.5930    5.0371 C   0  0  0  0  0  0  0  0  0  0  0  0
    1.3871    2.4712    0.2808 C   0  0  0  0  0  0  0  0  0  0  0  0
    0.1026    3.4330   -0.3629 S   0  0  0  0  0  0  0  0  0  0  0  0
    0.7770    3.3032   -1.9778 C   0  0  0  0  0  0  0  0  0  0  0  0
    1.9359    2.5477   -2.0088 C   0  0  0  0  0  0  0  0  0  0  0  0
    2.6351    2.1662   -3.1476 N   0  0  0  0  0  0  0  0  0  0  0  0
    1.9496    1.8246   -4.3198 C   0  0  0  0  0  0  0  0  0  0  0  0
    0.7237    1.1652   -4.2619 C   0  0  0  0  0  0  0  0  0  0  0  0
   -0.0129    0.9342   -5.4060 C   0  0  0  0  0  0  0  0  0  0  0  0
    0.4775    1.3375   -6.6408 C   0  0  0  0  0  0  0  0  0  0  0  0
   -0.3996    1.1583   -8.1610 S   0  0  0  0  0  0  0  0  0  0  0  0
   -1.8930    0.2389   -7.7102 C   0  0  0  0  0  0  0  0  0  0  0  0
    1.7333    1.9380   -6.7119 C   0  0  0  0  0  0  0  0  0  0  0  0
    2.4591    2.1842   -5.5687 C   0  0  0  0  0  0  0  0  0  0  0  0
    4.0302    2.0851   -3.0772 C   0  0  0  0  0  0  0  0  0  0  0  0
    4.7232    1.0879   -3.7579 C   0  0  0  0  0  0  0  0  0  0  0  0
    6.0984    0.9984   -3.6707 C   0  0  0  0  0  0  0  0  0  0  0  0
    6.8077    1.9022   -2.8911 C   0  0  0  0  0  0  0  0  0  0  0  0
    8.5614    1.8790   -2.6851 S   0  0  0  0  0  0  0  0  0  0  0  0
    9.1114    0.5082   -3.7396 C   0  0  0  0  0  0  0  0  0  0  0  0
    6.1195    2.9049   -2.2115 C   0  0  0  0  0  0  0  0  0  0  0  0
    4.7498    3.0004   -2.3065 C   0  0  0  0  0  0  0  0  0  0  0  0
    2.2801    2.0971   -0.7083 C   0  0  0  0  0  0  0  0  0  0  0  0
    3.5387    1.0894   -0.0894 S   0  0  0  0  0  0  0  0  0  0  0  0
   -0.0000    3.7494   -3.1162 C   0  0  0  0  0  0  0  0  0  0  0  0
   -1.3747    3.4742   -3.1404 C   0  0  0  0  0  0  0  0  0  0  0  0
   -2.0494    3.6076   -4.3285 C   0  0  0  0  0  0  0  0  0  0  0  0
   -3.4475    3.2208   -4.6490 C   0  0  0  0  0  0  0  0  0  0  0  0
   -4.3093    2.8475   -3.8907 O   0  0  0  0  0  0  0  0  0  0  0  0
   -3.5332    3.3721   -6.1266 C   0  0  0  0  0  0  0  0  0  0  0  0
   -2.3162    3.8915   -6.6187 C   0  0  0  0  0  0  0  0  0  0  0  0
   -1.3988    4.0469   -5.4999 C   0  0  0  0  0  0  0  0  0  0  0  0
   -0.0805    4.4598   -5.4383 C   0  0  0  0  0  0  0  0  0  0  0  0
    0.6091    4.3044   -4.2459 C   0  0  0  0  0  0  0  0  0  0  0  0
   -2.1592    4.1019   -7.9773 C   0  0  0  0  0  0  0  0  0  0  0  0
   -3.2003    3.7608   -8.8265 C   0  0  0  0  0  0  0  0  0  0  0  0
   -4.3836    3.1829   -8.3504 C   0  0  0  0  0  0  0  0  0  0  0  0
   -4.5600    3.0207   -6.9649 C   0  0  0  0  0  0  0  0  0  0  0  0
   -5.4170    2.7965   -9.2785 C   0  0  0  0  0  0  0  0  0  0  0  0
   -6.2213    1.7087   -9.1558 C   0  0  0  0  0  0  0  0  0  0  0  0
   -5.9537    0.5481   -8.2579 C   0  0  0  0  0  0  0  0  0  0  0  0
   -5.0256    0.3954   -7.4932 O   0  0  0  0  0  0  0  0  0  0  0  0
   -6.9928   -0.4455   -8.5739 C   0  0  0  0  0  0  0  0  0  0  0  0
   -7.1886   -1.6718   -8.0057 C   0  0  0  0  0  0  0  0  0  0  0  0
   -8.2652   -2.4707   -8.4473 C   0  0  0  0  0  0  0  0  0  0  0  0
   -8.5239   -3.7375   -7.8845 C   0  0  0  0  0  0  0  0  0  0  0  0
   -9.5706   -4.5007   -8.3208 C   0  0  0  0  0  0  0  0  0  0  0  0
  -10.3911   -4.0054   -9.3439 C   0  0  0  0  0  0  0  0  0  0  0  0
  -11.4154   -4.7711   -9.7597 F   0  0  0  0  0  0  0  0  0  0  0  0
  -10.1848   -2.7846   -9.9237 C   0  0  0  0  0  0  0  0  0  0  0  0
   -9.1122   -1.9832   -9.4855 C   0  0  0  0  0  0  0  0  0  0  0  0
   -8.8789   -0.7125  -10.0604 C   0  0  0  0  0  0  0  0  0  0  0  0
   -7.8353    0.0517   -9.6070 C   0  0  0  0  0  0  0  0  0  0  0  0
   -7.3733    1.3830   -9.9844 C   0  0  0  0  0  0  0  0  0  0  0  0
   -7.9723    2.2001  -10.9053 C   0  0  0  0  0  0  0  0  0  0  0  0
   -7.5593    3.5106  -11.2275 C   0  0  0  0  0  0  0  0  0  0  0  0
   -7.2939    4.5833  -11.5395 N   0  0  0  0  0  0  0  0  0  0  0  0
   -9.1088    1.8403  -11.6611 C   0  0  0  0  0  0  0  0  0  0  0  0
  -10.0270    1.6073  -12.3092 N   0  0  0  0  0  0  0  0  0  0  0  0
    5.1575   -3.6500   10.3816 H   0  0  0  0  0  0  0  0  0  0  0  0
    1.3978   -7.9989    7.8850 H   0  0  0  0  0  0  0  0  0  0  0  0
    0.1849  -10.1315    8.2203 H   0  0  0  0  0  0  0  0  0  0  0  0
   -0.5401  -11.9766    9.7154 H   0  0  0  0  0  0  0  0  0  0  0  0
    1.4481  -10.1362   13.0121 H   0  0  0  0  0  0  0  0  0  0  0  0
    2.6499   -8.0342   12.7106 H   0  0  0  0  0  0  0  0  0  0  0  0
    2.3333   -3.1943    8.0724 H   0  0  0  0  0  0  0  0  0  0  0  0
    6.7458   -1.6148    6.3985 H   0  0  0  0  0  0  0  0  0  0  0  0
    6.5932   -2.8777    8.5044 H   0  0  0  0  0  0  0  0  0  0  0  0
    6.3254   -0.4256    4.0412 H   0  0  0  0  0  0  0  0  0  0  0  0
    5.3804    0.7457    2.0898 H   0  0  0  0  0  0  0  0  0  0  0  0
    1.4209   -0.4405    3.2272 H   0  0  0  0  0  0  0  0  0  0  0  0
   -0.3745    4.0915    4.0083 H   0  0  0  0  0  0  0  0  0  0  0  0
   -2.7499    4.6080    3.8212 H   0  0  0  0  0  0  0  0  0  0  0  0
   -5.0494    4.5911    4.1896 H   0  0  0  0  0  0  0  0  0  0  0  0
   -6.2650    5.0442    2.9760 H   0  0  0  0  0  0  0  0  0  0  0  0
   -4.6043    5.6554    2.8145 H   0  0  0  0  0  0  0  0  0  0  0  0
   -3.2076    1.4660    0.9542 H   0  0  0  0  0  0  0  0  0  0  0  0
   -0.8120    0.9287    1.1687 H   0  0  0  0  0  0  0  0  0  0  0  0
    3.3703    3.0942    3.3936 H   0  0  0  0  0  0  0  0  0  0  0  0
    4.4738    2.7214    5.5307 H   0  0  0  0  0  0  0  0  0  0  0  0
    5.5968    1.0417    6.7738 H   0  0  0  0  0  0  0  0  0  0  0  0
    5.5095    2.6142    7.6341 H   0  0  0  0  0  0  0  0  0  0  0  0
    5.7947    1.1134    8.5408 H   0  0  0  0  0  0  0  0  0  0  0  0
    0.9133    0.9074    7.0554 H   0  0  0  0  0  0  0  0  0  0  0  0
   -0.1967    1.2775    4.8962 H   0  0  0  0  0  0  0  0  0  0  0  0
    0.3334    0.8464   -3.3069 H   0  0  0  0  0  0  0  0  0  0  0  0
   -0.9695    0.4448   -5.3199 H   0  0  0  0  0  0  0  0  0  0  0  0
   -2.4287    0.0747   -8.6397 H   0  0  0  0  0  0  0  0  0  0  0  0
   -2.5159    0.8204   -7.0381 H   0  0  0  0  0  0  0  0  0  0  0  0
   -1.6191   -0.7162   -7.2723 H   0  0  0  0  0  0  0  0  0  0  0  0
    2.1201    2.2287   -7.6765 H   0  0  0  0  0  0  0  0  0  0  0  0
    3.4182    2.6765   -5.6320 H   0  0  0  0  0  0  0  0  0  0  0  0
    4.1771    0.3721   -4.3540 H   0  0  0  0  0  0  0  0  0  0  0  0
    6.6008    0.2102   -4.2076 H   0  0  0  0  0  0  0  0  0  0  0  0
   10.1931    0.4872   -3.6492 H   0  0  0  0  0  0  0  0  0  0  0  0
    8.6938   -0.4284   -3.3816 H   0  0  0  0  0  0  0  0  0  0  0  0
    8.8316    0.6984   -4.7716 H   0  0  0  0  0  0  0  0  0  0  0  0
    6.6758    3.6112   -1.6144 H   0  0  0  0  0  0  0  0  0  0  0  0
    4.2274    3.7899   -1.7866 H   0  0  0  0  0  0  0  0  0  0  0  0
   -1.8758    3.0936   -2.2625 H   0  0  0  0  0  0  0  0  0  0  0  0
    0.4218    4.8542   -6.3081 H   0  0  0  0  0  0  0  0  0  0  0  0
    1.6479    4.5931   -4.1910 H   0  0  0  0  0  0  0  0  0  0  0  0
   -1.2416    4.5058   -8.3758 H   0  0  0  0  0  0  0  0  0  0  0  0
   -3.0826    3.9001   -9.8914 H   0  0  0  0  0  0  0  0  0  0  0  0
   -5.4858    2.6451   -6.5599 H   0  0  0  0  0  0  0  0  0  0  0  0
   -5.5296    3.4353  -10.1457 H   0  0  0  0  0  0  0  0  0  0  0  0
   -6.5333   -2.0217   -7.2221 H   0  0  0  0  0  0  0  0  0  0  0  0
   -7.8781   -4.0965   -7.0974 H   0  0  0  0  0  0  0  0  0  0  0  0
   -9.7833   -5.4711   -7.9009 H   0  0  0  0  0  0  0  0  0  0  0  0
  -10.8382   -2.4350  -10.7078 H   0  0  0  0  0  0  0  0  0  0  0  0
   -9.5354   -0.3766  -10.8466 H   0  0  0  0  0  0  0  0  0  0  0  0
  1  2  2  0  0  0  0
  2  3  1  0  0  0  0
  3  4  2  0  0  0  0
  3  5  1  0  0  0  0
  5  6  2  0  0  0  0
  6  7  1  0  0  0  0
  7  8  2  0  0  0  0
  8  9  1  0  0  0  0
  9 10  2  0  0  0  0
 10 11  1  0  0  0  0
 10 12  1  0  0  0  0
 12 13  2  0  0  0  0
 13 14  1  0  0  0  0
 14 15  2  0  0  0  0
 15 16  1  0  0  0  0
 16 17  2  0  0  0  0
 17 18  1  0  0  0  0
 18 19  3  0  0  0  0
 17 20  1  0  0  0  0
 20 21  3  0  0  0  0
  1 22  1  0  0  0  0
 22 23  2  0  0  0  0
 23 24  1  0  0  0  0
 24 25  1  0  0  0  0
 25 26  2  0  0  0  0
 25 27  1  0  0  0  0
 27 28  2  0  0  0  0
 28 29  1  0  0  0  0
 29 30  1  0  0  0  0
 30 31  2  0  0  0  0
 28 32  1  0  0  0  0
 32 33  2  0  0  0  0
 33 34  1  0  0  0  0
 34 35  2  0  0  0  0
 34 36  1  0  0  0  0
 36 37  2  0  0  0  0
 37 38  1  0  0  0  0
 38 39  1  0  0  0  0
 39 40  2  0  0  0  0
 40 41  1  0  0  0  0
 41 42  2  0  0  0  0
 42 43  1  0  0  0  0
 43 44  1  0  0  0  0
 42 45  1  0  0  0  0
 45 46  2  0  0  0  0
 38 47  1  0  0  0  0
 47 48  2  0  0  0  0
 48 49  1  0  0  0  0
 49 50  2  0  0  0  0
 50 51  1  0  0  0  0
 51 52  1  0  0  0  0
 50 53  1  0  0  0  0
 53 54  2  0  0  0  0
 37 55  1  0  0  0  0
 55 56  1  0  0  0  0
 56 57  1  0  0  0  0
 57 58  2  0  0  0  0
 58 59  1  0  0  0  0
 59 60  1  0  0  0  0
 60 61  2  0  0  0  0
 61 62  1  0  0  0  0
 62 63  2  0  0  0  0
 63 64  1  0  0  0  0
 64 65  1  0  0  0  0
 63 66  1  0  0  0  0
 66 67  2  0  0  0  0
 59 68  1  0  0  0  0
 68 69  2  0  0  0  0
 69 70  1  0  0  0  0
 70 71  2  0  0  0  0
 71 72  1  0  0  0  0
 72 73  1  0  0  0  0
 71 74  1  0  0  0  0
 74 75  2  0  0  0  0
 58 76  1  0  0  0  0
 76 77  1  0  0  0  0
 57 78  1  0  0  0  0
 78 79  2  0  0  0  0
 79 80  1  0  0  0  0
 80 81  1  0  0  0  0
 81 82  2  0  0  0  0
 81 83  1  0  0  0  0
 83 84  2  0  0  0  0
 84 85  1  0  0  0  0
 85 86  1  0  0  0  0
 86 87  2  0  0  0  0
 84 88  1  0  0  0  0
 88 89  2  0  0  0  0
 89 90  1  0  0  0  0
 90 91  2  0  0  0  0
 90 92  1  0  0  0  0
 92 93  2  0  0  0  0
 93 94  1  0  0  0  0
 94 95  2  0  0  0  0
 94 96  1  0  0  0  0
 96 97  2  0  0  0  0
 97 98  1  0  0  0  0
 98 99  2  0  0  0  0
 99100  1  0  0  0  0
100101  2  0  0  0  0
101102  1  0  0  0  0
101103  1  0  0  0  0
103104  2  0  0  0  0
104105  1  0  0  0  0
105106  2  0  0  0  0
106107  1  0  0  0  0
107108  2  0  0  0  0
108109  1  0  0  0  0
109110  3  0  0  0  0
108111  1  0  0  0  0
111112  3  0  0  0  0
 16  2  1  0  0  0  0
 31 22  1  0  0  0  0
 77 36  1  0  0  0  0
 87 78  1  0  0  0  0
107 93  1  0  0  0  0
 15  5  1  0  0  0  0
 29 24  2  0  0  0  0
 46 39  1  0  0  0  0
 54 47  1  0  0  0  0
 76 55  2  0  0  0  0
 85 80  2  0  0  0  0
106 96  1  0  0  0  0
 13  7  1  0  0  0  0
 35 27  1  0  0  0  0
 67 60  1  0  0  0  0
 75 68  1  0  0  0  0
 91 83  1  0  0  0  0
104 98  1  0  0  0  0
  1113  1  0  0  0  0
  6114  1  0  0  0  0
  8115  1  0  0  0  0
  9116  1  0  0  0  0
 12117  1  0  0  0  0
 14118  1  0  0  0  0
 23119  1  0  0  0  0
 30120  1  0  0  0  0
 31121  1  0  0  0  0
 32122  1  0  0  0  0
 33123  1  0  0  0  0
 35124  1  0  0  0  0
 40125  1  0  0  0  0
 41126  1  0  0  0  0
 44127  1  0  0  0  0
 44128  1  0  0  0  0
 44129  1  0  0  0  0
 45130  1  0  0  0  0
 46131  1  0  0  0  0
 48132  1  0  0  0  0
 49133  1  0  0  0  0
 52134  1  0  0  0  0
 52135  1  0  0  0  0
 52136  1  0  0  0  0
 53137  1  0  0  0  0
 54138  1  0  0  0  0
 61139  1  0  0  0  0
 62140  1  0  0  0  0
 65141  1  0  0  0  0
 65142  1  0  0  0  0
 65143  1  0  0  0  0
 66144  1  0  0  0  0
 67145  1  0  0  0  0
 69146  1  0  0  0  0
 70147  1  0  0  0  0
 73148  1  0  0  0  0
 73149  1  0  0  0  0
 73150  1  0  0  0  0
 74151  1  0  0  0  0
 75152  1  0  0  0  0
 79153  1  0  0  0  0
 86154  1  0  0  0  0
 87155  1  0  0  0  0
 88156  1  0  0  0  0
 89157  1  0  0  0  0
 91158  1  0  0  0  0
 92159  1  0  0  0  0
 97160  1  0  0  0  0
 99161  1  0  0  0  0
100162  1  0  0  0  0
103163  1  0  0  0  0
105164  1  0  0  0  0
M  END
