164

C          4.45600       -3.96000        9.61660
C          3.67640       -5.04630        9.84620
C          2.94560       -5.80900        8.79070
O          2.87410       -5.56310        7.60790
C          2.40800       -7.00200        9.46830
C          1.66300       -8.01270        8.93160
C          1.23810       -9.07110        9.76350
C          0.45910      -10.13530        9.26450
C          0.05550      -11.15500       10.08050
C          0.42780      -11.13010       11.43200
F          0.02100      -12.14230       12.21880
C          1.18140      -10.12280       11.96690
C          1.60600       -9.06330       11.14090
C          2.38410       -8.00610       11.66630
C          2.77840       -6.98440       10.84190
C          3.56240       -5.78140       11.09820
C          4.05030       -5.39560       12.31780
C          4.77380       -4.21100       12.57330
N          5.36450       -3.27090       12.86600
C          3.88960       -6.14050       13.50600
N          3.80110       -6.70050       14.50400
C          4.47660       -3.17880        8.40360
C          3.29650       -2.88750        7.69880
C          3.38710       -2.16560        6.53610
C          2.30020       -1.73890        5.61640
O          1.11180       -1.91210        5.73600
C          3.00910       -1.02400        4.52290
C          4.39480       -1.01870        4.78020
C          4.62830       -1.72140        6.03400
C          5.78650       -1.96490        6.75050
C          5.69570       -2.67340        7.93790
C          5.25680       -0.41350        3.88450
C          4.72310        0.24010        2.78290
C          3.34690        0.30020        2.56480
C          2.48040       -0.39620        3.42430
C          2.78830        1.10150        1.49690
C          1.67310        1.92100        1.55980
N          0.94850        2.22520        2.69860
C         -0.42650        2.49370        2.58670
C         -0.99580        3.51800        3.33620
C         -2.34150        3.80670        3.22730
C         -3.14140        3.07650        2.35740
S         -4.86540        3.36060        2.11860
C         -5.21590        4.81920        3.14070
C         -2.57780        2.03910        1.61700
C         -1.23750        1.74510        1.73370
C          1.53080        2.15810        3.97270
C          2.83290        2.60090        4.18980
C          3.45840        2.38340        5.40130
C          2.78390        1.72960        6.42380
S          3.51960        1.28070        7.96520
C          5.29300        1.55090        7.68330
C          1.44650        1.38230        6.24680
C          0.82570        1.59300        5.03710
C          1.38710        2.47120        0.28080
S          0.10260        3.43300       -0.36290
C          0.77700        3.30320       -1.97780
C          1.93590        2.54770       -2.00880
N          2.63510        2.16620       -3.14760
C          1.94960        1.82460       -4.31980
C          0.72370        1.16520       -4.26190
C         -0.01290        0.93420       -5.40600
C          0.47750        1.33750       -6.64080
S         -0.39960        1.15830       -8.16100
C         -1.89300        0.23890       -7.71020
C          1.73330        1.93800       -6.71190
C          2.45910        2.18420       -5.56870
C          4.03020        2.08510       -3.07720
C          4.72320        1.08790       -3.75790
C          6.09840        0.99840       -3.67070
C          6.80770        1.90220       -2.89110
S          8.56140        1.87900       -2.68510
C          9.11140        0.50820       -3.73960
C          6.11950        2.90490       -2.21150
C          4.74980        3.00040       -2.30650
C          2.28010        2.09710       -0.70830
S          3.53870        1.08940       -0.08940
C         -0.00000        3.74940       -3.11620
C         -1.37470        3.47420       -3.14040
C         -2.04940        3.60760       -4.32850
C         -3.44750        3.22080       -4.64900
O         -4.30930        2.84750       -3.89070
C         -3.53320        3.37210       -6.12660
C         -2.31620        3.89150       -6.61870
C         -1.39880        4.04690       -5.49990
C         -0.08050        4.45980       -5.43830
C          0.60910        4.30440       -4.24590
C         -2.15920        4.10190       -7.97730
C         -3.20030        3.76080       -8.82650
C         -4.38360        3.18290       -8.35040
C         -4.56000        3.02070       -6.96490
C         -5.41700        2.79650       -9.27850
C         -6.22130        1.70870       -9.15580
C         -5.95370        0.54810       -8.25790
O         -5.02560        0.39540       -7.49320
C         -6.99280       -0.44550       -8.57390
C         -7.18860       -1.67180       -8.00570
C         -8.26520       -2.47070       -8.44730
C         -8.52390       -3.73750       -7.88450
C         -9.57060       -4.50070       -8.32080
C        -10.39110       -4.00540       -9.34390
F        -11.41540       -4.77110       -9.75970
C        -10.18480       -2.78460       -9.92370
C         -9.11220       -1.98320       -9.48550
C         -8.87890       -0.71250      -10.06040
C         -7.83530        0.05170       -9.60700
C         -7.37330        1.38300       -9.98440
C         -7.97230        2.20010      -10.90530
C         -7.55930        3.51060      -11.22750
N         -7.29390        4.58330      -11.53950
C         -9.10880        1.84030      -11.66110
N        -10.02700        1.60730      -12.30920
H          5.15750       -3.65000       10.38160
H          1.39780       -7.99890        7.88500
H          0.18490      -10.13150        8.22030
H         -0.54010      -11.97660        9.71540
H          1.44810      -10.13620       13.01210
H          2.64990       -8.03420       12.71060
H          2.33330       -3.19430        8.07240
H          6.74580       -1.61480        6.39850
H          6.59320       -2.87770        8.50440
H          6.32540       -0.42560        4.04120
H          5.38040        0.74570        2.08980
H          1.42090       -0.44050        3.22720
H         -0.37450        4.09150        4.00830
H         -2.74990        4.60800        3.82120
H         -5.04940        4.59110        4.18960
H         -6.26500        5.04420        2.97600
H         -4.60430        5.65540        2.81450
H         -3.20760        1.46600        0.95420
H         -0.81200        0.92870        1.16870
H          3.37030        3.09420        3.39360
H          4.47380        2.72140        5.53070
H          5.59680        1.04170        6.77380
H          5.50950        2.61420        7.63410
H          5.79470        1.11340        8.54080
H          0.91330        0.90740        7.05540
H         -0.19670        1.27750        4.89620
H          0.33340        0.84640       -3.30690
H         -0.96950        0.44480       -5.31990
H         -2.42870        0.07470       -8.63970
H         -2.51590        0.82040       -7.03810
H         -1.61910       -0.71620       -7.27230
H          2.12010        2.22870       -7.67650
H          3.41820        2.67650       -5.63200
H          4.17710        0.37210       -4.35400
H          6.60080        0.21020       -4.20760
H         10.19310        0.48720       -3.64920
H          8.69380       -0.42840       -3.38160
H          8.83160        0.69840       -4.77160
H          6.67580        3.61120       -1.61440
H          4.22740        3.78990       -1.78660
H         -1.87580        3.09360       -2.26250
H          0.42180        4.85420       -6.30810
H          1.64790        4.59310       -4.19100
H         -1.24160        4.50580       -8.37580
H         -3.08260        3.90010       -9.89140
H         -5.48580        2.64510       -6.55990
H         -5.52960        3.43530      -10.14570
H         -6.53330       -2.02170       -7.22210
H         -7.87810       -4.09650       -7.09740
H         -9.78330       -5.47110       -7.90090
H        -10.83820       -2.43500      -10.70780
H         -9.53540       -0.37660      -10.84660
