191

C        -11.66840        0.98160        3.64400
C        -12.13160        0.02080        4.48390
C        -11.77040       -1.42460        4.41090
O        -10.88810       -1.94430        3.76640
C        -12.78830       -2.11930        5.22230
C        -12.93260       -3.46120        5.42820
C        -13.98900       -3.92310        6.24360
C        -14.18090       -5.29760        6.49270
C        -15.21020       -5.73360        7.27960
C        -16.08020       -4.78960        7.84280
F        -17.08680       -5.23780        8.61420
C        -15.93910       -3.44590        7.63430
C        -14.88420       -2.97840        6.82610
C        -14.71060       -1.59440        6.59410
C        -13.67330       -1.16960        5.80610
C        -13.24470        0.16470        5.40830
C        -13.72860        1.34800        5.89900
C        -13.18830        2.61480        5.59090
N        -12.77520        3.67000        5.40600
C        -14.79680        1.44380        6.81500
N        -15.66650        1.57890        7.55160
C        -10.50790        0.88580        2.79620
C         -9.33340        0.24860        3.23190
C         -8.25030        0.21970        2.38890
C         -6.88440       -0.31250        2.63900
O         -6.45810       -0.80910        3.65480
C         -6.14880       -0.03970        1.37740
C         -7.01050        0.59170        0.45750
C         -8.30400        0.77860        1.09480
C         -9.45090        1.42620        0.67060
C        -10.52950        1.49620        1.53540
C         -6.54720        0.92630       -0.80080
C         -5.20840        0.71610       -1.09290
C         -4.32610        0.19070       -0.14760
C         -4.82460       -0.25550        1.08840
C         -2.90070        0.17860       -0.39580
C         -1.89520        0.55400        0.48110
N         -2.07920        1.07360        1.75210
C         -3.23660        1.79760        2.07670
C         -3.86160        1.60810        3.30630
C         -5.06930        2.21610        3.58790
C         -5.67950        3.02030        2.63590
S         -7.28210        3.73910        2.81850
C         -7.80700        3.23620        4.48000
C         -5.01900        3.27680        1.43500
C         -3.80780        2.68460        1.16230
C         -1.10870        0.83890        2.73680
C         -0.46330       -0.39100        2.82310
C          0.51780       -0.60880        3.77160
C          0.86280        0.40160        4.65710
S          2.10240        0.24230        5.90390
C          2.95220       -1.30230        5.46910
C          0.19790        1.62550        4.59330
C         -0.77340        1.84470        3.64420
C         -0.62060        0.41230       -0.12840
S          1.00830        0.69130        0.38620
C          1.61810        0.17030       -1.17760
C          0.59930       -0.13490       -2.06560
N          0.77410       -0.45890       -3.40600
C         -0.08090       -1.42280       -3.95710
C         -0.65170       -1.25620       -5.21950
C         -1.51990       -2.20130       -5.71590
C         -1.84780       -3.32950       -4.96570
S         -2.98340       -4.46220       -5.70480
C         -3.37600       -5.62010       -4.36260
C         -1.27550       -3.50510       -3.71410
C         -0.39850       -2.55990       -3.21870
C          1.62220        0.30680       -4.21240
C          1.87670        1.64390       -3.91800
C          2.69830        2.40310       -4.72670
C          3.28140        1.83930       -5.85220
S          4.29580        2.74560       -6.98210
C          4.77470        4.22020       -6.03690
C          3.04260        0.49910       -6.14640
C          2.23160       -0.26020       -5.33330
C         -0.66710       -0.01680       -1.44460
S         -2.29060       -0.25170       -1.98520
C          3.02300        0.02820       -1.37580
S          4.14900        0.96250       -0.41280
C          5.46570        0.13310       -1.13780
C          6.89350        0.11830       -1.00000
C          7.37400       -0.90230       -1.84830
C          6.23660       -1.57180       -2.59850
C          6.01570       -3.02620       -2.22820
C          6.59960       -3.59850       -1.10780
C          6.33630       -4.91620       -0.77760
C          5.48090       -5.69030       -1.54880
C          5.16410       -7.10660       -1.16240
C          3.94870       -7.14760       -0.23380
C          4.88530       -5.10670       -2.66050
C          5.14650       -3.79290       -2.99610
C          6.50740       -1.39420       -4.07980
C          6.11120       -0.24090       -4.74130
C          6.42770       -0.05700       -6.07420
C          7.13820       -1.01780       -6.78010
C          7.50480       -0.79450       -8.21900
C          8.87080       -0.11350       -8.32330
C          7.54170       -2.16550       -6.11070
C          7.23790       -2.34970       -4.77530
C          5.05330       -0.79580       -2.07320
C          3.66660       -0.85790       -2.21600
C          8.72650       -1.16310       -1.91850
C          9.59110       -0.41580       -1.13780
C          9.12720        0.62510       -0.31960
C          7.75540        0.88240       -0.23760
C         10.09580        1.36670        0.45180
C         10.07800        2.68760        0.75410
C          9.22640        3.72800        0.10370
O          8.28840        3.57150       -0.64530
C          9.82260        5.01640        0.49910
C          9.44920        6.29270        0.11960
C         10.16830        7.36460        0.61970
C         11.25010        7.17490        1.48030
C         12.01800        8.35590        1.98220
C         11.62160        5.88630        1.85590
C         10.90650        4.80430        1.36800
C         11.05790        3.37120        1.58890
C         11.91060        2.78350        2.48220
C         11.97850        1.39890        2.75140
N         12.08370        0.29330        3.04290
C         12.82550        3.49380        3.28910
N         13.59510        4.01130        3.96540
H        -12.23120        1.90420        3.55680
H        -12.24600       -4.16060        4.97520
H        -13.49730       -6.00500        6.04790
H        -15.37170       -6.78110        7.47910
H        -16.62680       -2.74810        8.08580
H        -15.40790       -0.90420        7.04140
H         -9.26460       -0.17220        4.22250
H         -9.50210        1.88590       -0.30430
H        -11.42780        2.01000        1.22400
H         -7.19960        1.37310       -1.53530
H         -4.81840        1.00870       -2.05730
H         -4.18120       -0.74980        1.79960
H         -3.41690        0.95060        4.03800
H         -5.53350        2.02470        4.54110
H         -7.82340        2.15270        4.55130
H         -8.81210        3.62920        4.60100
H         -7.14680        3.67330        5.22360
H         -5.47690        3.93970        0.71710
H         -3.30700        2.88580        0.22730
H         -0.73520       -1.18790        2.14620
H          0.99650       -1.57380        3.81100
H          3.81150       -1.35990        6.13000
H          3.28160       -1.25870        4.43520
H          2.29940       -2.15320        5.64230
H          0.46510        2.40420        5.29090
H         -1.27540        2.79900        3.58890
H         -0.42160       -0.37520       -5.79920
H         -1.96920       -2.07040       -6.68820
H         -4.16160       -6.26130       -4.75010
H         -3.73900       -5.07090       -3.49900
H         -2.50400       -6.21830       -4.11440
H         -1.49750       -4.37300       -3.11450
H          0.04820       -2.70310       -2.24510
H          1.41310        2.10400       -3.05850
H          2.85980        3.43900       -4.47470
H          5.55120        4.70440       -6.62110
H          5.16960        3.92100       -5.07060
H          3.92740        4.89130       -5.92810
H          3.50520        0.05770       -7.01540
H          2.06060       -1.30060       -5.56630
H          7.26710       -3.01670       -0.48910
H          6.80710       -5.34900        0.09380
H          6.02070       -7.55240       -0.65310
H          4.95330       -7.69620       -2.05700
H          3.71640       -8.17280        0.04520
H          4.14550       -6.57690        0.67110
H          3.08100       -6.71610       -0.72800
H          4.21200       -5.69010       -3.27280
H          4.68400       -3.35760       -3.87050
H          5.55010        0.51610       -4.21220
H          6.11680        0.84550       -6.57820
H          6.75260       -0.16370       -8.69680
H          7.53790       -1.75030       -8.74630
H          8.85210        0.84790       -7.81490
H          9.13680        0.04900       -9.36520
H          9.63840       -0.73020       -7.86050
H          8.10150       -2.92440       -6.63930
H          7.56150       -3.24990       -4.27230
H          3.14560       -1.53960       -2.86140
H          9.10480       -1.94410       -2.56080
H         10.65220       -0.61480       -1.17720
H          7.37110        1.63860        0.42660
H         10.95070        0.78550        0.77900
H          8.61290        6.43450       -0.54750
H          9.89200        8.37130        0.34150
H         12.63910        8.76070        1.18290
H         11.34180        9.14410        2.30720
H         12.66440        8.07850        2.81040
H         12.46310        5.74830        2.51570
