
  xtb     02112208503D
 energy: -357.301363658500 gnorm: 0.000757671533 xtb: 6.4.1 (unknown)
204223  0     0  0            999 V2000
   -4.6431   -0.1579    8.1508 C   0  0  0  0  0  0  0  0  0  0  0  0
   -4.3354    1.0550    7.6185 C   0  0  0  0  0  0  0  0  0  0  0  0
   -3.5483    1.2650    6.3711 C   0  0  0  0  0  0  0  0  0  0  0  0
   -2.9374    0.4493    5.7121 O   0  0  0  0  0  0  0  0  0  0  0  0
   -3.7304    2.6810    6.0182 C   0  0  0  0  0  0  0  0  0  0  0  0
   -3.2189    3.3535    4.9454 C   0  0  0  0  0  0  0  0  0  0  0  0
   -3.5365    4.7173    4.7722 C   0  0  0  0  0  0  0  0  0  0  0  0
   -3.0456    5.4528    3.6736 C   0  0  0  0  0  0  0  0  0  0  0  0
   -3.3819    6.7668    3.5043 C   0  0  0  0  0  0  0  0  0  0  0  0
   -4.2181    7.3802    4.4474 C   0  0  0  0  0  0  0  0  0  0  0  0
   -4.5386    8.6733    4.2601 F   0  0  0  0  0  0  0  0  0  0  0  0
   -4.7130    6.7150    5.5348 C   0  0  0  0  0  0  0  0  0  0  0  0
   -4.3835    5.3584    5.7233 C   0  0  0  0  0  0  0  0  0  0  0  0
   -4.8834    4.6397    6.8350 C   0  0  0  0  0  0  0  0  0  0  0  0
   -4.5587    3.3164    6.9844 C   0  0  0  0  0  0  0  0  0  0  0  0
   -4.9109    2.3358    8.0052 C   0  0  0  0  0  0  0  0  0  0  0  0
   -5.6071    2.5975    9.1548 C   0  0  0  0  0  0  0  0  0  0  0  0
   -5.8875    1.6537   10.1657 C   0  0  0  0  0  0  0  0  0  0  0  0
   -6.1473    0.9466   11.0324 N   0  0  0  0  0  0  0  0  0  0  0  0
   -6.1259    3.8657    9.4920 C   0  0  0  0  0  0  0  0  0  0  0  0
   -6.5766    4.8695    9.8181 N   0  0  0  0  0  0  0  0  0  0  0  0
   -4.0474   -1.3978    7.7224 C   0  0  0  0  0  0  0  0  0  0  0  0
   -2.6789   -1.4817    7.4144 C   0  0  0  0  0  0  0  0  0  0  0  0
   -2.2300   -2.5829    6.7326 C   0  0  0  0  0  0  0  0  0  0  0  0
   -0.8999   -2.7967    6.1159 C   0  0  0  0  0  0  0  0  0  0  0  0
    0.1293   -2.1943    6.3177 O   0  0  0  0  0  0  0  0  0  0  0  0
   -1.1399   -3.8847    5.1366 C   0  0  0  0  0  0  0  0  0  0  0  0
   -2.4386   -4.4081    5.3113 C   0  0  0  0  0  0  0  0  0  0  0  0
   -3.1098   -3.6119    6.3270 C   0  0  0  0  0  0  0  0  0  0  0  0
   -4.4137   -3.6131    6.7892 C   0  0  0  0  0  0  0  0  0  0  0  0
   -4.8667   -2.5101    7.4979 C   0  0  0  0  0  0  0  0  0  0  0  0
   -2.9117   -5.3593    4.4250 C   0  0  0  0  0  0  0  0  0  0  0  0
   -2.1739   -5.6281    3.2799 C   0  0  0  0  0  0  0  0  0  0  0  0
   -0.9541   -4.9939    3.0348 C   0  0  0  0  0  0  0  0  0  0  0  0
   -0.3804   -4.1984    4.0402 C   0  0  0  0  0  0  0  0  0  0  0  0
   -0.3955   -4.8563    1.7042 C   0  0  0  0  0  0  0  0  0  0  0  0
   -1.1060   -4.4233    0.5999 C   0  0  0  0  0  0  0  0  0  0  0  0
   -2.4963   -4.3437    0.4936 N   0  0  0  0  0  0  0  0  0  0  0  0
   -3.2202   -3.6432    1.4687 C   0  0  0  0  0  0  0  0  0  0  0  0
   -2.6489   -2.5869    2.1823 C   0  0  0  0  0  0  0  0  0  0  0  0
   -3.3793   -1.9110    3.1335 C   0  0  0  0  0  0  0  0  0  0  0  0
   -4.7064   -2.2559    3.3809 C   0  0  0  0  0  0  0  0  0  0  0  0
   -5.5657   -1.2583    4.5575 S   0  0  0  0  0  0  0  0  0  0  0  0
   -7.1950   -2.0541    4.6924 C   0  0  0  0  0  0  0  0  0  0  0  0
   -5.2792   -3.3095    2.6820 C   0  0  0  0  0  0  0  0  0  0  0  0
   -4.5384   -3.9992    1.7422 C   0  0  0  0  0  0  0  0  0  0  0  0
   -3.0303   -4.5702   -0.7810 C   0  0  0  0  0  0  0  0  0  0  0  0
   -4.0596   -3.7907   -1.3010 C   0  0  0  0  0  0  0  0  0  0  0  0
   -4.5322   -4.0082   -2.5807 C   0  0  0  0  0  0  0  0  0  0  0  0
   -3.9778   -5.0058   -3.3699 C   0  0  0  0  0  0  0  0  0  0  0  0
   -4.4767   -5.3533   -5.0295 S   0  0  0  0  0  0  0  0  0  0  0  0
   -5.8510   -4.2085   -5.3300 C   0  0  0  0  0  0  0  0  0  0  0  0
   -2.9524   -5.7948   -2.8522 C   0  0  0  0  0  0  0  0  0  0  0  0
   -2.4885   -5.5844   -1.5745 C   0  0  0  0  0  0  0  0  0  0  0  0
   -0.2522   -3.8358   -0.3643 C   0  0  0  0  0  0  0  0  0  0  0  0
   -0.5899   -2.8430   -1.7354 S   0  0  0  0  0  0  0  0  0  0  0  0
    1.0486   -2.1927   -1.6801 C   0  0  0  0  0  0  0  0  0  0  0  0
    1.8279   -2.8186   -0.7256 C   0  0  0  0  0  0  0  0  0  0  0  0
    3.1292   -2.4567   -0.4235 N   0  0  0  0  0  0  0  0  0  0  0  0
    4.0663   -2.1787   -1.4201 C   0  0  0  0  0  0  0  0  0  0  0  0
    5.0964   -1.2676   -1.1760 C   0  0  0  0  0  0  0  0  0  0  0  0
    6.0585   -1.0298   -2.1315 C   0  0  0  0  0  0  0  0  0  0  0  0
    6.0185   -1.6930   -3.3563 C   0  0  0  0  0  0  0  0  0  0  0  0
    7.3039   -1.3247   -4.5090 S   0  0  0  0  0  0  0  0  0  0  0  0
    6.6901   -2.0114   -6.0719 C   0  0  0  0  0  0  0  0  0  0  0  0
    4.9964   -2.5980   -3.6026 C   0  0  0  0  0  0  0  0  0  0  0  0
    4.0245   -2.8308   -2.6497 C   0  0  0  0  0  0  0  0  0  0  0  0
    3.4985   -2.4201    0.9347 C   0  0  0  0  0  0  0  0  0  0  0  0
    4.6950   -2.9921    1.3653 C   0  0  0  0  0  0  0  0  0  0  0  0
    5.0177   -2.9942    2.7032 C   0  0  0  0  0  0  0  0  0  0  0  0
    4.1511   -2.4365    3.6435 C   0  0  0  0  0  0  0  0  0  0  0  0
    4.6471   -2.5323    5.3318 S   0  0  0  0  0  0  0  0  0  0  0  0
    3.4057   -1.5477    6.2180 C   0  0  0  0  0  0  0  0  0  0  0  0
    2.9646   -1.8558    3.2165 C   0  0  0  0  0  0  0  0  0  0  0  0
    2.6473   -1.8410    1.8716 C   0  0  0  0  0  0  0  0  0  0  0  0
    1.0777   -3.7754    0.0096 C   0  0  0  0  0  0  0  0  0  0  0  0
    1.3356   -4.6026    1.5097 S   0  0  0  0  0  0  0  0  0  0  0  0
    1.2562   -0.8169   -2.0829 C   0  0  0  0  0  0  0  0  0  0  0  0
    1.6778   -0.1634   -3.2188 C   0  0  0  0  0  0  0  0  0  0  0  0
    2.0452   -0.7746   -4.4006 N   0  0  0  0  0  0  0  0  0  0  0  0
    3.0273   -0.1638   -5.1980 C   0  0  0  0  0  0  0  0  0  0  0  0
    4.1095    0.4779   -4.5999 C   0  0  0  0  0  0  0  0  0  0  0  0
    5.0568    1.1155   -5.3749 C   0  0  0  0  0  0  0  0  0  0  0  0
    4.9631    1.1206   -6.7609 C   0  0  0  0  0  0  0  0  0  0  0  0
    5.9830    1.8376   -7.5892 C   0  0  0  0  0  0  0  0  0  0  0  0
    3.8890    0.4651   -7.3505 C   0  0  0  0  0  0  0  0  0  0  0  0
    2.9268   -0.1654   -6.5859 C   0  0  0  0  0  0  0  0  0  0  0  0
    1.3555   -1.9126   -4.8468 C   0  0  0  0  0  0  0  0  0  0  0  0
    2.0242   -2.9187   -5.5408 C   0  0  0  0  0  0  0  0  0  0  0  0
    1.3466   -4.0424   -5.9654 C   0  0  0  0  0  0  0  0  0  0  0  0
   -0.0128   -4.2037   -5.7153 C   0  0  0  0  0  0  0  0  0  0  0  0
   -0.7262   -5.4370   -6.1753 C   0  0  0  0  0  0  0  0  0  0  0  0
   -0.6784   -3.1880   -5.0446 C   0  0  0  0  0  0  0  0  0  0  0  0
   -0.0109   -2.0533   -4.6223 C   0  0  0  0  0  0  0  0  0  0  0  0
    1.6727    1.2498   -3.0239 C   0  0  0  0  0  0  0  0  0  0  0  0
    2.0846    2.5924   -4.0276 S   0  0  0  0  0  0  0  0  0  0  0  0
    1.6040    3.7184   -2.7448 C   0  0  0  0  0  0  0  0  0  0  0  0
    1.0654    3.0371   -1.6172 C   0  0  0  0  0  0  0  0  0  0  0  0
    0.4983    3.5969   -0.5144 N   0  0  0  0  0  0  0  0  0  0  0  0
   -0.1928    4.8243   -0.4903 C   0  0  0  0  0  0  0  0  0  0  0  0
   -0.1167    5.6128    0.6535 C   0  0  0  0  0  0  0  0  0  0  0  0
   -0.8139    6.8032    0.7212 C   0  0  0  0  0  0  0  0  0  0  0  0
   -1.6029    7.2327   -0.3378 C   0  0  0  0  0  0  0  0  0  0  0  0
   -2.3677    8.5177   -0.2585 C   0  0  0  0  0  0  0  0  0  0  0  0
   -1.6852    6.4274   -1.4704 C   0  0  0  0  0  0  0  0  0  0  0  0
   -0.9968    5.2345   -1.5516 C   0  0  0  0  0  0  0  0  0  0  0  0
    0.3665    2.7982    0.6533 C   0  0  0  0  0  0  0  0  0  0  0  0
   -0.8994    2.4814    1.1340 C   0  0  0  0  0  0  0  0  0  0  0  0
   -1.0308    1.6629    2.2382 C   0  0  0  0  0  0  0  0  0  0  0  0
    0.0869    1.1708    2.9046 C   0  0  0  0  0  0  0  0  0  0  0  0
   -0.0696    0.2603    4.0800 C   0  0  0  0  0  0  0  0  0  0  0  0
    1.3469    1.5240    2.4330 C   0  0  0  0  0  0  0  0  0  0  0  0
    1.4929    2.3217    1.3139 C   0  0  0  0  0  0  0  0  0  0  0  0
    1.1878    1.6465   -1.7862 C   0  0  0  0  0  0  0  0  0  0  0  0
    0.7728    0.2936   -0.7991 S   0  0  0  0  0  0  0  0  0  0  0  0
    1.8394    5.0858   -2.7601 C   0  0  0  0  0  0  0  0  0  0  0  0
    2.3825    5.9009   -3.7342 C   0  0  0  0  0  0  0  0  0  0  0  0
    2.7999    5.4957   -5.0691 C   0  0  0  0  0  0  0  0  0  0  0  0
    2.8136    4.3779   -5.5498 O   0  0  0  0  0  0  0  0  0  0  0  0
    3.1776    6.7458   -5.7715 C   0  0  0  0  0  0  0  0  0  0  0  0
    3.5765    6.9083   -7.0846 C   0  0  0  0  0  0  0  0  0  0  0  0
    3.8794    5.5659   -8.0935 Cl  0  0  0  0  0  0  0  0  0  0  0  0
    3.7227    8.2131   -7.5759 C   0  0  0  0  0  0  0  0  0  0  0  0
    4.2535    8.4676   -9.1818 Cl  0  0  0  0  0  0  0  0  0  0  0  0
    3.3887    9.2997   -6.7711 C   0  0  0  0  0  0  0  0  0  0  0  0
    3.4660   10.8790   -7.4256 Cl  0  0  0  0  0  0  0  0  0  0  0  0
    2.9769    9.1253   -5.4389 C   0  0  0  0  0  0  0  0  0  0  0  0
    2.4052   10.4982   -4.5838 Cl  0  0  0  0  0  0  0  0  0  0  0  0
    2.9525    7.8405   -4.9126 C   0  0  0  0  0  0  0  0  0  0  0  0
    2.6338    7.3157   -3.5833 C   0  0  0  0  0  0  0  0  0  0  0  0
    2.7525    7.9926   -2.3926 C   0  0  0  0  0  0  0  0  0  0  0  0
    2.4719    7.4501   -1.1216 C   0  0  0  0  0  0  0  0  0  0  0  0
    2.2702    7.1029   -0.0440 N   0  0  0  0  0  0  0  0  0  0  0  0
    3.3509    9.2577   -2.2137 C   0  0  0  0  0  0  0  0  0  0  0  0
    3.9079   10.2230   -1.9371 N   0  0  0  0  0  0  0  0  0  0  0  0
   -5.4516   -0.2287    8.8677 H   0  0  0  0  0  0  0  0  0  0  0  0
   -2.5760    2.8553    4.2359 H   0  0  0  0  0  0  0  0  0  0  0  0
   -2.4000    4.9600    2.9615 H   0  0  0  0  0  0  0  0  0  0  0  0
   -3.0228    7.3407    2.6653 H   0  0  0  0  0  0  0  0  0  0  0  0
   -5.3512    7.2222    6.2414 H   0  0  0  0  0  0  0  0  0  0  0  0
   -5.5188    5.1556    7.5369 H   0  0  0  0  0  0  0  0  0  0  0  0
   -1.9979   -0.6921    7.6891 H   0  0  0  0  0  0  0  0  0  0  0  0
   -5.0857   -4.4258    6.5564 H   0  0  0  0  0  0  0  0  0  0  0  0
   -5.9020   -2.4624    7.8040 H   0  0  0  0  0  0  0  0  0  0  0  0
   -3.8753   -5.8247    4.5662 H   0  0  0  0  0  0  0  0  0  0  0  0
   -2.5756   -6.2963    2.5331 H   0  0  0  0  0  0  0  0  0  0  0  0
    0.5866   -3.7405    3.8908 H   0  0  0  0  0  0  0  0  0  0  0  0
   -1.6327   -2.2868    1.9744 H   0  0  0  0  0  0  0  0  0  0  0  0
   -2.9411   -1.0982    3.6920 H   0  0  0  0  0  0  0  0  0  0  0  0
   -7.7186   -2.0005    3.7426 H   0  0  0  0  0  0  0  0  0  0  0  0
   -7.7378   -1.4851    5.4406 H   0  0  0  0  0  0  0  0  0  0  0  0
   -7.0785   -3.0820    5.0219 H   0  0  0  0  0  0  0  0  0  0  0  0
   -6.3008   -3.6059    2.8567 H   0  0  0  0  0  0  0  0  0  0  0  0
   -4.9880   -4.8201    1.2032 H   0  0  0  0  0  0  0  0  0  0  0  0
   -4.4802   -2.9926   -0.7081 H   0  0  0  0  0  0  0  0  0  0  0  0
   -5.3230   -3.3771   -2.9532 H   0  0  0  0  0  0  0  0  0  0  0  0
   -5.5008   -3.1818   -5.2759 H   0  0  0  0  0  0  0  0  0  0  0  0
   -6.6496   -4.3931   -4.6175 H   0  0  0  0  0  0  0  0  0  0  0  0
   -6.1963   -4.4266   -6.3358 H   0  0  0  0  0  0  0  0  0  0  0  0
   -2.5275   -6.5747   -3.4649 H   0  0  0  0  0  0  0  0  0  0  0  0
   -1.6957   -6.2028   -1.1807 H   0  0  0  0  0  0  0  0  0  0  0  0
    5.1342   -0.7491   -0.2295 H   0  0  0  0  0  0  0  0  0  0  0  0
    6.8515   -0.3227   -1.9425 H   0  0  0  0  0  0  0  0  0  0  0  0
    5.6958   -1.6228   -6.2722 H   0  0  0  0  0  0  0  0  0  0  0  0
    6.6992   -3.0972   -6.0378 H   0  0  0  0  0  0  0  0  0  0  0  0
    7.3806   -1.6648   -6.8345 H   0  0  0  0  0  0  0  0  0  0  0  0
    4.9586   -3.1476   -4.5286 H   0  0  0  0  0  0  0  0  0  0  0  0
    3.2362   -3.5401   -2.8555 H   0  0  0  0  0  0  0  0  0  0  0  0
    5.3620   -3.4389    0.6434 H   0  0  0  0  0  0  0  0  0  0  0  0
    5.9394   -3.4421    3.0412 H   0  0  0  0  0  0  0  0  0  0  0  0
    2.4201   -1.9967    6.1373 H   0  0  0  0  0  0  0  0  0  0  0  0
    3.7241   -1.5533    7.2560 H   0  0  0  0  0  0  0  0  0  0  0  0
    3.4116   -0.5294    5.8399 H   0  0  0  0  0  0  0  0  0  0  0  0
    2.2789   -1.4192    3.9231 H   0  0  0  0  0  0  0  0  0  0  0  0
    1.7275   -1.3773    1.5417 H   0  0  0  0  0  0  0  0  0  0  0  0
    4.2065    0.4702   -3.5245 H   0  0  0  0  0  0  0  0  0  0  0  0
    5.8872    1.6104   -4.8940 H   0  0  0  0  0  0  0  0  0  0  0  0
    6.9753    1.7352   -7.1546 H   0  0  0  0  0  0  0  0  0  0  0  0
    5.9990    1.4575   -8.6080 H   0  0  0  0  0  0  0  0  0  0  0  0
    5.7414    2.9000   -7.6268 H   0  0  0  0  0  0  0  0  0  0  0  0
    3.7938    0.4592   -8.4269 H   0  0  0  0  0  0  0  0  0  0  0  0
    2.0876   -0.6520   -7.0611 H   0  0  0  0  0  0  0  0  0  0  0  0
    3.0772   -2.8084   -5.7479 H   0  0  0  0  0  0  0  0  0  0  0  0
    1.8830   -4.8158   -6.4969 H   0  0  0  0  0  0  0  0  0  0  0  0
   -0.2507   -6.3264   -5.7642 H   0  0  0  0  0  0  0  0  0  0  0  0
   -0.6874   -5.5141   -7.2612 H   0  0  0  0  0  0  0  0  0  0  0  0
   -1.7684   -5.4233   -5.8673 H   0  0  0  0  0  0  0  0  0  0  0  0
   -1.7359   -3.2823   -4.8452 H   0  0  0  0  0  0  0  0  0  0  0  0
   -0.5539   -1.2656   -4.1199 H   0  0  0  0  0  0  0  0  0  0  0  0
    0.5048    5.2984    1.4772 H   0  0  0  0  0  0  0  0  0  0  0  0
   -0.7206    7.4149    1.6060 H   0  0  0  0  0  0  0  0  0  0  0  0
   -1.9100    9.1990    0.4552 H   0  0  0  0  0  0  0  0  0  0  0  0
   -3.3936    8.3261    0.0610 H   0  0  0  0  0  0  0  0  0  0  0  0
   -2.4103    9.0032   -1.2308 H   0  0  0  0  0  0  0  0  0  0  0  0
   -2.3033    6.7387   -2.2999 H   0  0  0  0  0  0  0  0  0  0  0  0
   -1.0730    4.6194   -2.4363 H   0  0  0  0  0  0  0  0  0  0  0  0
   -1.7726    2.8589    0.6212 H   0  0  0  0  0  0  0  0  0  0  0  0
   -2.0173    1.3808    2.5779 H   0  0  0  0  0  0  0  0  0  0  0  0
   -1.0073    0.4368    4.6005 H   0  0  0  0  0  0  0  0  0  0  0  0
   -0.0746   -0.7783    3.7463 H   0  0  0  0  0  0  0  0  0  0  0  0
    0.7484    0.3821    4.7859 H   0  0  0  0  0  0  0  0  0  0  0  0
    2.2284    1.1606    2.9400 H   0  0  0  0  0  0  0  0  0  0  0  0
    2.4746    2.5779    0.9440 H   0  0  0  0  0  0  0  0  0  0  0  0
    1.5461    5.5911   -1.8496 H   0  0  0  0  0  0  0  0  0  0  0  0
  1  2  2  0  0  0  0
  2  3  1  0  0  0  0
  3  4  2  0  0  0  0
  3  5  1  0  0  0  0
  5  6  2  0  0  0  0
  6  7  1  0  0  0  0
  7  8  2  0  0  0  0
  8  9  1  0  0  0  0
  9 10  2  0  0  0  0
 10 11  1  0  0  0  0
 10 12  1  0  0  0  0
 12 13  2  0  0  0  0
 13 14  1  0  0  0  0
 14 15  2  0  0  0  0
 15 16  1  0  0  0  0
 16 17  2  0  0  0  0
 17 18  1  0  0  0  0
 18 19  3  0  0  0  0
 17 20  1  0  0  0  0
 20 21  3  0  0  0  0
  1 22  1  0  0  0  0
 22 23  2  0  0  0  0
 23 24  1  0  0  0  0
 24 25  1  0  0  0  0
 25 26  2  0  0  0  0
 25 27  1  0  0  0  0
 27 28  2  0  0  0  0
 28 29  1  0  0  0  0
 29 30  1  0  0  0  0
 30 31  2  0  0  0  0
 28 32  1  0  0  0  0
 32 33  2  0  0  0  0
 33 34  1  0  0  0  0
 34 35  2  0  0  0  0
 34 36  1  0  0  0  0
 36 37  2  0  0  0  0
 37 38  1  0  0  0  0
 38 39  1  0  0  0  0
 39 40  2  0  0  0  0
 40 41  1  0  0  0  0
 41 42  2  0  0  0  0
 42 43  1  0  0  0  0
 43 44  1  0  0  0  0
 42 45  1  0  0  0  0
 45 46  2  0  0  0  0
 38 47  1  0  0  0  0
 47 48  2  0  0  0  0
 48 49  1  0  0  0  0
 49 50  2  0  0  0  0
 50 51  1  0  0  0  0
 51 52  1  0  0  0  0
 50 53  1  0  0  0  0
 53 54  2  0  0  0  0
 37 55  1  0  0  0  0
 55 56  1  0  0  0  0
 56 57  1  0  0  0  0
 57 58  2  0  0  0  0
 58 59  1  0  0  0  0
 59 60  1  0  0  0  0
 60 61  2  0  0  0  0
 61 62  1  0  0  0  0
 62 63  2  0  0  0  0
 63 64  1  0  0  0  0
 64 65  1  0  0  0  0
 63 66  1  0  0  0  0
 66 67  2  0  0  0  0
 59 68  1  0  0  0  0
 68 69  2  0  0  0  0
 69 70  1  0  0  0  0
 70 71  2  0  0  0  0
 71 72  1  0  0  0  0
 72 73  1  0  0  0  0
 71 74  1  0  0  0  0
 74 75  2  0  0  0  0
 58 76  1  0  0  0  0
 76 77  1  0  0  0  0
 57 78  1  0  0  0  0
 78 79  2  0  0  0  0
 79 80  1  0  0  0  0
 80 81  1  0  0  0  0
 81 82  2  0  0  0  0
 82 83  1  0  0  0  0
 83 84  2  0  0  0  0
 84 85  1  0  0  0  0
 84 86  1  0  0  0  0
 86 87  2  0  0  0  0
 80 88  1  0  0  0  0
 88 89  2  0  0  0  0
 89 90  1  0  0  0  0
 90 91  2  0  0  0  0
 91 92  1  0  0  0  0
 91 93  1  0  0  0  0
 93 94  2  0  0  0  0
 79 95  1  0  0  0  0
 95 96  1  0  0  0  0
 96 97  1  0  0  0  0
 97 98  2  0  0  0  0
 98 99  1  0  0  0  0
 99100  1  0  0  0  0
100101  2  0  0  0  0
101102  1  0  0  0  0
102103  2  0  0  0  0
103104  1  0  0  0  0
103105  1  0  0  0  0
105106  2  0  0  0  0
 99107  1  0  0  0  0
107108  2  0  0  0  0
108109  1  0  0  0  0
109110  2  0  0  0  0
110111  1  0  0  0  0
110112  1  0  0  0  0
112113  2  0  0  0  0
 98114  1  0  0  0  0
114115  1  0  0  0  0
 97116  1  0  0  0  0
116117  2  0  0  0  0
117118  1  0  0  0  0
118119  2  0  0  0  0
118120  1  0  0  0  0
120121  2  0  0  0  0
121122  1  0  0  0  0
121123  1  0  0  0  0
123124  1  0  0  0  0
123125  2  0  0  0  0
125126  1  0  0  0  0
125127  1  0  0  0  0
127128  1  0  0  0  0
127129  2  0  0  0  0
129130  1  0  0  0  0
130131  2  0  0  0  0
131132  1  0  0  0  0
132133  3  0  0  0  0
131134  1  0  0  0  0
134135  3  0  0  0  0
 16  2  1  0  0  0  0
 31 22  1  0  0  0  0
 77 36  1  0  0  0  0
115 78  1  0  0  0  0
130117  1  0  0  0  0
 15  5  1  0  0  0  0
 29 24  2  0  0  0  0
 46 39  1  0  0  0  0
 54 47  1  0  0  0  0
 76 55  2  0  0  0  0
 87 81  1  0  0  0  0
 94 88  1  0  0  0  0
114 95  2  0  0  0  0
129120  1  0  0  0  0
 13  7  1  0  0  0  0
 35 27  1  0  0  0  0
 67 60  1  0  0  0  0
 75 68  1  0  0  0  0
106100  1  0  0  0  0
113107  1  0  0  0  0
  1136  1  0  0  0  0
  6137  1  0  0  0  0
  8138  1  0  0  0  0
  9139  1  0  0  0  0
 12140  1  0  0  0  0
 14141  1  0  0  0  0
 23142  1  0  0  0  0
 30143  1  0  0  0  0
 31144  1  0  0  0  0
 32145  1  0  0  0  0
 33146  1  0  0  0  0
 35147  1  0  0  0  0
 40148  1  0  0  0  0
 41149  1  0  0  0  0
 44150  1  0  0  0  0
 44151  1  0  0  0  0
 44152  1  0  0  0  0
 45153  1  0  0  0  0
 46154  1  0  0  0  0
 48155  1  0  0  0  0
 49156  1  0  0  0  0
 52157  1  0  0  0  0
 52158  1  0  0  0  0
 52159  1  0  0  0  0
 53160  1  0  0  0  0
 54161  1  0  0  0  0
 61162  1  0  0  0  0
 62163  1  0  0  0  0
 65164  1  0  0  0  0
 65165  1  0  0  0  0
 65166  1  0  0  0  0
 66167  1  0  0  0  0
 67168  1  0  0  0  0
 69169  1  0  0  0  0
 70170  1  0  0  0  0
 73171  1  0  0  0  0
 73172  1  0  0  0  0
 73173  1  0  0  0  0
 74174  1  0  0  0  0
 75175  1  0  0  0  0
 82176  1  0  0  0  0
 83177  1  0  0  0  0
 85178  1  0  0  0  0
 85179  1  0  0  0  0
 85180  1  0  0  0  0
 86181  1  0  0  0  0
 87182  1  0  0  0  0
 89183  1  0  0  0  0
 90184  1  0  0  0  0
 92185  1  0  0  0  0
 92186  1  0  0  0  0
 92187  1  0  0  0  0
 93188  1  0  0  0  0
 94189  1  0  0  0  0
101190  1  0  0  0  0
102191  1  0  0  0  0
104192  1  0  0  0  0
104193  1  0  0  0  0
104194  1  0  0  0  0
105195  1  0  0  0  0
106196  1  0  0  0  0
108197  1  0  0  0  0
109198  1  0  0  0  0
111199  1  0  0  0  0
111200  1  0  0  0  0
111201  1  0  0  0  0
112202  1  0  0  0  0
113203  1  0  0  0  0
116204  1  0  0  0  0
M  END
