
  xtb     02112220573D
 energy: -432.471222369537 gnorm: 0.000436456376 xtb: 6.4.1 (unknown)
260283  0     0  0            999 V2000
    5.3815   -2.6415   -7.6659 C   0  0  0  0  0  0  0  0  0  0  0  0
    6.3310   -3.6323   -7.5796 C   0  0  0  0  0  0  0  0  0  0  0  0
    6.9258   -4.2166   -8.7994 C   0  0  0  0  0  0  0  0  0  0  0  0
    6.8104   -3.8119   -9.9375 O   0  0  0  0  0  0  0  0  0  0  0  0
    7.6444   -5.4261   -8.3380 C   0  0  0  0  0  0  0  0  0  0  0  0
    8.2649   -6.3962   -9.0681 C   0  0  0  0  0  0  0  0  0  0  0  0
    8.8528   -7.4948   -8.3977 C   0  0  0  0  0  0  0  0  0  0  0  0
    9.5067   -8.5235   -9.1045 C   0  0  0  0  0  0  0  0  0  0  0  0
   10.0631   -9.5874   -8.4493 C   0  0  0  0  0  0  0  0  0  0  0  0
    9.9744   -9.6433   -7.0528 C   0  0  0  0  0  0  0  0  0  0  0  0
   10.5262  -10.6996   -6.4233 F   0  0  0  0  0  0  0  0  0  0  0  0
    9.3526   -8.6723   -6.3184 C   0  0  0  0  0  0  0  0  0  0  0  0
    8.7773   -7.5688   -6.9768 C   0  0  0  0  0  0  0  0  0  0  0  0
    8.1368   -6.5413   -6.2442 C   0  0  0  0  0  0  0  0  0  0  0  0
    7.5893   -5.4846   -6.9158 C   0  0  0  0  0  0  0  0  0  0  0  0
    6.8964   -4.2927   -6.4360 C   0  0  0  0  0  0  0  0  0  0  0  0
    7.0288   -3.7626   -5.1716 C   0  0  0  0  0  0  0  0  0  0  0  0
    7.7717   -4.3701   -4.1453 C   0  0  0  0  0  0  0  0  0  0  0  0
    8.3887   -4.8128   -3.2827 N   0  0  0  0  0  0  0  0  0  0  0  0
    6.5780   -2.4795   -4.8234 C   0  0  0  0  0  0  0  0  0  0  0  0
    6.2944   -1.4068   -4.5184 N   0  0  0  0  0  0  0  0  0  0  0  0
    4.4154   -2.3417   -6.6986 C   0  0  0  0  0  0  0  0  0  0  0  0
    3.7605   -1.1213   -6.4457 C   0  0  0  0  0  0  0  0  0  0  0  0
    3.8828    0.0288   -7.1686 N   0  0  0  0  0  0  0  0  0  0  0  0
    4.0150    0.0371   -8.5630 C   0  0  0  0  0  0  0  0  0  0  0  0
    3.3681   -0.9171   -9.3475 C   0  0  0  0  0  0  0  0  0  0  0  0
    3.5087   -0.8964  -10.7197 C   0  0  0  0  0  0  0  0  0  0  0  0
    4.2819    0.0742  -11.3484 C   0  0  0  0  0  0  0  0  0  0  0  0
    4.4535    0.0601  -12.8347 C   0  0  0  0  0  0  0  0  0  0  0  0
    4.9022    1.0357  -10.5600 C   0  0  0  0  0  0  0  0  0  0  0  0
    4.7756    1.0235   -9.1847 C   0  0  0  0  0  0  0  0  0  0  0  0
    3.8120    1.2699   -6.4902 C   0  0  0  0  0  0  0  0  0  0  0  0
    2.8789    2.2260   -6.8750 C   0  0  0  0  0  0  0  0  0  0  0  0
    2.8195    3.4340   -6.2089 C   0  0  0  0  0  0  0  0  0  0  0  0
    3.7026    3.7255   -5.1751 C   0  0  0  0  0  0  0  0  0  0  0  0
    3.6165    5.0258   -4.4391 C   0  0  0  0  0  0  0  0  0  0  0  0
    4.6511    2.7716   -4.8250 C   0  0  0  0  0  0  0  0  0  0  0  0
    4.6999    1.5432   -5.4570 C   0  0  0  0  0  0  0  0  0  0  0  0
    2.9647   -1.2183   -5.2821 C   0  0  0  0  0  0  0  0  0  0  0  0
    1.9505   -0.1159   -4.4247 S   0  0  0  0  0  0  0  0  0  0  0  0
    1.3950   -1.4068   -3.3502 C   0  0  0  0  0  0  0  0  0  0  0  0
    1.9484   -2.6331   -3.6900 C   0  0  0  0  0  0  0  0  0  0  0  0
    1.6722   -3.8581   -3.1003 N   0  0  0  0  0  0  0  0  0  0  0  0
    2.7649   -4.7342   -2.9407 C   0  0  0  0  0  0  0  0  0  0  0  0
    2.6963   -6.0740   -3.3106 C   0  0  0  0  0  0  0  0  0  0  0  0
    3.8011   -6.8884   -3.1593 C   0  0  0  0  0  0  0  0  0  0  0  0
    4.9959   -6.3993   -2.6427 C   0  0  0  0  0  0  0  0  0  0  0  0
    6.1788   -7.2992   -2.4617 C   0  0  0  0  0  0  0  0  0  0  0  0
    5.0571   -5.0587   -2.2819 C   0  0  0  0  0  0  0  0  0  0  0  0
    3.9610   -4.2335   -2.4334 C   0  0  0  0  0  0  0  0  0  0  0  0
    0.3586   -4.3365   -3.0612 C   0  0  0  0  0  0  0  0  0  0  0  0
   -0.5997   -3.8736   -3.9629 C   0  0  0  0  0  0  0  0  0  0  0  0
   -1.8834   -4.3805   -3.9375 C   0  0  0  0  0  0  0  0  0  0  0  0
   -2.2460   -5.3708   -3.0346 C   0  0  0  0  0  0  0  0  0  0  0  0
   -3.6403   -5.9200   -3.0319 C   0  0  0  0  0  0  0  0  0  0  0  0
   -1.2858   -5.8266   -2.1402 C   0  0  0  0  0  0  0  0  0  0  0  0
   -0.0059   -5.3125   -2.1364 C   0  0  0  0  0  0  0  0  0  0  0  0
    2.8780   -2.4922   -4.7472 C   0  0  0  0  0  0  0  0  0  0  0  0
    3.9015   -3.6066   -5.5702 S   0  0  0  0  0  0  0  0  0  0  0  0
    0.5080   -1.0000   -2.3112 C   0  0  0  0  0  0  0  0  0  0  0  0
    0.6293    0.2353   -1.6817 C   0  0  0  0  0  0  0  0  0  0  0  0
    1.7865    0.9983   -1.7027 N   0  0  0  0  0  0  0  0  0  0  0  0
    1.6677    2.3857   -1.5711 C   0  0  0  0  0  0  0  0  0  0  0  0
    0.7533    3.0750   -2.3678 C   0  0  0  0  0  0  0  0  0  0  0  0
    0.5816    4.4311   -2.2073 C   0  0  0  0  0  0  0  0  0  0  0  0
    1.3001    5.1253   -1.2339 C   0  0  0  0  0  0  0  0  0  0  0  0
    0.9325    6.8452   -1.0610 S   0  0  0  0  0  0  0  0  0  0  0  0
    2.0187    7.4006    0.2792 C   0  0  0  0  0  0  0  0  0  0  0  0
    2.2325    4.4476   -0.4604 C   0  0  0  0  0  0  0  0  0  0  0  0
    2.4195    3.0908   -0.6355 C   0  0  0  0  0  0  0  0  0  0  0  0
    3.0161    0.3562   -1.4705 C   0  0  0  0  0  0  0  0  0  0  0  0
    4.1717    0.8615   -2.0534 C   0  0  0  0  0  0  0  0  0  0  0  0
    5.3874    0.2277   -1.8865 C   0  0  0  0  0  0  0  0  0  0  0  0
    5.4671   -0.9273   -1.1205 C   0  0  0  0  0  0  0  0  0  0  0  0
    6.9405   -1.8620   -0.8650 S   0  0  0  0  0  0  0  0  0  0  0  0
    8.2032   -0.9623   -1.8025 C   0  0  0  0  0  0  0  0  0  0  0  0
    4.3161   -1.4148   -0.5012 C   0  0  0  0  0  0  0  0  0  0  0  0
    3.1033   -0.7869   -0.6767 C   0  0  0  0  0  0  0  0  0  0  0  0
   -0.4763    0.5091   -0.8577 C   0  0  0  0  0  0  0  0  0  0  0  0
   -0.9425    1.8851    0.0652 S   0  0  0  0  0  0  0  0  0  0  0  0
   -2.2948    0.9737    0.7490 C   0  0  0  0  0  0  0  0  0  0  0  0
   -2.4046   -0.3011    0.1973 C   0  0  0  0  0  0  0  0  0  0  0  0
   -3.3793   -1.2275    0.5268 N   0  0  0  0  0  0  0  0  0  0  0  0
   -2.9995   -2.5701    0.6624 C   0  0  0  0  0  0  0  0  0  0  0  0
   -3.8383   -3.5999    0.2464 C   0  0  0  0  0  0  0  0  0  0  0  0
   -3.4829   -4.9203    0.4353 C   0  0  0  0  0  0  0  0  0  0  0  0
   -2.2666   -5.2361    1.0244 C   0  0  0  0  0  0  0  0  0  0  0  0
   -1.7175   -6.8847    1.3402 S   0  0  0  0  0  0  0  0  0  0  0  0
   -3.1828   -7.9029    0.9966 C   0  0  0  0  0  0  0  0  0  0  0  0
   -1.4031   -4.2109    1.4012 C   0  0  0  0  0  0  0  0  0  0  0  0
   -1.7674   -2.8948    1.2316 C   0  0  0  0  0  0  0  0  0  0  0  0
   -4.7141   -0.8416    0.6863 C   0  0  0  0  0  0  0  0  0  0  0  0
   -5.2374    0.2248   -0.0460 C   0  0  0  0  0  0  0  0  0  0  0  0
   -6.5575    0.5866    0.1036 C   0  0  0  0  0  0  0  0  0  0  0  0
   -7.3934   -0.1159    0.9674 C   0  0  0  0  0  0  0  0  0  0  0  0
   -9.0691    0.4312    1.0851 S   0  0  0  0  0  0  0  0  0  0  0  0
   -9.9332   -0.9971    1.7988 C   0  0  0  0  0  0  0  0  0  0  0  0
   -6.8785   -1.1773    1.6982 C   0  0  0  0  0  0  0  0  0  0  0  0
   -5.5495   -1.5238    1.5695 C   0  0  0  0  0  0  0  0  0  0  0  0
   -1.3695   -0.5439   -0.7382 C   0  0  0  0  0  0  0  0  0  0  0  0
   -0.9044   -1.8869   -1.7391 S   0  0  0  0  0  0  0  0  0  0  0  0
   -2.9094    1.5442    1.8886 C   0  0  0  0  0  0  0  0  0  0  0  0
   -2.7658    2.8839    2.2469 C   0  0  0  0  0  0  0  0  0  0  0  0
   -2.3602    3.8823    1.3693 N   0  0  0  0  0  0  0  0  0  0  0  0
   -1.5394    4.8882    1.9124 C   0  0  0  0  0  0  0  0  0  0  0  0
   -1.8934    6.2315    1.8386 C   0  0  0  0  0  0  0  0  0  0  0  0
   -1.1307    7.1864    2.4763 C   0  0  0  0  0  0  0  0  0  0  0  0
   -0.0122    6.8096    3.2070 C   0  0  0  0  0  0  0  0  0  0  0  0
    0.9550    7.9912    4.1023 S   0  0  0  0  0  0  0  0  0  0  0  0
   -0.3405    9.1277    4.6845 C   0  0  0  0  0  0  0  0  0  0  0  0
    0.3768    5.4758    3.2384 C   0  0  0  0  0  0  0  0  0  0  0  0
   -0.3806    4.5216    2.5934 C   0  0  0  0  0  0  0  0  0  0  0  0
   -3.0525    4.1008    0.1726 C   0  0  0  0  0  0  0  0  0  0  0  0
   -2.4460    4.8380   -0.8456 C   0  0  0  0  0  0  0  0  0  0  0  0
   -3.1052    5.0601   -2.0322 C   0  0  0  0  0  0  0  0  0  0  0  0
   -4.3838    4.5461   -2.2399 C   0  0  0  0  0  0  0  0  0  0  0  0
   -5.1279    4.8836   -3.8070 S   0  0  0  0  0  0  0  0  0  0  0  0
   -6.8124    4.2268   -3.6418 C   0  0  0  0  0  0  0  0  0  0  0  0
   -4.9903    3.8128   -1.2314 C   0  0  0  0  0  0  0  0  0  0  0  0
   -4.3323    3.5967   -0.0351 C   0  0  0  0  0  0  0  0  0  0  0  0
   -3.0678    3.0993    3.6020 C   0  0  0  0  0  0  0  0  0  0  0  0
   -2.8083    4.4353    4.6589 S   0  0  0  0  0  0  0  0  0  0  0  0
   -3.3639    3.4698    6.0275 C   0  0  0  0  0  0  0  0  0  0  0  0
   -3.7015    2.1459    5.6399 C   0  0  0  0  0  0  0  0  0  0  0  0
   -4.0859    1.1406    6.4998 N   0  0  0  0  0  0  0  0  0  0  0  0
   -3.5281    1.0306    7.7863 C   0  0  0  0  0  0  0  0  0  0  0  0
   -2.1758    1.3153    7.9904 C   0  0  0  0  0  0  0  0  0  0  0  0
   -1.6601    1.3385    9.2651 C   0  0  0  0  0  0  0  0  0  0  0  0
   -2.4732    1.0518   10.3625 C   0  0  0  0  0  0  0  0  0  0  0  0
   -1.7370    1.2013   11.9577 S   0  0  0  0  0  0  0  0  0  0  0  0
   -3.1630    1.2630   13.0778 C   0  0  0  0  0  0  0  0  0  0  0  0
   -3.7924    0.6741   10.1522 C   0  0  0  0  0  0  0  0  0  0  0  0
   -4.3184    0.6740    8.8746 C   0  0  0  0  0  0  0  0  0  0  0  0
   -5.0346    0.2060    6.0677 C   0  0  0  0  0  0  0  0  0  0  0  0
   -6.1079    0.6102    5.2729 C   0  0  0  0  0  0  0  0  0  0  0  0
   -7.0692   -0.2970    4.8912 C   0  0  0  0  0  0  0  0  0  0  0  0
   -6.9779   -1.6287    5.2883 C   0  0  0  0  0  0  0  0  0  0  0  0
   -8.2670   -2.7194    4.7597 S   0  0  0  0  0  0  0  0  0  0  0  0
   -8.0951   -4.1567    5.8512 C   0  0  0  0  0  0  0  0  0  0  0  0
   -5.8993   -2.0415    6.0582 C   0  0  0  0  0  0  0  0  0  0  0  0
   -4.9385   -1.1300    6.4470 C   0  0  0  0  0  0  0  0  0  0  0  0
   -3.5137    1.9584    4.2652 C   0  0  0  0  0  0  0  0  0  0  0  0
   -3.5968    0.5840    3.1953 S   0  0  0  0  0  0  0  0  0  0  0  0
   -3.4394    3.9452    7.3348 C   0  0  0  0  0  0  0  0  0  0  0  0
   -2.8386    5.0450    7.9117 C   0  0  0  0  0  0  0  0  0  0  0  0
   -1.9602    6.0074    7.2448 C   0  0  0  0  0  0  0  0  0  0  0  0
   -1.8587    6.2316    6.0487 O   0  0  0  0  0  0  0  0  0  0  0  0
   -1.2267    6.6992    8.3195 C   0  0  0  0  0  0  0  0  0  0  0  0
   -0.2063    7.5984    8.2210 C   0  0  0  0  0  0  0  0  0  0  0  0
    0.3577    8.1298    9.4032 C   0  0  0  0  0  0  0  0  0  0  0  0
    1.4162    9.0587    9.3596 C   0  0  0  0  0  0  0  0  0  0  0  0
    1.9504    9.5725   10.5091 C   0  0  0  0  0  0  0  0  0  0  0  0
    1.4287    9.1585   11.7412 C   0  0  0  0  0  0  0  0  0  0  0  0
    1.9653    9.6761   12.8628 F   0  0  0  0  0  0  0  0  0  0  0  0
    0.4059    8.2560   11.8394 C   0  0  0  0  0  0  0  0  0  0  0  0
   -0.1559    7.7171   10.6664 C   0  0  0  0  0  0  0  0  0  0  0  0
   -1.2088    6.7729   10.7354 C   0  0  0  0  0  0  0  0  0  0  0  0
   -1.7325    6.2657    9.5778 C   0  0  0  0  0  0  0  0  0  0  0  0
   -2.7825    5.2799    9.3339 C   0  0  0  0  0  0  0  0  0  0  0  0
   -3.5581    4.6913   10.3047 C   0  0  0  0  0  0  0  0  0  0  0  0
   -3.3797    4.8783   11.6884 C   0  0  0  0  0  0  0  0  0  0  0  0
   -3.2898    4.9532   12.8317 N   0  0  0  0  0  0  0  0  0  0  0  0
   -4.6566    3.8462   10.0666 C   0  0  0  0  0  0  0  0  0  0  0  0
   -5.5831    3.1710    9.9719 N   0  0  0  0  0  0  0  0  0  0  0  0
    5.3515   -2.1019   -8.6064 H   0  0  0  0  0  0  0  0  0  0  0  0
    8.3079   -6.3321  -10.1451 H   0  0  0  0  0  0  0  0  0  0  0  0
    9.5619   -8.4589  -10.1810 H   0  0  0  0  0  0  0  0  0  0  0  0
   10.5665  -10.3823   -8.9765 H   0  0  0  0  0  0  0  0  0  0  0  0
    9.3076   -8.7452   -5.2429 H   0  0  0  0  0  0  0  0  0  0  0  0
    8.0842   -6.6214   -5.1699 H   0  0  0  0  0  0  0  0  0  0  0  0
    2.7555   -1.6706   -8.8742 H   0  0  0  0  0  0  0  0  0  0  0  0
    3.0092   -1.6464  -11.3150 H   0  0  0  0  0  0  0  0  0  0  0  0
    3.5107   -0.1611  -13.3310 H   0  0  0  0  0  0  0  0  0  0  0  0
    4.8280    1.0150  -13.1944 H   0  0  0  0  0  0  0  0  0  0  0  0
    5.1674   -0.7151  -13.1144 H   0  0  0  0  0  0  0  0  0  0  0  0
    5.5035    1.8016  -11.0275 H   0  0  0  0  0  0  0  0  0  0  0  0
    5.2722    1.7704   -8.5835 H   0  0  0  0  0  0  0  0  0  0  0  0
    2.2013    2.0116   -7.6884 H   0  0  0  0  0  0  0  0  0  0  0  0
    2.0785    4.1650   -6.4968 H   0  0  0  0  0  0  0  0  0  0  0  0
    2.9027    4.9357   -3.6190 H   0  0  0  0  0  0  0  0  0  0  0  0
    3.2736    5.8232   -5.0939 H   0  0  0  0  0  0  0  0  0  0  0  0
    4.5811    5.3014   -4.0192 H   0  0  0  0  0  0  0  0  0  0  0  0
    5.3724    3.0016   -4.0535 H   0  0  0  0  0  0  0  0  0  0  0  0
    5.4210    0.7946   -5.1644 H   0  0  0  0  0  0  0  0  0  0  0  0
    1.7821   -6.4703   -3.7274 H   0  0  0  0  0  0  0  0  0  0  0  0
    3.7359   -7.9252   -3.4574 H   0  0  0  0  0  0  0  0  0  0  0  0
    6.0992   -7.8320   -1.5136 H   0  0  0  0  0  0  0  0  0  0  0  0
    6.2268   -8.0398   -3.2583 H   0  0  0  0  0  0  0  0  0  0  0  0
    7.1005   -6.7222   -2.4476 H   0  0  0  0  0  0  0  0  0  0  0  0
    5.9709   -4.6521   -1.8751 H   0  0  0  0  0  0  0  0  0  0  0  0
    4.0258   -3.1907   -2.1603 H   0  0  0  0  0  0  0  0  0  0  0  0
   -0.3306   -3.1277   -4.6966 H   0  0  0  0  0  0  0  0  0  0  0  0
   -2.6116   -4.0112   -4.6453 H   0  0  0  0  0  0  0  0  0  0  0  0
   -4.3150   -5.2234   -2.5337 H   0  0  0  0  0  0  0  0  0  0  0  0
   -3.9997   -6.0634   -4.0491 H   0  0  0  0  0  0  0  0  0  0  0  0
   -3.6820   -6.8738   -2.5109 H   0  0  0  0  0  0  0  0  0  0  0  0
   -1.5352   -6.6045   -1.4354 H   0  0  0  0  0  0  0  0  0  0  0  0
    0.7216   -5.6728   -1.4251 H   0  0  0  0  0  0  0  0  0  0  0  0
    0.1859    2.5364   -3.1118 H   0  0  0  0  0  0  0  0  0  0  0  0
   -0.1158    4.9681   -2.8307 H   0  0  0  0  0  0  0  0  0  0  0  0
    1.7949    6.8531    1.1900 H   0  0  0  0  0  0  0  0  0  0  0  0
    1.7925    8.4528    0.4209 H   0  0  0  0  0  0  0  0  0  0  0  0
    3.0584    7.2842   -0.0125 H   0  0  0  0  0  0  0  0  0  0  0  0
    2.8080    4.9599    0.2932 H   0  0  0  0  0  0  0  0  0  0  0  0
    3.1371    2.5649   -0.0234 H   0  0  0  0  0  0  0  0  0  0  0  0
    4.0990    1.7533   -2.6545 H   0  0  0  0  0  0  0  0  0  0  0  0
    6.2591    0.6349   -2.3705 H   0  0  0  0  0  0  0  0  0  0  0  0
    9.1040   -1.5638   -1.7283 H   0  0  0  0  0  0  0  0  0  0  0  0
    7.8957   -0.8825   -2.8412 H   0  0  0  0  0  0  0  0  0  0  0  0
    8.3691    0.0152   -1.3582 H   0  0  0  0  0  0  0  0  0  0  0  0
    4.3887   -2.2936    0.1220 H   0  0  0  0  0  0  0  0  0  0  0  0
    2.2214   -1.1824   -0.1948 H   0  0  0  0  0  0  0  0  0  0  0  0
   -4.7821   -3.3623   -0.2217 H   0  0  0  0  0  0  0  0  0  0  0  0
   -4.1629   -5.6920    0.1139 H   0  0  0  0  0  0  0  0  0  0  0  0
   -4.0183   -7.5607    1.5999 H   0  0  0  0  0  0  0  0  0  0  0  0
   -3.4258   -7.8755   -0.0619 H   0  0  0  0  0  0  0  0  0  0  0  0
   -2.9094   -8.9139    1.2823 H   0  0  0  0  0  0  0  0  0  0  0  0
   -0.4529   -4.4608    1.8475 H   0  0  0  0  0  0  0  0  0  0  0  0
   -1.1067   -2.1064    1.5601 H   0  0  0  0  0  0  0  0  0  0  0  0
   -4.6071    0.7614   -0.7396 H   0  0  0  0  0  0  0  0  0  0  0  0
   -6.9664    1.4090   -0.4627 H   0  0  0  0  0  0  0  0  0  0  0  0
  -10.9915   -0.7712    1.7129 H   0  0  0  0  0  0  0  0  0  0  0  0
   -9.6688   -1.1285    2.8441 H   0  0  0  0  0  0  0  0  0  0  0  0
   -9.6938   -1.8867    1.2248 H   0  0  0  0  0  0  0  0  0  0  0  0
   -7.4999   -1.7368    2.3771 H   0  0  0  0  0  0  0  0  0  0  0  0
   -5.1517   -2.3308    2.1657 H   0  0  0  0  0  0  0  0  0  0  0  0
   -2.7810    6.5230    1.2979 H   0  0  0  0  0  0  0  0  0  0  0  0
   -1.4259    8.2215    2.4157 H   0  0  0  0  0  0  0  0  0  0  0  0
   -0.6640    9.7820    3.8803 H   0  0  0  0  0  0  0  0  0  0  0  0
    0.1041    9.7237    5.4759 H   0  0  0  0  0  0  0  0  0  0  0  0
   -1.1654    8.5333    5.0669 H   0  0  0  0  0  0  0  0  0  0  0  0
    1.2632    5.1944    3.7866 H   0  0  0  0  0  0  0  0  0  0  0  0
   -0.0955    3.4804    2.6285 H   0  0  0  0  0  0  0  0  0  0  0  0
   -1.4575    5.2382   -0.6920 H   0  0  0  0  0  0  0  0  0  0  0  0
   -2.6384    5.6381   -2.8148 H   0  0  0  0  0  0  0  0  0  0  0  0
   -7.3169    4.4822   -4.5685 H   0  0  0  0  0  0  0  0  0  0  0  0
   -6.7847    3.1471   -3.5246 H   0  0  0  0  0  0  0  0  0  0  0  0
   -7.3149    4.7032   -2.8051 H   0  0  0  0  0  0  0  0  0  0  0  0
   -5.9831    3.4119   -1.3546 H   0  0  0  0  0  0  0  0  0  0  0  0
   -4.8302    3.0381    0.7438 H   0  0  0  0  0  0  0  0  0  0  0  0
   -1.5456    1.5504    7.1457 H   0  0  0  0  0  0  0  0  0  0  0  0
   -0.6232    1.5869    9.4315 H   0  0  0  0  0  0  0  0  0  0  0  0
   -3.8793    1.9943   12.7157 H   0  0  0  0  0  0  0  0  0  0  0  0
   -2.7669    1.5823   14.0365 H   0  0  0  0  0  0  0  0  0  0  0  0
   -3.6124    0.2785   13.1723 H   0  0  0  0  0  0  0  0  0  0  0  0
   -4.4338    0.4123   10.9772 H   0  0  0  0  0  0  0  0  0  0  0  0
   -5.3590    0.4315    8.7257 H   0  0  0  0  0  0  0  0  0  0  0  0
   -6.1998    1.6453    4.9810 H   0  0  0  0  0  0  0  0  0  0  0  0
   -7.9101    0.0295    4.3002 H   0  0  0  0  0  0  0  0  0  0  0  0
   -7.2127   -4.7310    5.5832 H   0  0  0  0  0  0  0  0  0  0  0  0
   -8.0520   -3.8238    6.8838 H   0  0  0  0  0  0  0  0  0  0  0  0
   -8.9858   -4.7564    5.6905 H   0  0  0  0  0  0  0  0  0  0  0  0
   -5.7922   -3.0711    6.3601 H   0  0  0  0  0  0  0  0  0  0  0  0
   -4.1034   -1.4554    7.0490 H   0  0  0  0  0  0  0  0  0  0  0  0
   -3.9763    3.2974    8.0152 H   0  0  0  0  0  0  0  0  0  0  0  0
    0.1792    7.8921    7.2569 H   0  0  0  0  0  0  0  0  0  0  0  0
    1.8032    9.3593    8.3973 H   0  0  0  0  0  0  0  0  0  0  0  0
    2.7603   10.2845   10.4935 H   0  0  0  0  0  0  0  0  0  0  0  0
    0.0320    7.9577   12.8064 H   0  0  0  0  0  0  0  0  0  0  0  0
   -1.5662    6.4692   11.7064 H   0  0  0  0  0  0  0  0  0  0  0  0
  1  2  2  0  0  0  0
  2  3  1  0  0  0  0
  3  4  2  0  0  0  0
  3  5  1  0  0  0  0
  5  6  2  0  0  0  0
  6  7  1  0  0  0  0
  7  8  2  0  0  0  0
  8  9  1  0  0  0  0
  9 10  2  0  0  0  0
 10 11  1  0  0  0  0
 10 12  1  0  0  0  0
 12 13  2  0  0  0  0
 13 14  1  0  0  0  0
 14 15  2  0  0  0  0
 15 16  1  0  0  0  0
 16 17  2  0  0  0  0
 17 18  1  0  0  0  0
 18 19  3  0  0  0  0
 17 20  1  0  0  0  0
 20 21  3  0  0  0  0
  1 22  1  0  0  0  0
 22 23  2  0  0  0  0
 23 24  1  0  0  0  0
 24 25  1  0  0  0  0
 25 26  2  0  0  0  0
 26 27  1  0  0  0  0
 27 28  2  0  0  0  0
 28 29  1  0  0  0  0
 28 30  1  0  0  0  0
 30 31  2  0  0  0  0
 24 32  1  0  0  0  0
 32 33  2  0  0  0  0
 33 34  1  0  0  0  0
 34 35  2  0  0  0  0
 35 36  1  0  0  0  0
 35 37  1  0  0  0  0
 37 38  2  0  0  0  0
 23 39  1  0  0  0  0
 39 40  1  0  0  0  0
 40 41  1  0  0  0  0
 41 42  2  0  0  0  0
 42 43  1  0  0  0  0
 43 44  1  0  0  0  0
 44 45  2  0  0  0  0
 45 46  1  0  0  0  0
 46 47  2  0  0  0  0
 47 48  1  0  0  0  0
 47 49  1  0  0  0  0
 49 50  2  0  0  0  0
 43 51  1  0  0  0  0
 51 52  2  0  0  0  0
 52 53  1  0  0  0  0
 53 54  2  0  0  0  0
 54 55  1  0  0  0  0
 54 56  1  0  0  0  0
 56 57  2  0  0  0  0
 42 58  1  0  0  0  0
 58 59  1  0  0  0  0
 41 60  1  0  0  0  0
 60 61  2  0  0  0  0
 61 62  1  0  0  0  0
 62 63  1  0  0  0  0
 63 64  2  0  0  0  0
 64 65  1  0  0  0  0
 65 66  2  0  0  0  0
 66 67  1  0  0  0  0
 67 68  1  0  0  0  0
 66 69  1  0  0  0  0
 69 70  2  0  0  0  0
 62 71  1  0  0  0  0
 71 72  2  0  0  0  0
 72 73  1  0  0  0  0
 73 74  2  0  0  0  0
 74 75  1  0  0  0  0
 75 76  1  0  0  0  0
 74 77  1  0  0  0  0
 77 78  2  0  0  0  0
 61 79  1  0  0  0  0
 79 80  1  0  0  0  0
 80 81  1  0  0  0  0
 81 82  2  0  0  0  0
 82 83  1  0  0  0  0
 83 84  1  0  0  0  0
 84 85  2  0  0  0  0
 85 86  1  0  0  0  0
 86 87  2  0  0  0  0
 87 88  1  0  0  0  0
 88 89  1  0  0  0  0
 87 90  1  0  0  0  0
 90 91  2  0  0  0  0
 83 92  1  0  0  0  0
 92 93  2  0  0  0  0
 93 94  1  0  0  0  0
 94 95  2  0  0  0  0
 95 96  1  0  0  0  0
 96 97  1  0  0  0  0
 95 98  1  0  0  0  0
 98 99  2  0  0  0  0
 82100  1  0  0  0  0
100101  1  0  0  0  0
 81102  1  0  0  0  0
102103  2  0  0  0  0
103104  1  0  0  0  0
104105  1  0  0  0  0
105106  2  0  0  0  0
106107  1  0  0  0  0
107108  2  0  0  0  0
108109  1  0  0  0  0
109110  1  0  0  0  0
108111  1  0  0  0  0
111112  2  0  0  0  0
104113  1  0  0  0  0
113114  2  0  0  0  0
114115  1  0  0  0  0
115116  2  0  0  0  0
116117  1  0  0  0  0
117118  1  0  0  0  0
116119  1  0  0  0  0
119120  2  0  0  0  0
103121  1  0  0  0  0
121122  1  0  0  0  0
122123  1  0  0  0  0
123124  2  0  0  0  0
124125  1  0  0  0  0
125126  1  0  0  0  0
126127  2  0  0  0  0
127128  1  0  0  0  0
128129  2  0  0  0  0
129130  1  0  0  0  0
130131  1  0  0  0  0
129132  1  0  0  0  0
132133  2  0  0  0  0
125134  1  0  0  0  0
134135  2  0  0  0  0
135136  1  0  0  0  0
136137  2  0  0  0  0
137138  1  0  0  0  0
138139  1  0  0  0  0
137140  1  0  0  0  0
140141  2  0  0  0  0
124142  1  0  0  0  0
142143  1  0  0  0  0
123144  1  0  0  0  0
144145  2  0  0  0  0
145146  1  0  0  0  0
146147  2  0  0  0  0
146148  1  0  0  0  0
148149  2  0  0  0  0
149150  1  0  0  0  0
150151  2  0  0  0  0
151152  1  0  0  0  0
152153  2  0  0  0  0
153154  1  0  0  0  0
153155  1  0  0  0  0
155156  2  0  0  0  0
156157  1  0  0  0  0
157158  2  0  0  0  0
158159  1  0  0  0  0
159160  2  0  0  0  0
160161  1  0  0  0  0
161162  3  0  0  0  0
160163  1  0  0  0  0
163164  3  0  0  0  0
 16  2  1  0  0  0  0
 59 22  1  0  0  0  0
101 60  1  0  0  0  0
143102  1  0  0  0  0
159145  1  0  0  0  0
 15  5  1  0  0  0  0
 31 25  1  0  0  0  0
 38 32  1  0  0  0  0
 58 39  2  0  0  0  0
 70 63  1  0  0  0  0
 78 71  1  0  0  0  0
100 79  2  0  0  0  0
112105  1  0  0  0  0
120113  1  0  0  0  0
142121  2  0  0  0  0
158148  1  0  0  0  0
 13  7  1  0  0  0  0
 50 44  1  0  0  0  0
 57 51  1  0  0  0  0
 91 84  1  0  0  0  0
 99 92  1  0  0  0  0
133126  1  0  0  0  0
141134  1  0  0  0  0
156150  1  0  0  0  0
  1165  1  0  0  0  0
  6166  1  0  0  0  0
  8167  1  0  0  0  0
  9168  1  0  0  0  0
 12169  1  0  0  0  0
 14170  1  0  0  0  0
 26171  1  0  0  0  0
 27172  1  0  0  0  0
 29173  1  0  0  0  0
 29174  1  0  0  0  0
 29175  1  0  0  0  0
 30176  1  0  0  0  0
 31177  1  0  0  0  0
 33178  1  0  0  0  0
 34179  1  0  0  0  0
 36180  1  0  0  0  0
 36181  1  0  0  0  0
 36182  1  0  0  0  0
 37183  1  0  0  0  0
 38184  1  0  0  0  0
 45185  1  0  0  0  0
 46186  1  0  0  0  0
 48187  1  0  0  0  0
 48188  1  0  0  0  0
 48189  1  0  0  0  0
 49190  1  0  0  0  0
 50191  1  0  0  0  0
 52192  1  0  0  0  0
 53193  1  0  0  0  0
 55194  1  0  0  0  0
 55195  1  0  0  0  0
 55196  1  0  0  0  0
 56197  1  0  0  0  0
 57198  1  0  0  0  0
 64199  1  0  0  0  0
 65200  1  0  0  0  0
 68201  1  0  0  0  0
 68202  1  0  0  0  0
 68203  1  0  0  0  0
 69204  1  0  0  0  0
 70205  1  0  0  0  0
 72206  1  0  0  0  0
 73207  1  0  0  0  0
 76208  1  0  0  0  0
 76209  1  0  0  0  0
 76210  1  0  0  0  0
 77211  1  0  0  0  0
 78212  1  0  0  0  0
 85213  1  0  0  0  0
 86214  1  0  0  0  0
 89215  1  0  0  0  0
 89216  1  0  0  0  0
 89217  1  0  0  0  0
 90218  1  0  0  0  0
 91219  1  0  0  0  0
 93220  1  0  0  0  0
 94221  1  0  0  0  0
 97222  1  0  0  0  0
 97223  1  0  0  0  0
 97224  1  0  0  0  0
 98225  1  0  0  0  0
 99226  1  0  0  0  0
106227  1  0  0  0  0
107228  1  0  0  0  0
110229  1  0  0  0  0
110230  1  0  0  0  0
110231  1  0  0  0  0
111232  1  0  0  0  0
112233  1  0  0  0  0
114234  1  0  0  0  0
115235  1  0  0  0  0
118236  1  0  0  0  0
118237  1  0  0  0  0
118238  1  0  0  0  0
119239  1  0  0  0  0
120240  1  0  0  0  0
127241  1  0  0  0  0
128242  1  0  0  0  0
131243  1  0  0  0  0
131244  1  0  0  0  0
131245  1  0  0  0  0
132246  1  0  0  0  0
133247  1  0  0  0  0
135248  1  0  0  0  0
136249  1  0  0  0  0
139250  1  0  0  0  0
139251  1  0  0  0  0
139252  1  0  0  0  0
140253  1  0  0  0  0
141254  1  0  0  0  0
144255  1  0  0  0  0
149256  1  0  0  0  0
151257  1  0  0  0  0
152258  1  0  0  0  0
155259  1  0  0  0  0
157260  1  0  0  0  0
M  END
