
  xtb     02112219353D
 energy: -405.661193351259 gnorm: 0.000416031663 xtb: 6.4.1 (unknown)
246268  0     0  0            999 V2000
    2.4480   -7.9476   -4.1638 C   0  0  0  0  0  0  0  0  0  0  0  0
    3.6294   -8.5582   -3.7761 C   0  0  0  0  0  0  0  0  0  0  0  0
    4.3834   -8.1757   -2.5760 C   0  0  0  0  0  0  0  0  0  0  0  0
    4.1272   -7.2795   -1.7907 O   0  0  0  0  0  0  0  0  0  0  0  0
    5.4576   -9.1830   -2.4443 C   0  0  0  0  0  0  0  0  0  0  0  0
    6.4311   -9.2783   -1.4962 C   0  0  0  0  0  0  0  0  0  0  0  0
    7.3796  -10.3242   -1.5847 C   0  0  0  0  0  0  0  0  0  0  0  0
    8.4126  -10.4650   -0.6373 C   0  0  0  0  0  0  0  0  0  0  0  0
    9.3225  -11.4822   -0.7306 C   0  0  0  0  0  0  0  0  0  0  0  0
    9.2150  -12.3896   -1.7915 C   0  0  0  0  0  0  0  0  0  0  0  0
   10.1205  -13.3853   -1.8692 F   0  0  0  0  0  0  0  0  0  0  0  0
    8.2331  -12.2973   -2.7386 C   0  0  0  0  0  0  0  0  0  0  0  0
    7.2880  -11.2571   -2.6565 C   0  0  0  0  0  0  0  0  0  0  0  0
    6.2598  -11.1348   -3.6225 C   0  0  0  0  0  0  0  0  0  0  0  0
    5.3611  -10.1103   -3.5190 C   0  0  0  0  0  0  0  0  0  0  0  0
    4.2333   -9.7169   -4.3603 C   0  0  0  0  0  0  0  0  0  0  0  0
    3.9151  -10.2613   -5.5840 C   0  0  0  0  0  0  0  0  0  0  0  0
    2.9126   -9.7545   -6.4318 C   0  0  0  0  0  0  0  0  0  0  0  0
    2.1355   -9.3734   -7.1881 N   0  0  0  0  0  0  0  0  0  0  0  0
    4.6065  -11.3339   -6.1717 C   0  0  0  0  0  0  0  0  0  0  0  0
    5.1472  -12.1979   -6.7038 N   0  0  0  0  0  0  0  0  0  0  0  0
    2.0816   -6.6365   -3.8810 C   0  0  0  0  0  0  0  0  0  0  0  0
    2.8598   -5.4985   -3.5554 C   0  0  0  0  0  0  0  0  0  0  0  0
    4.2144   -5.3788   -3.6472 N   0  0  0  0  0  0  0  0  0  0  0  0
    5.0007   -6.1907   -4.4782 C   0  0  0  0  0  0  0  0  0  0  0  0
    4.5711   -6.5577   -5.7529 C   0  0  0  0  0  0  0  0  0  0  0  0
    5.3451   -7.3923   -6.5305 C   0  0  0  0  0  0  0  0  0  0  0  0
    6.5636   -7.8863   -6.0685 C   0  0  0  0  0  0  0  0  0  0  0  0
    7.3618   -8.8334   -6.9074 C   0  0  0  0  0  0  0  0  0  0  0  0
    7.0056   -7.4778   -4.8178 C   0  0  0  0  0  0  0  0  0  0  0  0
    6.2415   -6.6372   -4.0296 C   0  0  0  0  0  0  0  0  0  0  0  0
    4.8709   -4.3600   -2.9217 C   0  0  0  0  0  0  0  0  0  0  0  0
    5.7897   -3.5366   -3.5640 C   0  0  0  0  0  0  0  0  0  0  0  0
    6.4220   -2.5317   -2.8590 C   0  0  0  0  0  0  0  0  0  0  0  0
    6.1519   -2.3200   -1.5108 C   0  0  0  0  0  0  0  0  0  0  0  0
    6.8454   -1.2281   -0.7559 C   0  0  0  0  0  0  0  0  0  0  0  0
    5.2459   -3.1613   -0.8766 C   0  0  0  0  0  0  0  0  0  0  0  0
    4.6134   -4.1773   -1.5667 C   0  0  0  0  0  0  0  0  0  0  0  0
    2.0211   -4.4126   -3.2299 C   0  0  0  0  0  0  0  0  0  0  0  0
    2.3240   -2.7798   -2.7441 S   0  0  0  0  0  0  0  0  0  0  0  0
    0.6030   -2.4352   -2.7244 C   0  0  0  0  0  0  0  0  0  0  0  0
   -0.1577   -3.5305   -3.1362 C   0  0  0  0  0  0  0  0  0  0  0  0
   -1.5416   -3.5356   -3.2664 N   0  0  0  0  0  0  0  0  0  0  0  0
   -2.2320   -4.6546   -2.7758 C   0  0  0  0  0  0  0  0  0  0  0  0
   -3.3101   -5.2052   -3.4643 C   0  0  0  0  0  0  0  0  0  0  0  0
   -3.9547   -6.3172   -2.9653 C   0  0  0  0  0  0  0  0  0  0  0  0
   -3.5358   -6.9274   -1.7879 C   0  0  0  0  0  0  0  0  0  0  0  0
   -4.2391   -8.1481   -1.2793 C   0  0  0  0  0  0  0  0  0  0  0  0
   -2.4524   -6.3803   -1.1144 C   0  0  0  0  0  0  0  0  0  0  0  0
   -1.8139   -5.2511   -1.5897 C   0  0  0  0  0  0  0  0  0  0  0  0
   -2.1826   -2.5494   -4.0233 C   0  0  0  0  0  0  0  0  0  0  0  0
   -3.5020   -2.1896   -3.7420 C   0  0  0  0  0  0  0  0  0  0  0  0
   -4.1193   -1.1934   -4.4671 C   0  0  0  0  0  0  0  0  0  0  0  0
   -3.4501   -0.5197   -5.4842 C   0  0  0  0  0  0  0  0  0  0  0  0
   -4.1419    0.5557   -6.2654 C   0  0  0  0  0  0  0  0  0  0  0  0
   -2.1373   -0.8800   -5.7546 C   0  0  0  0  0  0  0  0  0  0  0  0
   -1.5066   -1.8810   -5.0409 C   0  0  0  0  0  0  0  0  0  0  0  0
    0.6611   -4.6470   -3.3968 C   0  0  0  0  0  0  0  0  0  0  0  0
    0.3494   -6.2531   -3.9424 S   0  0  0  0  0  0  0  0  0  0  0  0
    0.1346   -1.2357   -2.1408 C   0  0  0  0  0  0  0  0  0  0  0  0
    0.8901   -0.1388   -1.7243 C   0  0  0  0  0  0  0  0  0  0  0  0
    2.2033    0.1033   -2.1110 N   0  0  0  0  0  0  0  0  0  0  0  0
    3.1081    0.5486   -1.1440 C   0  0  0  0  0  0  0  0  0  0  0  0
    3.0040    0.0820    0.1678 C   0  0  0  0  0  0  0  0  0  0  0  0
    3.8696    0.5303    1.1384 C   0  0  0  0  0  0  0  0  0  0  0  0
    4.8765    1.4399    0.8221 C   0  0  0  0  0  0  0  0  0  0  0  0
    5.9322    1.9391    2.1486 S   0  0  0  0  0  0  0  0  0  0  0  0
    7.2192    2.9288    1.3366 C   0  0  0  0  0  0  0  0  0  0  0  0
    4.9936    1.8972   -0.4825 C   0  0  0  0  0  0  0  0  0  0  0  0
    4.1096    1.4648   -1.4510 C   0  0  0  0  0  0  0  0  0  0  0  0
    2.5460    0.0270   -3.4656 C   0  0  0  0  0  0  0  0  0  0  0  0
    3.8368   -0.3440   -3.8524 C   0  0  0  0  0  0  0  0  0  0  0  0
    4.1564   -0.4658   -5.1841 C   0  0  0  0  0  0  0  0  0  0  0  0
    3.1990   -0.2286   -6.1694 C   0  0  0  0  0  0  0  0  0  0  0  0
    3.7262   -0.4338   -7.8420 S   0  0  0  0  0  0  0  0  0  0  0  0
    2.2162   -0.1709   -8.8143 C   0  0  0  0  0  0  0  0  0  0  0  0
    1.9173    0.1459   -5.7918 C   0  0  0  0  0  0  0  0  0  0  0  0
    1.5970    0.2751   -4.4541 C   0  0  0  0  0  0  0  0  0  0  0  0
    0.1389    0.7068   -0.8799 C   0  0  0  0  0  0  0  0  0  0  0  0
    0.4804    2.1449    0.0278 S   0  0  0  0  0  0  0  0  0  0  0  0
   -1.1715    2.1722    0.6415 C   0  0  0  0  0  0  0  0  0  0  0  0
   -1.9457    1.1640    0.0858 C   0  0  0  0  0  0  0  0  0  0  0  0
   -3.3230    1.0818    0.2410 N   0  0  0  0  0  0  0  0  0  0  0  0
   -3.9181   -0.1835    0.1939 C   0  0  0  0  0  0  0  0  0  0  0  0
   -5.0603   -0.4208   -0.5712 C   0  0  0  0  0  0  0  0  0  0  0  0
   -5.5858   -1.6901   -0.6543 C   0  0  0  0  0  0  0  0  0  0  0  0
   -4.9819   -2.7545    0.0132 C   0  0  0  0  0  0  0  0  0  0  0  0
   -5.7200   -4.3452   -0.2036 S   0  0  0  0  0  0  0  0  0  0  0  0
   -4.9730   -5.3407    1.1161 C   0  0  0  0  0  0  0  0  0  0  0  0
   -3.8530   -2.5208    0.7861 C   0  0  0  0  0  0  0  0  0  0  0  0
   -3.3344   -1.2442    0.8826 C   0  0  0  0  0  0  0  0  0  0  0  0
   -4.0904    2.2466    0.0936 C   0  0  0  0  0  0  0  0  0  0  0  0
   -5.2892    2.3830    0.7919 C   0  0  0  0  0  0  0  0  0  0  0  0
   -6.0550    3.5185    0.6485 C   0  0  0  0  0  0  0  0  0  0  0  0
   -5.6442    4.5478   -0.1970 C   0  0  0  0  0  0  0  0  0  0  0  0
   -6.7003    5.9585   -0.2999 S   0  0  0  0  0  0  0  0  0  0  0  0
   -5.8760    7.0408   -1.5009 C   0  0  0  0  0  0  0  0  0  0  0  0
   -4.4491    4.4186   -0.8918 C   0  0  0  0  0  0  0  0  0  0  0  0
   -3.6820    3.2800   -0.7454 C   0  0  0  0  0  0  0  0  0  0  0  0
   -1.1820    0.3109   -0.7337 C   0  0  0  0  0  0  0  0  0  0  0  0
   -1.5340   -1.1385   -1.5944 S   0  0  0  0  0  0  0  0  0  0  0  0
   -1.6355    2.9452    1.7566 C   0  0  0  0  0  0  0  0  0  0  0  0
   -1.6301    4.2923    2.0669 C   0  0  0  0  0  0  0  0  0  0  0  0
   -1.1598    5.3095    1.2532 N   0  0  0  0  0  0  0  0  0  0  0  0
   -1.8610    6.5255    1.2324 C   0  0  0  0  0  0  0  0  0  0  0  0
   -3.2493    6.5315    1.3489 C   0  0  0  0  0  0  0  0  0  0  0  0
   -3.9448    7.7235    1.3718 C   0  0  0  0  0  0  0  0  0  0  0  0
   -3.2861    8.9404    1.2565 C   0  0  0  0  0  0  0  0  0  0  0  0
   -4.0426   10.2316    1.3113 C   0  0  0  0  0  0  0  0  0  0  0  0
   -1.9032    8.9266    1.1226 C   0  0  0  0  0  0  0  0  0  0  0  0
   -1.1939    7.7424    1.1187 C   0  0  0  0  0  0  0  0  0  0  0  0
    0.1140    5.2237    0.6733 C   0  0  0  0  0  0  0  0  0  0  0  0
    1.1862    4.6880    1.3814 C   0  0  0  0  0  0  0  0  0  0  0  0
    2.4494    4.6685    0.8191 C   0  0  0  0  0  0  0  0  0  0  0  0
    2.6731    5.1811   -0.4506 C   0  0  0  0  0  0  0  0  0  0  0  0
    4.0430    5.2004   -1.0554 C   0  0  0  0  0  0  0  0  0  0  0  0
    1.5909    5.6910   -1.1614 C   0  0  0  0  0  0  0  0  0  0  0  0
    0.3263    5.7135   -0.6133 C   0  0  0  0  0  0  0  0  0  0  0  0
   -2.2585    4.5374    3.3181 C   0  0  0  0  0  0  0  0  0  0  0  0
   -2.5107    5.9673    4.2489 S   0  0  0  0  0  0  0  0  0  0  0  0
   -3.2764    5.0120    5.5248 C   0  0  0  0  0  0  0  0  0  0  0  0
   -3.2702    3.6272    5.2278 C   0  0  0  0  0  0  0  0  0  0  0  0
   -3.7022    2.6297    6.0597 N   0  0  0  0  0  0  0  0  0  0  0  0
   -3.5325    2.7031    7.4583 C   0  0  0  0  0  0  0  0  0  0  0  0
   -2.3596    3.2142    8.0063 C   0  0  0  0  0  0  0  0  0  0  0  0
   -2.2182    3.2959    9.3766 C   0  0  0  0  0  0  0  0  0  0  0  0
   -3.2259    2.8610   10.2299 C   0  0  0  0  0  0  0  0  0  0  0  0
   -3.0867    2.9944   11.7138 C   0  0  0  0  0  0  0  0  0  0  0  0
   -4.3796    2.3236    9.6716 C   0  0  0  0  0  0  0  0  0  0  0  0
   -4.5376    2.2421    8.3025 C   0  0  0  0  0  0  0  0  0  0  0  0
   -4.1809    1.4246    5.5121 C   0  0  0  0  0  0  0  0  0  0  0  0
   -3.7731    0.2032    6.0394 C   0  0  0  0  0  0  0  0  0  0  0  0
   -4.2542   -0.9769    5.5077 C   0  0  0  0  0  0  0  0  0  0  0  0
   -5.1522   -0.9724    4.4480 C   0  0  0  0  0  0  0  0  0  0  0  0
   -5.6936   -2.2476    3.8803 C   0  0  0  0  0  0  0  0  0  0  0  0
   -5.5616    0.2530    3.9355 C   0  0  0  0  0  0  0  0  0  0  0  0
   -5.0851    1.4409    4.4523 C   0  0  0  0  0  0  0  0  0  0  0  0
   -2.7224    3.3953    3.9542 C   0  0  0  0  0  0  0  0  0  0  0  0
   -2.3992    1.9743    3.0250 S   0  0  0  0  0  0  0  0  0  0  0  0
   -3.8778    5.5798    6.6458 C   0  0  0  0  0  0  0  0  0  0  0  0
   -3.9612    6.8920    7.0447 C   0  0  0  0  0  0  0  0  0  0  0  0
   -3.4320    8.0927    6.4188 C   0  0  0  0  0  0  0  0  0  0  0  0
   -2.8045    8.1975    5.3801 O   0  0  0  0  0  0  0  0  0  0  0  0
   -3.8095    9.2173    7.3200 C   0  0  0  0  0  0  0  0  0  0  0  0
   -3.5519   10.5660    7.1866 C   0  0  0  0  0  0  0  0  0  0  0  0
   -4.0152   11.4240    8.1794 C   0  0  0  0  0  0  0  0  0  0  0  0
   -3.7130   13.1118    8.0445 Cl  0  0  0  0  0  0  0  0  0  0  0  0
   -4.7195   10.9299    9.2799 C   0  0  0  0  0  0  0  0  0  0  0  0
   -5.2798   12.0126   10.4930 Cl  0  0  0  0  0  0  0  0  0  0  0  0
   -4.9752    9.5677    9.4093 C   0  0  0  0  0  0  0  0  0  0  0  0
   -4.5157    8.7217    8.4214 C   0  0  0  0  0  0  0  0  0  0  0  0
   -4.6404    7.2422    8.2978 C   0  0  0  0  0  0  0  0  0  0  0  0
   -5.1793    6.4882    9.0813 O   0  0  0  0  0  0  0  0  0  0  0  0
    1.7123   -8.5398   -4.6948 H   0  0  0  0  0  0  0  0  0  0  0  0
    6.4861   -8.5623   -0.6895 H   0  0  0  0  0  0  0  0  0  0  0  0
    8.4743   -9.7529    0.1722 H   0  0  0  0  0  0  0  0  0  0  0  0
   10.1169  -11.6050   -0.0116 H   0  0  0  0  0  0  0  0  0  0  0  0
    8.1814  -13.0144   -3.5431 H   0  0  0  0  0  0  0  0  0  0  0  0
    6.2103  -11.8615   -4.4176 H   0  0  0  0  0  0  0  0  0  0  0  0
    3.6278   -6.1919   -6.1298 H   0  0  0  0  0  0  0  0  0  0  0  0
    4.9949   -7.6754   -7.5124 H   0  0  0  0  0  0  0  0  0  0  0  0
    8.3051   -9.0792   -6.4268 H   0  0  0  0  0  0  0  0  0  0  0  0
    7.5669   -8.3979   -7.8842 H   0  0  0  0  0  0  0  0  0  0  0  0
    6.8061   -9.7569   -7.0695 H   0  0  0  0  0  0  0  0  0  0  0  0
    7.9544   -7.8341   -4.4431 H   0  0  0  0  0  0  0  0  0  0  0  0
    6.5926   -6.3346   -3.0544 H   0  0  0  0  0  0  0  0  0  0  0  0
    5.9965   -3.6842   -4.6138 H   0  0  0  0  0  0  0  0  0  0  0  0
    7.1315   -1.8936   -3.3663 H   0  0  0  0  0  0  0  0  0  0  0  0
    7.8174   -1.5765   -0.4050 H   0  0  0  0  0  0  0  0  0  0  0  0
    6.2603   -0.9239    0.1083 H   0  0  0  0  0  0  0  0  0  0  0  0
    7.0098   -0.3614   -1.3933 H   0  0  0  0  0  0  0  0  0  0  0  0
    5.0362   -3.0202    0.1734 H   0  0  0  0  0  0  0  0  0  0  0  0
    3.9366   -4.8525   -1.0670 H   0  0  0  0  0  0  0  0  0  0  0  0
   -3.6322   -4.7633   -4.3950 H   0  0  0  0  0  0  0  0  0  0  0  0
   -4.7926   -6.7315   -3.5065 H   0  0  0  0  0  0  0  0  0  0  0  0
   -4.0877   -8.9815   -1.9649 H   0  0  0  0  0  0  0  0  0  0  0  0
   -5.3107   -7.9674   -1.2095 H   0  0  0  0  0  0  0  0  0  0  0  0
   -3.8651   -8.4375   -0.3001 H   0  0  0  0  0  0  0  0  0  0  0  0
   -2.0974   -6.8443   -0.2040 H   0  0  0  0  0  0  0  0  0  0  0  0
   -0.9835   -4.8262   -1.0438 H   0  0  0  0  0  0  0  0  0  0  0  0
   -4.0281   -2.6812   -2.9380 H   0  0  0  0  0  0  0  0  0  0  0  0
   -5.1384   -0.9232   -4.2311 H   0  0  0  0  0  0  0  0  0  0  0  0
   -3.4382    1.0978   -6.8926 H   0  0  0  0  0  0  0  0  0  0  0  0
   -4.9081    0.1206   -6.9071 H   0  0  0  0  0  0  0  0  0  0  0  0
   -4.6315    1.2611   -5.5959 H   0  0  0  0  0  0  0  0  0  0  0  0
   -1.5972   -0.3737   -6.5425 H   0  0  0  0  0  0  0  0  0  0  0  0
   -0.4847   -2.1461   -5.2717 H   0  0  0  0  0  0  0  0  0  0  0  0
    2.2423   -0.6412    0.4168 H   0  0  0  0  0  0  0  0  0  0  0  0
    3.7843    0.1735    2.1536 H   0  0  0  0  0  0  0  0  0  0  0  0
    6.7928    3.8399    0.9263 H   0  0  0  0  0  0  0  0  0  0  0  0
    7.9305    3.1786    2.1176 H   0  0  0  0  0  0  0  0  0  0  0  0
    7.7077    2.3394    0.5664 H   0  0  0  0  0  0  0  0  0  0  0  0
    5.7638    2.5986   -0.7584 H   0  0  0  0  0  0  0  0  0  0  0  0
    4.1944    1.8461   -2.4576 H   0  0  0  0  0  0  0  0  0  0  0  0
    4.5740   -0.5687   -3.0978 H   0  0  0  0  0  0  0  0  0  0  0  0
    5.1504   -0.7645   -5.4791 H   0  0  0  0  0  0  0  0  0  0  0  0
    1.4577   -0.8914   -8.5223 H   0  0  0  0  0  0  0  0  0  0  0  0
    1.8642    0.8491   -8.6901 H   0  0  0  0  0  0  0  0  0  0  0  0
    2.5030   -0.3367   -9.8481 H   0  0  0  0  0  0  0  0  0  0  0  0
    1.1548    0.3458   -6.5271 H   0  0  0  0  0  0  0  0  0  0  0  0
    0.5945    0.5673   -4.1779 H   0  0  0  0  0  0  0  0  0  0  0  0
   -5.5227    0.3932   -1.1089 H   0  0  0  0  0  0  0  0  0  0  0  0
   -6.4649   -1.8788   -1.2516 H   0  0  0  0  0  0  0  0  0  0  0  0
   -3.9248   -5.5179    0.8964 H   0  0  0  0  0  0  0  0  0  0  0  0
   -5.5126   -6.2823    1.1142 H   0  0  0  0  0  0  0  0  0  0  0  0
   -5.1050   -4.8389    2.0699 H   0  0  0  0  0  0  0  0  0  0  0  0
   -3.3653   -3.3236    1.3145 H   0  0  0  0  0  0  0  0  0  0  0  0
   -2.4641   -1.0618    1.4955 H   0  0  0  0  0  0  0  0  0  0  0  0
   -5.6078    1.5869    1.4451 H   0  0  0  0  0  0  0  0  0  0  0  0
   -6.9810    3.6257    1.1928 H   0  0  0  0  0  0  0  0  0  0  0  0
   -5.7996    6.5385   -2.4608 H   0  0  0  0  0  0  0  0  0  0  0  0
   -4.9007    7.3376   -1.1239 H   0  0  0  0  0  0  0  0  0  0  0  0
   -6.5168    7.9124   -1.5931 H   0  0  0  0  0  0  0  0  0  0  0  0
   -4.1006    5.1975   -1.5502 H   0  0  0  0  0  0  0  0  0  0  0  0
   -2.7584    3.1919   -1.2980 H   0  0  0  0  0  0  0  0  0  0  0  0
   -3.7827    5.5964    1.4306 H   0  0  0  0  0  0  0  0  0  0  0  0
   -5.0191    7.7044    1.4871 H   0  0  0  0  0  0  0  0  0  0  0  0
   -3.5606   10.9934    0.7023 H   0  0  0  0  0  0  0  0  0  0  0  0
   -4.0752   10.5924    2.3397 H   0  0  0  0  0  0  0  0  0  0  0  0
   -5.0668   10.0984    0.9697 H   0  0  0  0  0  0  0  0  0  0  0  0
   -1.3676    9.8614    1.0395 H   0  0  0  0  0  0  0  0  0  0  0  0
   -0.1170    7.7587    1.0430 H   0  0  0  0  0  0  0  0  0  0  0  0
    1.0283    4.3062    2.3794 H   0  0  0  0  0  0  0  0  0  0  0  0
    3.2722    4.2573    1.3853 H   0  0  0  0  0  0  0  0  0  0  0  0
    4.7994    5.0193   -0.2964 H   0  0  0  0  0  0  0  0  0  0  0  0
    4.2410    6.1623   -1.5254 H   0  0  0  0  0  0  0  0  0  0  0  0
    4.1270    4.4290   -1.8201 H   0  0  0  0  0  0  0  0  0  0  0  0
    1.7468    6.0811   -2.1572 H   0  0  0  0  0  0  0  0  0  0  0  0
   -0.5062    6.1223   -1.1672 H   0  0  0  0  0  0  0  0  0  0  0  0
   -1.5693    3.5549    7.3536 H   0  0  0  0  0  0  0  0  0  0  0  0
   -1.3069    3.7019    9.7910 H   0  0  0  0  0  0  0  0  0  0  0  0
   -2.0402    3.0115   12.0085 H   0  0  0  0  0  0  0  0  0  0  0  0
   -3.5879    2.1771   12.2273 H   0  0  0  0  0  0  0  0  0  0  0  0
   -3.5461    3.9281   12.0392 H   0  0  0  0  0  0  0  0  0  0  0  0
   -5.1718    1.9761   10.3179 H   0  0  0  0  0  0  0  0  0  0  0  0
   -5.4430    1.8340    7.8778 H   0  0  0  0  0  0  0  0  0  0  0  0
   -3.0738    0.1859    6.8622 H   0  0  0  0  0  0  0  0  0  0  0  0
   -3.9224   -1.9173    5.9234 H   0  0  0  0  0  0  0  0  0  0  0  0
   -5.7073   -2.2044    2.7927 H   0  0  0  0  0  0  0  0  0  0  0  0
   -6.7167   -2.4064    4.2225 H   0  0  0  0  0  0  0  0  0  0  0  0
   -5.0931   -3.0970    4.1977 H   0  0  0  0  0  0  0  0  0  0  0  0
   -6.2785    0.2676    3.1270 H   0  0  0  0  0  0  0  0  0  0  0  0
   -5.4167    2.3867    4.0489 H   0  0  0  0  0  0  0  0  0  0  0  0
   -4.3756    4.8905    7.3206 H   0  0  0  0  0  0  0  0  0  0  0  0
   -3.0056   10.9466    6.3380 H   0  0  0  0  0  0  0  0  0  0  0  0
   -5.5190    9.1870   10.2594 H   0  0  0  0  0  0  0  0  0  0  0  0
  1  2  2  0  0  0  0
  2  3  1  0  0  0  0
  3  4  2  0  0  0  0
  3  5  1  0  0  0  0
  5  6  2  0  0  0  0
  6  7  1  0  0  0  0
  7  8  2  0  0  0  0
  8  9  1  0  0  0  0
  9 10  2  0  0  0  0
 10 11  1  0  0  0  0
 10 12  1  0  0  0  0
 12 13  2  0  0  0  0
 13 14  1  0  0  0  0
 14 15  2  0  0  0  0
 15 16  1  0  0  0  0
 16 17  2  0  0  0  0
 17 18  1  0  0  0  0
 18 19  3  0  0  0  0
 17 20  1  0  0  0  0
 20 21  3  0  0  0  0
  1 22  1  0  0  0  0
 22 23  2  0  0  0  0
 23 24  1  0  0  0  0
 24 25  1  0  0  0  0
 25 26  2  0  0  0  0
 26 27  1  0  0  0  0
 27 28  2  0  0  0  0
 28 29  1  0  0  0  0
 28 30  1  0  0  0  0
 30 31  2  0  0  0  0
 24 32  1  0  0  0  0
 32 33  2  0  0  0  0
 33 34  1  0  0  0  0
 34 35  2  0  0  0  0
 35 36  1  0  0  0  0
 35 37  1  0  0  0  0
 37 38  2  0  0  0  0
 23 39  1  0  0  0  0
 39 40  1  0  0  0  0
 40 41  1  0  0  0  0
 41 42  2  0  0  0  0
 42 43  1  0  0  0  0
 43 44  1  0  0  0  0
 44 45  2  0  0  0  0
 45 46  1  0  0  0  0
 46 47  2  0  0  0  0
 47 48  1  0  0  0  0
 47 49  1  0  0  0  0
 49 50  2  0  0  0  0
 43 51  1  0  0  0  0
 51 52  2  0  0  0  0
 52 53  1  0  0  0  0
 53 54  2  0  0  0  0
 54 55  1  0  0  0  0
 54 56  1  0  0  0  0
 56 57  2  0  0  0  0
 42 58  1  0  0  0  0
 58 59  1  0  0  0  0
 41 60  1  0  0  0  0
 60 61  2  0  0  0  0
 61 62  1  0  0  0  0
 62 63  1  0  0  0  0
 63 64  2  0  0  0  0
 64 65  1  0  0  0  0
 65 66  2  0  0  0  0
 66 67  1  0  0  0  0
 67 68  1  0  0  0  0
 66 69  1  0  0  0  0
 69 70  2  0  0  0  0
 62 71  1  0  0  0  0
 71 72  2  0  0  0  0
 72 73  1  0  0  0  0
 73 74  2  0  0  0  0
 74 75  1  0  0  0  0
 75 76  1  0  0  0  0
 74 77  1  0  0  0  0
 77 78  2  0  0  0  0
 61 79  1  0  0  0  0
 79 80  1  0  0  0  0
 80 81  1  0  0  0  0
 81 82  2  0  0  0  0
 82 83  1  0  0  0  0
 83 84  1  0  0  0  0
 84 85  2  0  0  0  0
 85 86  1  0  0  0  0
 86 87  2  0  0  0  0
 87 88  1  0  0  0  0
 88 89  1  0  0  0  0
 87 90  1  0  0  0  0
 90 91  2  0  0  0  0
 83 92  1  0  0  0  0
 92 93  2  0  0  0  0
 93 94  1  0  0  0  0
 94 95  2  0  0  0  0
 95 96  1  0  0  0  0
 96 97  1  0  0  0  0
 95 98  1  0  0  0  0
 98 99  2  0  0  0  0
 82100  1  0  0  0  0
100101  1  0  0  0  0
 81102  1  0  0  0  0
102103  2  0  0  0  0
103104  1  0  0  0  0
104105  1  0  0  0  0
105106  2  0  0  0  0
106107  1  0  0  0  0
107108  2  0  0  0  0
108109  1  0  0  0  0
108110  1  0  0  0  0
110111  2  0  0  0  0
104112  1  0  0  0  0
112113  2  0  0  0  0
113114  1  0  0  0  0
114115  2  0  0  0  0
115116  1  0  0  0  0
115117  1  0  0  0  0
117118  2  0  0  0  0
103119  1  0  0  0  0
119120  1  0  0  0  0
120121  1  0  0  0  0
121122  2  0  0  0  0
122123  1  0  0  0  0
123124  1  0  0  0  0
124125  2  0  0  0  0
125126  1  0  0  0  0
126127  2  0  0  0  0
127128  1  0  0  0  0
127129  1  0  0  0  0
129130  2  0  0  0  0
123131  1  0  0  0  0
131132  2  0  0  0  0
132133  1  0  0  0  0
133134  2  0  0  0  0
134135  1  0  0  0  0
134136  1  0  0  0  0
136137  2  0  0  0  0
122138  1  0  0  0  0
138139  1  0  0  0  0
121140  1  0  0  0  0
140141  2  0  0  0  0
141142  1  0  0  0  0
142143  2  0  0  0  0
142144  1  0  0  0  0
144145  2  0  0  0  0
145146  1  0  0  0  0
146147  1  0  0  0  0
146148  2  0  0  0  0
148149  1  0  0  0  0
148150  1  0  0  0  0
150151  2  0  0  0  0
151152  1  0  0  0  0
152153  2  0  0  0  0
 16  2  1  0  0  0  0
 59 22  1  0  0  0  0
101 60  1  0  0  0  0
139102  1  0  0  0  0
152141  1  0  0  0  0
 15  5  1  0  0  0  0
 31 25  1  0  0  0  0
 38 32  1  0  0  0  0
 58 39  2  0  0  0  0
 70 63  1  0  0  0  0
 78 71  1  0  0  0  0
100 79  2  0  0  0  0
111105  1  0  0  0  0
118112  1  0  0  0  0
138119  2  0  0  0  0
151144  1  0  0  0  0
 13  7  1  0  0  0  0
 50 44  1  0  0  0  0
 57 51  1  0  0  0  0
 91 84  1  0  0  0  0
 99 92  1  0  0  0  0
130124  1  0  0  0  0
137131  1  0  0  0  0
  1154  1  0  0  0  0
  6155  1  0  0  0  0
  8156  1  0  0  0  0
  9157  1  0  0  0  0
 12158  1  0  0  0  0
 14159  1  0  0  0  0
 26160  1  0  0  0  0
 27161  1  0  0  0  0
 29162  1  0  0  0  0
 29163  1  0  0  0  0
 29164  1  0  0  0  0
 30165  1  0  0  0  0
 31166  1  0  0  0  0
 33167  1  0  0  0  0
 34168  1  0  0  0  0
 36169  1  0  0  0  0
 36170  1  0  0  0  0
 36171  1  0  0  0  0
 37172  1  0  0  0  0
 38173  1  0  0  0  0
 45174  1  0  0  0  0
 46175  1  0  0  0  0
 48176  1  0  0  0  0
 48177  1  0  0  0  0
 48178  1  0  0  0  0
 49179  1  0  0  0  0
 50180  1  0  0  0  0
 52181  1  0  0  0  0
 53182  1  0  0  0  0
 55183  1  0  0  0  0
 55184  1  0  0  0  0
 55185  1  0  0  0  0
 56186  1  0  0  0  0
 57187  1  0  0  0  0
 64188  1  0  0  0  0
 65189  1  0  0  0  0
 68190  1  0  0  0  0
 68191  1  0  0  0  0
 68192  1  0  0  0  0
 69193  1  0  0  0  0
 70194  1  0  0  0  0
 72195  1  0  0  0  0
 73196  1  0  0  0  0
 76197  1  0  0  0  0
 76198  1  0  0  0  0
 76199  1  0  0  0  0
 77200  1  0  0  0  0
 78201  1  0  0  0  0
 85202  1  0  0  0  0
 86203  1  0  0  0  0
 89204  1  0  0  0  0
 89205  1  0  0  0  0
 89206  1  0  0  0  0
 90207  1  0  0  0  0
 91208  1  0  0  0  0
 93209  1  0  0  0  0
 94210  1  0  0  0  0
 97211  1  0  0  0  0
 97212  1  0  0  0  0
 97213  1  0  0  0  0
 98214  1  0  0  0  0
 99215  1  0  0  0  0
106216  1  0  0  0  0
107217  1  0  0  0  0
109218  1  0  0  0  0
109219  1  0  0  0  0
109220  1  0  0  0  0
110221  1  0  0  0  0
111222  1  0  0  0  0
113223  1  0  0  0  0
114224  1  0  0  0  0
116225  1  0  0  0  0
116226  1  0  0  0  0
116227  1  0  0  0  0
117228  1  0  0  0  0
118229  1  0  0  0  0
125230  1  0  0  0  0
126231  1  0  0  0  0
128232  1  0  0  0  0
128233  1  0  0  0  0
128234  1  0  0  0  0
129235  1  0  0  0  0
130236  1  0  0  0  0
132237  1  0  0  0  0
133238  1  0  0  0  0
135239  1  0  0  0  0
135240  1  0  0  0  0
135241  1  0  0  0  0
136242  1  0  0  0  0
137243  1  0  0  0  0
140244  1  0  0  0  0
145245  1  0  0  0  0
150246  1  0  0  0  0
M  END
