
  xtb     02112207483D
 energy: -357.319956686576 gnorm: 0.000704130649 xtb: 6.4.1 (unknown)
204223  0     0  0            999 V2000
   -6.0090   -4.3916   -2.4848 C   0  0  0  0  0  0  0  0  0  0  0  0
   -7.2910   -3.8758   -2.4560 C   0  0  0  0  0  0  0  0  0  0  0  0
   -7.6376   -2.6051   -1.8034 C   0  0  0  0  0  0  0  0  0  0  0  0
   -6.8814   -1.8195   -1.2615 O   0  0  0  0  0  0  0  0  0  0  0  0
   -9.1141   -2.5389   -1.8243 C   0  0  0  0  0  0  0  0  0  0  0  0
   -9.9346   -1.5674   -1.3351 C   0  0  0  0  0  0  0  0  0  0  0  0
  -11.3343   -1.7093   -1.4814 C   0  0  0  0  0  0  0  0  0  0  0  0
  -12.2285   -0.7322   -1.0012 C   0  0  0  0  0  0  0  0  0  0  0  0
  -13.5807   -0.8816   -1.1440 C   0  0  0  0  0  0  0  0  0  0  0  0
  -14.0705   -2.0281   -1.7816 C   0  0  0  0  0  0  0  0  0  0  0  0
  -15.4050   -2.1589   -1.9150 F   0  0  0  0  0  0  0  0  0  0  0  0
  -13.2467   -3.0056   -2.2669 C   0  0  0  0  0  0  0  0  0  0  0  0
  -11.8525   -2.8679   -2.1275 C   0  0  0  0  0  0  0  0  0  0  0  0
  -10.9735   -3.8627   -2.6200 C   0  0  0  0  0  0  0  0  0  0  0  0
   -9.6245   -3.6974   -2.4736 C   0  0  0  0  0  0  0  0  0  0  0  0
   -8.4936   -4.5226   -2.8896 C   0  0  0  0  0  0  0  0  0  0  0  0
   -8.5607   -5.6315   -3.7009 C   0  0  0  0  0  0  0  0  0  0  0  0
   -7.4303   -6.3071   -4.1982 C   0  0  0  0  0  0  0  0  0  0  0  0
   -6.5491   -6.8749   -4.6689 N   0  0  0  0  0  0  0  0  0  0  0  0
   -9.7592   -6.1691   -4.2006 C   0  0  0  0  0  0  0  0  0  0  0  0
  -10.7059   -6.6417   -4.6499 N   0  0  0  0  0  0  0  0  0  0  0  0
   -4.8300   -3.6496   -2.4303 C   0  0  0  0  0  0  0  0  0  0  0  0
   -4.5535   -2.3086   -2.7854 C   0  0  0  0  0  0  0  0  0  0  0  0
   -5.3869   -1.4508   -3.4406 N   0  0  0  0  0  0  0  0  0  0  0  0
   -6.4317   -1.8918   -4.2656 C   0  0  0  0  0  0  0  0  0  0  0  0
   -6.2657   -2.9813   -5.1201 C   0  0  0  0  0  0  0  0  0  0  0  0
   -7.3169   -3.4207   -5.8964 C   0  0  0  0  0  0  0  0  0  0  0  0
   -8.5614   -2.7953   -5.8480 C   0  0  0  0  0  0  0  0  0  0  0  0
   -9.7034   -3.3183   -6.6605 C   0  0  0  0  0  0  0  0  0  0  0  0
   -8.7065   -1.6863   -5.0259 C   0  0  0  0  0  0  0  0  0  0  0  0
   -7.6590   -1.2324   -4.2458 C   0  0  0  0  0  0  0  0  0  0  0  0
   -5.2099   -0.0574   -3.2928 C   0  0  0  0  0  0  0  0  0  0  0  0
   -5.2917    0.7716   -4.4046 C   0  0  0  0  0  0  0  0  0  0  0  0
   -5.1196    2.1352   -4.2639 C   0  0  0  0  0  0  0  0  0  0  0  0
   -4.8569    2.6981   -3.0222 C   0  0  0  0  0  0  0  0  0  0  0  0
   -4.6533    4.1739   -2.8669 C   0  0  0  0  0  0  0  0  0  0  0  0
   -4.7988    1.8602   -1.9128 C   0  0  0  0  0  0  0  0  0  0  0  0
   -4.9779    0.4981   -2.0377 C   0  0  0  0  0  0  0  0  0  0  0  0
   -3.2186   -1.9805   -2.4529 C   0  0  0  0  0  0  0  0  0  0  0  0
   -2.2578   -0.5457   -2.6203 S   0  0  0  0  0  0  0  0  0  0  0  0
   -0.8798   -1.3577   -1.9010 C   0  0  0  0  0  0  0  0  0  0  0  0
   -1.1472   -2.6851   -1.6088 C   0  0  0  0  0  0  0  0  0  0  0  0
   -0.1991   -3.5527   -1.0876 N   0  0  0  0  0  0  0  0  0  0  0  0
    1.0817   -3.5883   -1.6482 C   0  0  0  0  0  0  0  0  0  0  0  0
    2.1931   -3.8638   -0.8562 C   0  0  0  0  0  0  0  0  0  0  0  0
    3.4484   -3.9536   -1.4245 C   0  0  0  0  0  0  0  0  0  0  0  0
    3.6363   -3.7636   -2.7884 C   0  0  0  0  0  0  0  0  0  0  0  0
    4.9886   -3.9232   -3.4130 C   0  0  0  0  0  0  0  0  0  0  0  0
    2.5277   -3.4490   -3.5658 C   0  0  0  0  0  0  0  0  0  0  0  0
    1.2675   -3.3613   -3.0111 C   0  0  0  0  0  0  0  0  0  0  0  0
   -0.5805   -4.4175   -0.0519 C   0  0  0  0  0  0  0  0  0  0  0  0
   -1.4835   -3.9837    0.9139 C   0  0  0  0  0  0  0  0  0  0  0  0
   -1.9043   -4.8448    1.9086 C   0  0  0  0  0  0  0  0  0  0  0  0
   -1.4290   -6.1463    1.9783 C   0  0  0  0  0  0  0  0  0  0  0  0
   -1.8808   -7.0920    3.0480 C   0  0  0  0  0  0  0  0  0  0  0  0
   -0.5099   -6.5639    1.0213 C   0  0  0  0  0  0  0  0  0  0  0  0
   -0.0928   -5.7205    0.0136 C   0  0  0  0  0  0  0  0  0  0  0  0
   -2.4771   -3.0311   -1.9288 C   0  0  0  0  0  0  0  0  0  0  0  0
   -3.3864   -4.4894   -1.8363 S   0  0  0  0  0  0  0  0  0  0  0  0
    0.2726   -0.6757   -1.3758 C   0  0  0  0  0  0  0  0  0  0  0  0
    1.2785    0.0872   -1.9341 C   0  0  0  0  0  0  0  0  0  0  0  0
    1.4742    0.3023   -3.2850 N   0  0  0  0  0  0  0  0  0  0  0  0
    0.3746    0.5276   -4.1347 C   0  0  0  0  0  0  0  0  0  0  0  0
   -0.5134    1.5702   -3.8778 C   0  0  0  0  0  0  0  0  0  0  0  0
   -1.5614    1.8130   -4.7396 C   0  0  0  0  0  0  0  0  0  0  0  0
   -1.7448    1.0133   -5.8651 C   0  0  0  0  0  0  0  0  0  0  0  0
   -3.0891    1.4271   -6.9292 S   0  0  0  0  0  0  0  0  0  0  0  0
   -3.2967   -0.0583   -7.9548 C   0  0  0  0  0  0  0  0  0  0  0  0
   -0.8624   -0.0288   -6.1212 C   0  0  0  0  0  0  0  0  0  0  0  0
    0.1916   -0.2653   -5.2620 C   0  0  0  0  0  0  0  0  0  0  0  0
    2.7631    0.2926   -3.8234 C   0  0  0  0  0  0  0  0  0  0  0  0
    3.0439    1.0209   -4.9819 C   0  0  0  0  0  0  0  0  0  0  0  0
    4.3120    1.0200   -5.5157 C   0  0  0  0  0  0  0  0  0  0  0  0
    5.3407    0.3091   -4.9004 C   0  0  0  0  0  0  0  0  0  0  0  0
    6.9263    0.3834   -5.6751 S   0  0  0  0  0  0  0  0  0  0  0  0
    8.0158   -0.4983   -4.5209 C   0  0  0  0  0  0  0  0  0  0  0  0
    5.0686   -0.4136   -3.7485 C   0  0  0  0  0  0  0  0  0  0  0  0
    3.7910   -0.4313   -3.2241 C   0  0  0  0  0  0  0  0  0  0  0  0
    2.1646    0.5699   -0.9306 C   0  0  0  0  0  0  0  0  0  0  0  0
    3.5091    1.6613   -0.9282 S   0  0  0  0  0  0  0  0  0  0  0  0
    3.6602    1.5082    0.8127 C   0  0  0  0  0  0  0  0  0  0  0  0
    2.6900    0.6893    1.3595 C   0  0  0  0  0  0  0  0  0  0  0  0
    2.4719    0.4700    2.7124 N   0  0  0  0  0  0  0  0  0  0  0  0
    2.0450   -0.7981    3.1257 C   0  0  0  0  0  0  0  0  0  0  0  0
    2.5484   -1.9476    2.5135 C   0  0  0  0  0  0  0  0  0  0  0  0
    2.1279   -3.1926    2.9232 C   0  0  0  0  0  0  0  0  0  0  0  0
    1.1947   -3.3248    3.9486 C   0  0  0  0  0  0  0  0  0  0  0  0
    0.7622   -4.9721    4.4035 S   0  0  0  0  0  0  0  0  0  0  0  0
   -0.5646   -4.7502    5.6216 C   0  0  0  0  0  0  0  0  0  0  0  0
    0.6899   -2.1842    4.5588 C   0  0  0  0  0  0  0  0  0  0  0  0
    1.1117   -0.9347    4.1494 C   0  0  0  0  0  0  0  0  0  0  0  0
    2.6521    1.5113    3.6313 C   0  0  0  0  0  0  0  0  0  0  0  0
    3.2043    1.2666    4.8852 C   0  0  0  0  0  0  0  0  0  0  0  0
    3.4936    2.3085    5.7453 C   0  0  0  0  0  0  0  0  0  0  0  0
    3.2510    3.6199    5.3600 C   0  0  0  0  0  0  0  0  0  0  0  0
    3.6867    5.0378    6.3165 S   0  0  0  0  0  0  0  0  0  0  0  0
    4.5935    4.3447    7.7243 C   0  0  0  0  0  0  0  0  0  0  0  0
    2.6349    3.8634    4.1332 C   0  0  0  0  0  0  0  0  0  0  0  0
    2.3285    2.8250    3.2860 C   0  0  0  0  0  0  0  0  0  0  0  0
    1.8528    0.1542    0.3493 C   0  0  0  0  0  0  0  0  0  0  0  0
    0.4423   -0.8302    0.3781 S   0  0  0  0  0  0  0  0  0  0  0  0
    4.6186    2.2967    1.5639 C   0  0  0  0  0  0  0  0  0  0  0  0
    4.7283    3.6743    1.3326 C   0  0  0  0  0  0  0  0  0  0  0  0
    5.4237    4.4366    2.2404 C   0  0  0  0  0  0  0  0  0  0  0  0
    5.5281    5.9171    2.3294 C   0  0  0  0  0  0  0  0  0  0  0  0
    5.1112    6.7394    1.5504 O   0  0  0  0  0  0  0  0  0  0  0  0
    6.2379    6.1563    3.6161 C   0  0  0  0  0  0  0  0  0  0  0  0
    6.5807    4.9180    4.1989 C   0  0  0  0  0  0  0  0  0  0  0  0
    6.0691    3.8536    3.3496 C   0  0  0  0  0  0  0  0  0  0  0  0
    6.0646    2.4806    3.5071 C   0  0  0  0  0  0  0  0  0  0  0  0
    5.3278    1.7148    2.6182 C   0  0  0  0  0  0  0  0  0  0  0  0
    7.2533    4.8888    5.4064 C   0  0  0  0  0  0  0  0  0  0  0  0
    7.5153    6.0841    6.0582 C   0  0  0  0  0  0  0  0  0  0  0  0
    7.1306    7.3133    5.5123 C   0  0  0  0  0  0  0  0  0  0  0  0
    6.5237    7.3424    4.2416 C   0  0  0  0  0  0  0  0  0  0  0  0
    7.3415    8.5730    6.1790 C   0  0  0  0  0  0  0  0  0  0  0  0
    7.2171    8.8561    7.4993 C   0  0  0  0  0  0  0  0  0  0  0  0
    6.6189    7.9896    8.5442 C   0  0  0  0  0  0  0  0  0  0  0  0
    6.4745    6.7893    8.5398 O   0  0  0  0  0  0  0  0  0  0  0  0
    6.1761    8.9224    9.6054 C   0  0  0  0  0  0  0  0  0  0  0  0
    5.4024    8.6461   10.7200 C   0  0  0  0  0  0  0  0  0  0  0  0
    4.9099    7.0560   11.0910 Cl  0  0  0  0  0  0  0  0  0  0  0  0
    5.0147    9.7138   11.5408 C   0  0  0  0  0  0  0  0  0  0  0  0
    4.0829    9.4177   12.9432 Cl  0  0  0  0  0  0  0  0  0  0  0  0
    5.3547   11.0222   11.1947 C   0  0  0  0  0  0  0  0  0  0  0  0
    4.7954   12.3146   12.1638 Cl  0  0  0  0  0  0  0  0  0  0  0  0
    6.1320   11.2986   10.0589 C   0  0  0  0  0  0  0  0  0  0  0  0
    6.3706   12.9352    9.6073 Cl  0  0  0  0  0  0  0  0  0  0  0  0
    6.5955   10.2335    9.2950 C   0  0  0  0  0  0  0  0  0  0  0  0
    7.4219   10.1737    8.0979 C   0  0  0  0  0  0  0  0  0  0  0  0
    8.3901   11.0490    7.6929 C   0  0  0  0  0  0  0  0  0  0  0  0
    9.1862   10.8331    6.5429 C   0  0  0  0  0  0  0  0  0  0  0  0
    9.8716   10.7138    5.6308 N   0  0  0  0  0  0  0  0  0  0  0  0
    8.8655   12.1687    8.4102 C   0  0  0  0  0  0  0  0  0  0  0  0
    9.3836   13.0384    8.9497 N   0  0  0  0  0  0  0  0  0  0  0  0
   -5.8870   -5.4682   -2.5000 H   0  0  0  0  0  0  0  0  0  0  0  0
   -9.5252   -0.6958   -0.8460 H   0  0  0  0  0  0  0  0  0  0  0  0
  -11.8268    0.1428   -0.5123 H   0  0  0  0  0  0  0  0  0  0  0  0
  -14.2780   -0.1440   -0.7795 H   0  0  0  0  0  0  0  0  0  0  0  0
  -13.6593   -3.8757   -2.7534 H   0  0  0  0  0  0  0  0  0  0  0  0
  -11.3948   -4.7342   -3.0955 H   0  0  0  0  0  0  0  0  0  0  0  0
   -5.3129   -3.4874   -5.1681 H   0  0  0  0  0  0  0  0  0  0  0  0
   -7.1744   -4.2711   -6.5470 H   0  0  0  0  0  0  0  0  0  0  0  0
   -9.9930   -4.3102   -6.3130 H   0  0  0  0  0  0  0  0  0  0  0  0
  -10.5672   -2.6630   -6.5851 H   0  0  0  0  0  0  0  0  0  0  0  0
   -9.4187   -3.4080   -7.7077 H   0  0  0  0  0  0  0  0  0  0  0  0
   -9.6572   -1.1751   -4.9803 H   0  0  0  0  0  0  0  0  0  0  0  0
   -7.7887   -0.3719   -3.6069 H   0  0  0  0  0  0  0  0  0  0  0  0
   -5.4866    0.3470   -5.3781 H   0  0  0  0  0  0  0  0  0  0  0  0
   -5.1772    2.7649   -5.1393 H   0  0  0  0  0  0  0  0  0  0  0  0
   -5.4611    4.6076   -2.2780 H   0  0  0  0  0  0  0  0  0  0  0  0
   -4.6293    4.6679   -3.8349 H   0  0  0  0  0  0  0  0  0  0  0  0
   -3.7191    4.3768   -2.3454 H   0  0  0  0  0  0  0  0  0  0  0  0
   -4.6181    2.2846   -0.9358 H   0  0  0  0  0  0  0  0  0  0  0  0
   -4.9715   -0.1436   -1.1708 H   0  0  0  0  0  0  0  0  0  0  0  0
    2.0576   -4.0123    0.2038 H   0  0  0  0  0  0  0  0  0  0  0  0
    4.2988   -4.1782   -0.7958 H   0  0  0  0  0  0  0  0  0  0  0  0
    5.7771   -3.6904   -2.7003 H   0  0  0  0  0  0  0  0  0  0  0  0
    5.0892   -3.2801   -4.2845 H   0  0  0  0  0  0  0  0  0  0  0  0
    5.1265   -4.9553   -3.7383 H   0  0  0  0  0  0  0  0  0  0  0  0
    2.6547   -3.2836   -4.6263 H   0  0  0  0  0  0  0  0  0  0  0  0
    0.4155   -3.1338   -3.6352 H   0  0  0  0  0  0  0  0  0  0  0  0
   -1.8518   -2.9683    0.8823 H   0  0  0  0  0  0  0  0  0  0  0  0
   -2.6163   -4.4933    2.6422 H   0  0  0  0  0  0  0  0  0  0  0  0
   -1.0328   -7.3979    3.6598 H   0  0  0  0  0  0  0  0  0  0  0  0
   -2.6280   -6.6300    3.6885 H   0  0  0  0  0  0  0  0  0  0  0  0
   -2.3111   -7.9884    2.6036 H   0  0  0  0  0  0  0  0  0  0  0  0
   -0.1272   -7.5733    1.0609 H   0  0  0  0  0  0  0  0  0  0  0  0
    0.6033   -6.0681   -0.7353 H   0  0  0  0  0  0  0  0  0  0  0  0
   -0.3715    2.1871   -3.0033 H   0  0  0  0  0  0  0  0  0  0  0  0
   -2.2499    2.6209   -4.5503 H   0  0  0  0  0  0  0  0  0  0  0  0
   -3.3658   -0.9342   -7.3164 H   0  0  0  0  0  0  0  0  0  0  0  0
   -2.4791   -0.1491   -8.6640 H   0  0  0  0  0  0  0  0  0  0  0  0
   -4.2296    0.0831   -8.4918 H   0  0  0  0  0  0  0  0  0  0  0  0
   -0.9804   -0.6570   -6.9894 H   0  0  0  0  0  0  0  0  0  0  0  0
    0.8882   -1.0655   -5.4639 H   0  0  0  0  0  0  0  0  0  0  0  0
    2.2617    1.5932   -5.4572 H   0  0  0  0  0  0  0  0  0  0  0  0
    4.5255    1.5828   -6.4113 H   0  0  0  0  0  0  0  0  0  0  0  0
    7.7366   -1.5468   -4.4671 H   0  0  0  0  0  0  0  0  0  0  0  0
    7.9759   -0.0266   -3.5435 H   0  0  0  0  0  0  0  0  0  0  0  0
    9.0150   -0.4059   -4.9352 H   0  0  0  0  0  0  0  0  0  0  0  0
    5.8386   -0.9761   -3.2472 H   0  0  0  0  0  0  0  0  0  0  0  0
    3.5920   -1.0285   -2.3479 H   0  0  0  0  0  0  0  0  0  0  0  0
    3.2768   -1.8574    1.7206 H   0  0  0  0  0  0  0  0  0  0  0  0
    2.5281   -4.0860    2.4682 H   0  0  0  0  0  0  0  0  0  0  0  0
   -0.8951   -5.7505    5.8826 H   0  0  0  0  0  0  0  0  0  0  0  0
   -0.1823   -4.2488    6.5060 H   0  0  0  0  0  0  0  0  0  0  0  0
   -1.3825   -4.1950    5.1727 H   0  0  0  0  0  0  0  0  0  0  0  0
   -0.0350   -2.2513    5.3536 H   0  0  0  0  0  0  0  0  0  0  0  0
    0.7129   -0.0510    4.6250 H   0  0  0  0  0  0  0  0  0  0  0  0
    3.4283    0.2519    5.1804 H   0  0  0  0  0  0  0  0  0  0  0  0
    3.9260    2.0827    6.7064 H   0  0  0  0  0  0  0  0  0  0  0  0
    5.3832    3.6944    7.3624 H   0  0  0  0  0  0  0  0  0  0  0  0
    3.9120    3.8160    8.3845 H   0  0  0  0  0  0  0  0  0  0  0  0
    5.0337    5.1939    8.2370 H   0  0  0  0  0  0  0  0  0  0  0  0
    2.4095    4.8809    3.8529 H   0  0  0  0  0  0  0  0  0  0  0  0
    1.8527    3.0263    2.3382 H   0  0  0  0  0  0  0  0  0  0  0  0
    4.2146    4.1344    0.5018 H   0  0  0  0  0  0  0  0  0  0  0  0
    6.5879    2.0096    4.3253 H   0  0  0  0  0  0  0  0  0  0  0  0
    5.2790    0.6442    2.7514 H   0  0  0  0  0  0  0  0  0  0  0  0
    7.5651    3.9532    5.8460 H   0  0  0  0  0  0  0  0  0  0  0  0
    8.0470    6.0680    6.9950 H   0  0  0  0  0  0  0  0  0  0  0  0
    6.2456    8.2809    3.7858 H   0  0  0  0  0  0  0  0  0  0  0  0
    7.5294    9.4068    5.5114 H   0  0  0  0  0  0  0  0  0  0  0  0
  1  2  2  0  0  0  0
  2  3  1  0  0  0  0
  3  4  2  0  0  0  0
  3  5  1  0  0  0  0
  5  6  2  0  0  0  0
  6  7  1  0  0  0  0
  7  8  2  0  0  0  0
  8  9  1  0  0  0  0
  9 10  2  0  0  0  0
 10 11  1  0  0  0  0
 10 12  1  0  0  0  0
 12 13  2  0  0  0  0
 13 14  1  0  0  0  0
 14 15  2  0  0  0  0
 15 16  1  0  0  0  0
 16 17  2  0  0  0  0
 17 18  1  0  0  0  0
 18 19  3  0  0  0  0
 17 20  1  0  0  0  0
 20 21  3  0  0  0  0
  1 22  1  0  0  0  0
 22 23  2  0  0  0  0
 23 24  1  0  0  0  0
 24 25  1  0  0  0  0
 25 26  2  0  0  0  0
 26 27  1  0  0  0  0
 27 28  2  0  0  0  0
 28 29  1  0  0  0  0
 28 30  1  0  0  0  0
 30 31  2  0  0  0  0
 24 32  1  0  0  0  0
 32 33  2  0  0  0  0
 33 34  1  0  0  0  0
 34 35  2  0  0  0  0
 35 36  1  0  0  0  0
 35 37  1  0  0  0  0
 37 38  2  0  0  0  0
 23 39  1  0  0  0  0
 39 40  1  0  0  0  0
 40 41  1  0  0  0  0
 41 42  2  0  0  0  0
 42 43  1  0  0  0  0
 43 44  1  0  0  0  0
 44 45  2  0  0  0  0
 45 46  1  0  0  0  0
 46 47  2  0  0  0  0
 47 48  1  0  0  0  0
 47 49  1  0  0  0  0
 49 50  2  0  0  0  0
 43 51  1  0  0  0  0
 51 52  2  0  0  0  0
 52 53  1  0  0  0  0
 53 54  2  0  0  0  0
 54 55  1  0  0  0  0
 54 56  1  0  0  0  0
 56 57  2  0  0  0  0
 42 58  1  0  0  0  0
 58 59  1  0  0  0  0
 41 60  1  0  0  0  0
 60 61  2  0  0  0  0
 61 62  1  0  0  0  0
 62 63  1  0  0  0  0
 63 64  2  0  0  0  0
 64 65  1  0  0  0  0
 65 66  2  0  0  0  0
 66 67  1  0  0  0  0
 67 68  1  0  0  0  0
 66 69  1  0  0  0  0
 69 70  2  0  0  0  0
 62 71  1  0  0  0  0
 71 72  2  0  0  0  0
 72 73  1  0  0  0  0
 73 74  2  0  0  0  0
 74 75  1  0  0  0  0
 75 76  1  0  0  0  0
 74 77  1  0  0  0  0
 77 78  2  0  0  0  0
 61 79  1  0  0  0  0
 79 80  1  0  0  0  0
 80 81  1  0  0  0  0
 81 82  2  0  0  0  0
 82 83  1  0  0  0  0
 83 84  1  0  0  0  0
 84 85  2  0  0  0  0
 85 86  1  0  0  0  0
 86 87  2  0  0  0  0
 87 88  1  0  0  0  0
 88 89  1  0  0  0  0
 87 90  1  0  0  0  0
 90 91  2  0  0  0  0
 83 92  1  0  0  0  0
 92 93  2  0  0  0  0
 93 94  1  0  0  0  0
 94 95  2  0  0  0  0
 95 96  1  0  0  0  0
 96 97  1  0  0  0  0
 95 98  1  0  0  0  0
 98 99  2  0  0  0  0
 82100  1  0  0  0  0
100101  1  0  0  0  0
 81102  1  0  0  0  0
102103  2  0  0  0  0
103104  1  0  0  0  0
104105  1  0  0  0  0
105106  2  0  0  0  0
105107  1  0  0  0  0
107108  2  0  0  0  0
108109  1  0  0  0  0
109110  1  0  0  0  0
110111  2  0  0  0  0
108112  1  0  0  0  0
112113  2  0  0  0  0
113114  1  0  0  0  0
114115  2  0  0  0  0
114116  1  0  0  0  0
116117  2  0  0  0  0
117118  1  0  0  0  0
118119  2  0  0  0  0
118120  1  0  0  0  0
120121  2  0  0  0  0
121122  1  0  0  0  0
121123  1  0  0  0  0
123124  1  0  0  0  0
123125  2  0  0  0  0
125126  1  0  0  0  0
125127  1  0  0  0  0
127128  1  0  0  0  0
127129  2  0  0  0  0
129130  1  0  0  0  0
130131  2  0  0  0  0
131132  1  0  0  0  0
132133  3  0  0  0  0
131134  1  0  0  0  0
134135  3  0  0  0  0
 16  2  1  0  0  0  0
 59 22  1  0  0  0  0
101 60  1  0  0  0  0
111102  1  0  0  0  0
130117  1  0  0  0  0
 15  5  1  0  0  0  0
 31 25  1  0  0  0  0
 38 32  1  0  0  0  0
 58 39  2  0  0  0  0
 70 63  1  0  0  0  0
 78 71  1  0  0  0  0
100 79  2  0  0  0  0
109104  2  0  0  0  0
129120  1  0  0  0  0
 13  7  1  0  0  0  0
 50 44  1  0  0  0  0
 57 51  1  0  0  0  0
 91 84  1  0  0  0  0
 99 92  1  0  0  0  0
115107  1  0  0  0  0
  1136  1  0  0  0  0
  6137  1  0  0  0  0
  8138  1  0  0  0  0
  9139  1  0  0  0  0
 12140  1  0  0  0  0
 14141  1  0  0  0  0
 26142  1  0  0  0  0
 27143  1  0  0  0  0
 29144  1  0  0  0  0
 29145  1  0  0  0  0
 29146  1  0  0  0  0
 30147  1  0  0  0  0
 31148  1  0  0  0  0
 33149  1  0  0  0  0
 34150  1  0  0  0  0
 36151  1  0  0  0  0
 36152  1  0  0  0  0
 36153  1  0  0  0  0
 37154  1  0  0  0  0
 38155  1  0  0  0  0
 45156  1  0  0  0  0
 46157  1  0  0  0  0
 48158  1  0  0  0  0
 48159  1  0  0  0  0
 48160  1  0  0  0  0
 49161  1  0  0  0  0
 50162  1  0  0  0  0
 52163  1  0  0  0  0
 53164  1  0  0  0  0
 55165  1  0  0  0  0
 55166  1  0  0  0  0
 55167  1  0  0  0  0
 56168  1  0  0  0  0
 57169  1  0  0  0  0
 64170  1  0  0  0  0
 65171  1  0  0  0  0
 68172  1  0  0  0  0
 68173  1  0  0  0  0
 68174  1  0  0  0  0
 69175  1  0  0  0  0
 70176  1  0  0  0  0
 72177  1  0  0  0  0
 73178  1  0  0  0  0
 76179  1  0  0  0  0
 76180  1  0  0  0  0
 76181  1  0  0  0  0
 77182  1  0  0  0  0
 78183  1  0  0  0  0
 85184  1  0  0  0  0
 86185  1  0  0  0  0
 89186  1  0  0  0  0
 89187  1  0  0  0  0
 89188  1  0  0  0  0
 90189  1  0  0  0  0
 91190  1  0  0  0  0
 93191  1  0  0  0  0
 94192  1  0  0  0  0
 97193  1  0  0  0  0
 97194  1  0  0  0  0
 97195  1  0  0  0  0
 98196  1  0  0  0  0
 99197  1  0  0  0  0
103198  1  0  0  0  0
110199  1  0  0  0  0
111200  1  0  0  0  0
112201  1  0  0  0  0
113202  1  0  0  0  0
115203  1  0  0  0  0
116204  1  0  0  0  0
M  END
