208

C          3.48870        2.54720        8.10780
C          4.28510        3.67100        7.97220
C          4.03570        4.72710        6.98250
O          3.16250        4.75740        6.13310
C          4.98320        5.81270        7.31360
C          5.14660        7.02260        6.70900
C          6.13050        7.91210        7.20100
C          6.34380        9.17440        6.61270
C          7.29110       10.03090        7.10290
C          8.05630        9.63290        8.20580
F          8.98510       10.48880        8.67610
C          7.89210        8.41830        8.81200
C          6.92050        7.52550        8.32090
C          6.72470        6.26200        8.92910
C          5.77250        5.41820        8.42970
C          5.35830        4.07590        8.82950
C          5.99650        3.27820        9.75130
C          5.64460        1.93950       10.00630
N          5.42980        0.83500       10.24010
C          7.12740        3.67440       10.48540
N          8.06670        3.93830       11.09340
C          2.73780        1.95460        7.09730
C          2.87230        1.99060        5.68880
N          3.92660        2.48140        4.97990
C          5.21470        2.62770        5.51380
C          5.97500        3.74520        5.17710
C          7.22790        3.92770        5.73260
C          7.75860        3.00520        6.62380
C          9.09430        3.21720        7.26330
C          7.01270        1.86430        6.91350
C          5.75970        1.67280        6.37130
C          3.73980        2.81860        3.61930
C          2.69140        3.65030        3.23790
C          2.49970        3.94240        1.90260
C          3.34040        3.41990        0.92510
C          3.08720        3.70630       -0.52280
C          4.40280        2.61820        1.32340
C          4.60810        2.31800        2.65650
C          1.78980        1.31990        5.07850
S          1.35130        1.00440        3.43370
C         -0.06370        0.10250        3.95260
C         -0.14170       -0.00980        5.33870
N         -1.08460       -0.73910        6.04570
C         -1.51130       -0.21050        7.27920
C         -1.57780       -1.00180        8.42220
C         -1.98270       -0.45020        9.62060
C         -2.32130        0.89510        9.71690
C         -2.72680        1.48740       11.03120
C         -2.24840        1.67750        8.57170
C         -1.85330        1.13620        7.36440
C         -1.42780       -2.04300        5.67400
C         -0.55540       -2.84100        4.93670
C         -0.91330       -4.12780        4.59040
C         -2.13850       -4.66460        4.97000
C         -2.50210       -6.06810        4.59240
C         -3.00690       -3.86120        5.69740
C         -2.66690       -2.56740        6.03910
C          0.90450        0.71020        5.95850
S          1.36840        0.94790        7.60280
C         -0.97220       -0.33030        2.95260
S         -0.45240       -0.33220        1.28380
C         -2.04240       -0.75720        0.76640
C         -2.48660       -1.00790       -0.54710
C         -3.77280       -1.49960       -0.73390
O         -4.63310       -1.73540        0.26880
C         -4.38630       -1.15550        1.57210
C         -4.96630       -2.17040        2.56740
C         -4.28180       -3.52510        2.43790
C         -5.16070        0.18580        1.58220
C         -5.10660        0.96800        2.88620
C         -2.92210       -0.89960        1.82740
C         -2.30830       -0.66600        3.06060
C         -4.05900       -1.78000       -2.07590
C         -2.99730       -1.51390       -2.91360
S         -1.63070       -0.87110       -2.03910
C         -2.89610       -1.70920       -4.31730
C         -3.51700       -2.67610       -5.10420
N         -4.29950       -3.71170       -4.62810
C         -5.37800       -4.15370       -5.41140
C         -5.66990       -5.50900       -5.52830
C         -6.72830       -5.92370       -6.31260
C         -7.51300       -5.00980       -7.00470
C         -8.64510       -5.45790       -7.87640
C         -7.21450       -3.65760       -6.88150
C         -6.16670       -3.22890       -6.09280
C         -3.95530       -4.37100       -3.43890
C         -4.94590       -4.85690       -2.58990
C         -4.60560       -5.46500       -1.39690
C         -3.27850       -5.60010       -1.01300
C         -2.89820       -6.25000        0.28250
C         -2.29390       -5.12460       -1.87270
C         -2.62010       -4.52550       -3.07100
C         -3.16200       -2.51320       -6.46340
S         -3.62570       -3.31190       -7.91870
C         -2.50940       -2.30470       -8.86070
C         -1.88280       -1.32130       -8.05590
N         -1.10910       -0.28150       -8.47320
C         -0.20490        0.29820       -7.54970
C         -0.21240        1.67080       -7.33590
C          0.65210        2.22650       -6.41120
C          1.53540        1.43360       -5.69020
C          2.45270        2.02360       -4.66440
C          1.55230        0.06400       -5.93640
C          0.69470       -0.50470       -6.85500
C         -1.19190        0.29440       -9.74620
C         -2.41200        0.43760      -10.40680
C         -2.45700        1.00860      -11.66110
C         -1.29830        1.44650      -12.30010
C         -1.36730        2.05150      -13.66550
C         -0.09090        1.32050      -11.62580
C         -0.03180        0.75860      -10.36470
C         -2.24900       -1.49310       -6.70190
S         -1.82220       -0.67280       -5.23810
C         -2.41150       -2.59510      -10.21690
C         -1.35940       -2.25490      -11.05170
C          0.00620       -2.04770      -10.57490
O          0.41770       -2.15350       -9.43530
C          0.82610       -1.84790      -11.79670
C          2.18530       -1.62850      -11.89700
Cl         3.14930       -1.38930      -10.50730
C          2.76110       -1.58990      -13.17420
Cl         4.43400       -1.27320      -13.34920
C          1.97850       -1.84520      -14.29660
Cl         2.71770       -1.89110      -15.84060
C          0.59660       -2.07390      -14.18640
Cl        -0.26520       -2.53880      -15.59510
C          0.00750       -2.00280      -12.93240
C         -1.37910       -2.12370      -12.47990
C         -2.51850       -1.87010      -13.20790
C         -3.81120       -1.92680      -12.64590
N         -4.89360       -1.94630      -12.26160
C         -2.58870       -1.31270      -14.49720
N         -2.76370       -0.74930      -15.48360
H          3.39040        2.10180        9.09060
H          4.53700        7.30210        5.86250
H          5.74030        9.45960        5.76380
H          7.46330       11.00190        6.66600
H          8.50030        8.14460        9.66000
H          7.33070        6.00020        9.78180
H          5.56930        4.47540        4.49300
H          7.79340        4.81260        5.47890
H          8.99740        3.24060        8.34820
H          9.77020        2.40130        7.01180
H          9.53880        4.15310        6.93550
H          7.41820        1.11990        7.58310
H          5.19760        0.78400        6.61590
H          2.05530        4.07240        4.00010
H          1.68310        4.58680        1.61150
H          2.84280        4.75610       -0.67190
H          2.24130        3.11410       -0.87270
H          3.95390        3.45570       -1.12920
H          5.07490        2.21370        0.58060
H          5.43220        1.68720        2.95660
H         -1.30260       -2.04440        8.36640
H         -2.02490       -1.07330       10.50200
H         -1.83980        1.75230       11.60760
H         -3.31740        2.38890       10.88660
H         -3.30460        0.77520       11.61600
H         -2.50750        2.72510        8.62270
H         -1.80500        1.75410        6.47890
H          0.41220       -2.45720        4.65050
H         -0.22070       -4.73430        4.02460
H         -1.71260       -6.75830        4.88570
H         -2.63120       -6.14990        3.51320
H         -3.42780       -6.37270        5.07420
H         -3.96860       -4.24990        5.99980
H         -3.35880       -1.95630        6.60060
H         -6.03120       -2.27720        2.35580
H         -4.84770       -1.79200        3.58140
H         -4.38800       -3.89770        1.42230
H         -3.22300       -3.43930        2.67290
H         -4.73050       -4.23790        3.12420
H         -4.75090        0.80180        0.77630
H         -6.19860       -0.04070        1.32940
H         -4.08270        1.22940        3.14070
H         -5.53790        0.39830        3.70470
H         -5.67530        1.88860        2.77790
H         -2.81870       -0.70640        4.00320
H         -5.01290       -2.13870       -2.41000
H         -5.06030       -6.23240       -5.00730
H         -6.94040       -6.97980       -6.39580
H         -9.54320       -4.87930       -7.66740
H         -8.39020       -5.30740       -8.92530
H         -8.86250       -6.51180       -7.72340
H         -7.81510       -2.93040       -7.40780
H         -5.95540       -2.17380       -5.99420
H         -5.98460       -4.74750       -2.86600
H         -5.39000       -5.82920       -0.74910
H         -2.34590       -7.17080        0.09480
H         -2.25610       -5.58920        0.86390
H         -3.77970       -6.49070        0.87140
H         -1.25400       -5.23050       -1.59900
H         -1.83860       -4.17400       -3.72830
H         -0.90160        2.29410       -7.88680
H          0.63140        3.29340       -6.24330
H          3.48670        1.75890       -4.88060
H          2.20880        1.63120       -3.67760
H          2.36690        3.10680       -4.63840
H          2.24860       -0.56280       -5.39920
H          0.72130       -1.56240       -7.06450
H         -3.32440        0.10780       -9.93290
H         -3.40970        1.11590      -12.15920
H         -1.89750        1.39390      -14.35250
H         -1.90960        2.99590      -13.63060
H         -0.37160        2.23850      -14.05830
H          0.82120        1.65990      -12.09450
H          0.91390        0.66600       -9.85250
H         -3.21810       -3.19090      -10.62610
