253

C          5.48590        1.59380       -6.71620
C          5.75870        2.93350       -6.86610
C          6.75360        3.38020       -7.86130
O          7.51290        2.68230       -8.50250
C          6.58980        4.84850       -7.94310
C          7.18550        5.73930       -8.78590
C          6.83780        7.10790       -8.70170
C          7.42760        8.07060       -9.54490
C          7.07870        9.39050       -9.46210
C          6.11750        9.77760       -8.52030
F          5.78340       11.08210       -8.45350
C          5.51490        8.88530       -7.67810
C          5.86550        7.52340       -7.74720
C          5.27060        6.57720       -6.87880
C          5.63710        5.26350       -6.96880
C          5.22620        4.08960       -6.20100
C          4.69410        4.13290       -4.93120
C          4.56730        3.00790       -4.09700
N          4.50470        2.12690       -3.36030
C          4.36030        5.32760       -4.27290
N          4.08740        6.27800       -3.68630
C          4.32180        1.02770       -6.18930
C          4.16230       -0.22170       -5.55660
N          5.12750       -1.17250       -5.37810
C          5.07990       -1.98330       -4.22350
C          4.87900       -1.40940       -2.97120
C          4.80630       -2.21420       -1.85030
C          4.94220       -3.59330       -1.94510
C          4.84950       -4.46950       -0.73380
C          5.16310       -4.15140       -3.20030
C          5.23040       -3.36210       -4.33070
C          6.11870       -1.42280       -6.33900
C          7.41520       -1.73230       -5.93860
C          8.39120       -1.97470       -6.88520
C          8.10560       -1.91540       -8.24410
C          9.17380       -2.13090       -9.26950
C          6.80290       -1.62310       -8.63410
C          5.81640       -1.38410       -7.69910
C          2.86750       -0.33860       -5.01500
S          2.08460       -1.55520       -4.06860
C          0.61460       -0.59870       -4.01450
C          0.71140        0.56110       -4.79070
N         -0.32220        1.46330       -4.98890
C         -1.56130        1.03530       -5.47080
C         -1.68730       -0.15730       -6.17900
C         -2.92640       -0.57410       -6.62540
C         -4.06880        0.17850       -6.38850
C         -5.40930       -0.26120       -6.89330
C         -3.93620        1.36650       -5.67660
C         -2.70770        1.79040       -5.21830
C         -0.00710        2.83300       -4.89480
C         -0.43040        3.73990       -5.85960
C         -0.10100        5.07650       -5.74200
C          0.65330        5.54080       -4.67190
C          0.97410        6.99330       -4.51900
C          1.08290        4.62210       -3.72000
C          0.76160        3.28490       -3.82550
C          2.00950        0.71260       -5.30890
S          2.80300        1.94180       -6.22320
C         -0.37140       -0.88090       -3.04840
C         -0.34620       -1.91040       -2.10210
N          0.42570       -3.05820       -2.18100
C          0.48010       -3.81700       -3.35170
C         -0.52030       -3.73120       -4.32200
C         -0.41770       -4.45190       -5.49000
C          0.67690       -5.28300       -5.71980
S          0.69780       -6.14710       -7.25980
C          2.27910       -7.03790       -7.24100
C          1.66680       -5.38430       -4.75160
C          1.56920       -4.65600       -3.58380
C          0.94000       -3.55770       -0.97160
C          1.60620       -2.69420       -0.10240
C          2.07170       -3.15240        1.10930
C          1.88860       -4.48330        1.47810
S          2.56960       -4.98150        3.02770
C          1.70510       -6.53340        3.39550
C          1.23220       -5.34760        0.61120
C          0.75830       -4.88610       -0.60130
C         -1.19930       -1.62190       -1.02110
S         -1.49320       -2.37020        0.51160
C         -2.58250       -1.05860        0.95630
C         -2.79480       -0.17260       -0.09970
N         -3.73490        0.84520       -0.08760
C         -5.04640        0.58510        0.32130
C         -5.56510       -0.70740        0.31900
C         -6.85210       -0.95400        0.75520
C         -7.65310        0.08930        1.19550
S         -9.31010       -0.10580        1.77660
C         -9.52930       -1.90560        1.86650
C         -7.14580        1.38690        1.17890
C         -5.86080        1.63290        0.75390
C         -3.39590        2.04560       -0.73240
C         -4.24850        2.64030       -1.65710
C         -3.88550        3.81060       -2.29420
C         -2.65540        4.39780       -2.02640
S         -2.11540        5.91330       -2.75100
C         -3.14950        6.07110       -4.23520
C         -1.79630        3.80080       -1.10660
C         -2.16290        2.64000       -0.46400
C         -1.95220       -0.46660       -1.18560
S         -1.59460        0.33160       -2.67370
C         -2.89260       -0.81170        2.30990
C         -2.65730       -1.65040        3.39770
N         -2.34860       -2.99710        3.29560
C         -3.09290       -3.86000        2.49160
C         -4.42750       -3.59670        2.19190
C         -5.14080       -4.46110        1.38480
C         -4.55730       -5.60500        0.85640
C         -5.34090       -6.55330        0.00080
C         -3.22350       -5.85950        1.15750
C         -2.49740       -5.00390        1.95780
C         -1.35310       -3.49030        4.16020
C         -0.17530       -2.76730        4.32780
C          0.78430       -3.20330        5.21610
C          0.60280       -4.37050        5.94900
C          1.64650       -4.81340        6.92690
C         -0.56450       -5.09700        5.75820
C         -1.53850       -4.66580        4.87810
C         -2.70180       -0.93940        4.61580
S         -2.35020       -1.37160        6.25160
C         -2.60580        0.30560        6.75420
C         -2.84770        1.16210        5.64260
N         -2.86600        2.52450        5.68260
C         -2.11980        3.29060        6.60320
C         -2.65040        4.48890        7.07050
C         -1.93940        5.25290        7.97460
C         -0.69520        4.84340        8.43800
C          0.03630        5.65040        9.46500
C         -0.16000        3.66120        7.93810
C         -0.85220        2.89490        7.02220
C         -3.43540        3.23320        4.59670
C         -2.64480        4.09910        3.84650
C         -3.19090        4.78010        2.77930
C         -4.53650        4.63890        2.45410
C         -5.10470        5.39190        1.29020
C         -5.32140        3.79370        3.22710
C         -4.77940        3.08180        4.28140
C         -2.96570        0.41840        4.46030
S         -3.27210        0.83640        2.80240
C         -2.64400        0.74520        8.06970
C         -2.30610        0.10030        9.24390
C         -1.73220       -1.23830        9.35900
O         -1.56460       -2.06630        8.47850
C         -1.36580       -1.40090       10.78170
C         -0.77690       -2.48240       11.40370
C         -0.51290       -2.42510       12.76850
C          0.12630       -3.55570       13.50810
C         -0.86790       -1.25770       13.44330
F         -0.61740       -1.19280       14.76690
C         -1.46260       -0.15900       12.84230
C         -1.71270       -0.23440       11.48250
C         -2.32440        0.71110       10.54770
C         -2.81510        1.95060       10.88800
C         -2.69560        2.51930       12.17050
N         -2.61150        3.05520       13.18340
C         -3.51570        2.82060       10.03250
N         -4.12380        3.57780        9.41580
H          6.24390        0.92560       -7.11000
H          7.91430        5.40810       -9.51060
H          8.16580        7.74750      -10.26370
H          7.52170       10.13890      -10.09990
H          4.78190        9.22020       -6.96080
H          4.53130        6.91510       -6.16990
H          4.78430       -0.33670       -2.88570
H          4.64860       -1.76170       -0.88260
H          3.90880       -5.02140       -0.73620
H          4.88780       -3.88120        0.17880
H          5.66130       -5.19460       -0.72090
H          5.27960       -5.22210       -3.29220
H          5.39580       -3.80580       -5.30170
H          7.65100       -1.76870       -4.88550
H          9.39630       -2.20210       -6.56130
H         10.02160       -2.66330       -8.84570
H          9.52550       -1.16690       -9.63790
H          8.78930       -2.69230      -10.11850
H          6.55890       -1.58070       -9.68520
H          4.80700       -1.16240       -8.01420
H         -0.81260       -0.75820       -6.38210
H         -3.00220       -1.50150       -7.17500
H         -5.39240       -1.30960       -7.18050
H         -5.69300        0.32670       -7.76680
H         -6.17400       -0.11640       -6.13240
H         -4.81430        1.96110       -5.46780
H         -2.62210        2.69550       -4.63630
H         -1.01120        3.39140       -6.70160
H         -0.43380        5.77040       -6.50130
H          0.30370        7.43960       -3.78380
H          0.85470        7.52310       -5.46140
H          1.99310        7.12050       -4.15930
H          1.67250        4.96540       -2.88330
H          1.09750        2.58030       -3.07830
H         -1.37770       -3.09520       -4.16000
H         -1.18970       -4.38150       -6.24110
H          2.29000       -7.76200       -6.43140
H          2.33530       -7.55260       -8.19520
H          3.10030       -6.33270       -7.15290
H          2.52870       -6.01480       -4.89670
H          2.35870       -4.71420       -2.85100
H          1.74890       -1.66330       -0.38960
H          2.58530       -2.48800        1.78680
H          0.63350       -6.37650        3.31880
H          1.96550       -6.77780        4.42000
H          2.04300       -7.32420        2.73190
H          1.07910       -6.38290        0.87170
H          0.23530       -5.55790       -1.26590
H         -4.96410       -1.53420       -0.02940
H         -7.21850       -1.96730        0.73420
H         -9.51080       -2.33640        0.86930
H         -8.76110       -2.33880        2.50030
H        -10.50660       -2.05900        2.31360
H         -7.77710        2.19620        1.51240
H         -5.46620        2.63520        0.76480
H         -5.19980        2.18040       -1.87970
H         -4.56850        4.25450       -3.00110
H         -3.09690        5.15320       -4.81280
H         -4.17310        6.31320       -3.96400
H         -2.71880        6.88850       -4.80440
H         -0.84300        4.26340       -0.90440
H         -1.50130        2.18180        0.25550
H         -4.90310       -2.71500        2.59650
H         -6.17770       -4.24700        1.16730
H         -6.23710       -6.07730       -0.38990
H         -5.64520       -7.42230        0.58550
H         -4.73870       -6.90780       -0.83340
H         -2.74540       -6.73810        0.74820
H         -1.45510       -5.19840        2.16220
H         -0.02380       -1.86370        3.75490
H          1.69370       -2.63460        5.34160
H          1.46320       -5.83080        7.26430
H          1.63540       -4.15700        7.79680
H          2.63790       -4.75900        6.47960
H         -0.72570       -6.00720        6.31830
H         -2.45210       -5.22890        4.75430
H         -3.62540        4.80610        6.73530
H         -2.36890        6.17190        8.34300
H         -0.41210        5.49320       10.44660
H         -0.02750        6.71260        9.23820
H          1.08310        5.36170        9.51780
H          0.81770        3.33730        8.26500
H         -0.41810        1.98330        6.63820
H         -1.60200        4.21980        4.10050
H         -2.56770        5.43100        2.18380
H         -5.00760        6.46480        1.45120
H         -6.15660        5.15810        1.14560
H         -4.55900        5.14500        0.37920
H         -6.37290        3.68660        3.00760
H         -5.39500        2.41790        4.86980
H         -2.97190        1.77030        8.18130
H         -0.52810       -3.36230       10.82970
H          0.31750       -4.39270       12.84280
H         -0.51830       -3.88570       14.32190
H          1.06700       -3.23040       13.95150
H         -1.70540        0.70320       13.44100
