183

C          2.42340       -6.58480       -0.05450
C          1.43850       -7.53130       -0.25940
C         -0.00030       -7.24130       -0.12360
O         -0.52150       -6.18820        0.20110
C         -0.68910       -8.53340       -0.27750
C         -2.02820       -8.79090       -0.28190
C         -2.47110      -10.12320       -0.44450
C         -3.84250      -10.44600       -0.46760
C         -4.25900      -11.73980       -0.61910
C         -3.29680      -12.74870       -0.75370
F         -3.72490      -14.01710       -0.90250
C         -1.95430      -12.48930       -0.73950
C         -1.50760      -11.16320       -0.58460
C         -0.12370      -10.86340       -0.56750
C          0.28070       -9.56490       -0.41980
C          1.60920       -8.95360       -0.38540
C          2.79980       -9.62930       -0.51580
C          2.90450      -11.02960       -0.61920
N          3.05930      -12.16570       -0.69270
C          4.06910       -9.02620       -0.57800
N          5.14180       -8.62110       -0.66300
C          2.19360       -5.21160       -0.22320
C          2.67090       -4.12550        0.53910
N          3.57830       -4.21020        1.55560
C          4.64760       -5.12300        1.48360
C          5.35480       -5.28200        0.29330
C          6.40000       -6.17850        0.22710
C          6.76720       -6.93600        1.33580
C          7.87650       -7.93130        1.22600
C          6.06400       -6.75980        2.52060
C          5.01500       -5.86370        2.60180
C          3.47900       -3.36700        2.67640
C          4.62910       -2.83760        3.25570
C          4.53190       -2.02250        4.36390
C          3.29510       -1.69960        4.91210
C          3.21160       -0.81650        6.11780
C          2.15390       -2.23650        4.33030
C          2.23780       -3.06950        3.23150
C          1.99350       -2.94090        0.17730
S          2.04880       -1.31090        0.74580
C          0.81590       -0.83080       -0.42550
C          0.44330       -1.87620       -1.26430
N         -0.40290       -1.80580       -2.35070
C         -0.46830       -0.67800       -3.18180
C         -1.62990       -0.43140       -3.91250
C         -1.69010        0.62300       -4.79970
C         -0.60850        1.47990       -4.97120
C         -0.67340        2.61920       -5.94100
C          0.53860        1.24270       -4.22340
C          0.61810        0.17730       -3.34650
C         -1.04470       -2.99270       -2.76970
C         -1.63690       -3.82910       -1.82790
C         -2.27220       -4.98820       -2.22090
C         -2.32080       -5.35860       -3.55880
C         -3.00300       -6.62910       -3.96480
C         -1.71460       -4.52770       -4.49270
C         -1.08230       -3.35970       -4.11120
C          1.10640       -3.07390       -0.88210
S          1.06830       -4.68900       -1.47180
C          0.41830        0.53690       -0.32220
C         -0.81100        1.17890       -0.40220
N         -2.04140        0.63230       -0.72560
C         -2.47970       -0.60840       -0.25190
C         -1.93650       -1.20100        0.88560
C         -2.42670       -2.40420        1.36100
C         -3.48390       -3.03360        0.71850
S         -4.19470       -4.56050        1.24680
C         -2.88430       -5.31600        2.25250
C         -4.03570       -2.44170       -0.41680
C         -3.53210       -1.25820       -0.90320
C         -2.97010        1.51850       -1.31190
C         -2.55670        2.34730       -2.35470
C         -3.43300        3.24320       -2.92350
C         -4.74050        3.34450       -2.45610
S         -5.78410        4.52160       -3.25220
C         -7.10200        4.80380       -2.03570
C         -5.15570        2.52490       -1.41390
C         -4.27720        1.62450       -0.84520
C         -0.68900        2.54460       -0.02380
S         -1.82440        3.83860        0.14270
C         -0.56460        4.87930        0.79280
C          0.68770        4.26590        0.81610
N          1.88010        4.83720        1.20830
C          2.81600        4.01270        1.85660
C          4.16290        4.04490        1.51050
C          5.06720        3.20990        2.13650
C          4.63370        2.31750        3.10830
S          5.70860        1.21630        3.96920
C          7.17450        1.12830        2.90170
C          3.28740        2.28750        3.46350
C          2.38920        3.13100        2.85030
C          2.21750        6.14760        0.85450
C          1.74470        6.71640       -0.33000
C          2.06040        8.01700       -0.64910
C          2.86460        8.78110        0.19620
S          3.18560       10.43710       -0.31530
C          4.13840       11.14520        1.05840
C          3.35740        8.21140        1.36320
C          3.03260        6.90990        1.68900
C          0.58340        2.92980        0.36510
S          1.70040        1.62170        0.22950
C         -1.01130        6.13070        1.26130
N         -2.23640        6.54230        1.02830
N         -2.54230        7.67350        1.57240
C         -1.59770        8.22140        2.27580
S         -0.11580        7.24090        2.28450
C         -1.66950        9.45220        2.97400
C         -2.77560       10.23550        3.04560
C         -3.99750        9.89860        2.42170
N         -5.01220        9.66840        1.94140
C         -2.78320       11.51310        3.80550
O         -3.72660       12.25880        3.87090
O         -1.60520       11.74220        4.40770
C         -1.51360       12.93440        5.18900
C         -2.12320       12.74530        6.57050
H          3.39630       -6.90790        0.29460
H         -2.74470       -7.99080       -0.16880
H         -4.56460       -9.65020       -0.36100
H         -5.30440      -12.00430       -0.63710
H         -1.24190      -13.29240       -0.84650
H          0.57950      -11.67430       -0.67040
H          5.07380       -4.70100       -0.57310
H          6.93760       -6.30320       -0.69980
H          8.77120       -7.46690        0.81510
H          8.11490       -8.36510        2.19350
H          7.57350       -8.72850        0.54860
H          6.33130       -7.33910        3.39240
H          4.46870       -5.73970        3.52550
H          5.59400       -3.06940        2.82940
H          5.42800       -1.61650        4.80760
H          3.41100       -1.39660        7.01940
H          2.22190       -0.37590        6.21270
H          3.95520       -0.02400        6.06080
H          1.18380       -2.00910        4.74840
H          1.34450       -3.50160        2.80420
H         -2.48100       -1.08330       -3.78890
H         -2.59810        0.79190       -5.35960
H         -1.70480        2.90580       -6.13130
H         -0.22200        2.32920       -6.89050
H         -0.12960        3.48250       -5.56330
H          1.39350        1.89400       -4.33830
H          1.53740       -0.00430       -2.81060
H         -1.58360       -3.57190       -0.78420
H         -2.72870       -5.61570       -1.47140
H         -2.95360       -6.77340       -5.04100
H         -4.04970       -6.61060       -3.66340
H         -2.53250       -7.48260       -3.47680
H         -1.72760       -4.80030       -5.53830
H         -0.60940       -2.73360       -4.85350
H         -1.14200       -0.70940        1.42630
H         -1.97970       -2.83490        2.24310
H         -1.97360       -5.38440        1.66380
H         -3.24200       -6.31160        2.49770
H         -2.73450       -4.75090        3.16780
H         -4.85280       -2.93360       -0.92100
H         -3.95780       -0.82030       -1.79260
H         -1.53720        2.29360       -2.70090
H         -3.11010        3.88450       -3.72850
H         -7.64270        5.67740       -2.38570
H         -6.65720        5.00740       -1.06660
H         -7.77210        3.94970       -1.99570
H         -6.16070        2.58550       -1.02870
H         -4.60640        1.00540       -0.02400
H          4.50110        4.72440        0.74230
H          6.10600        3.25950        1.85190
H          7.76730        0.30190        3.28140
H          7.74820        2.04850        2.96580
H          6.86380        0.92480        1.88160
H          2.95770        1.59450        4.22090
H          1.34660        3.11000        3.13100
H          1.12460        6.13470       -0.99560
H          1.68790        8.45920       -1.56020
H          5.09190       10.63430        1.15630
H          4.30440       12.18420        0.79110
H          3.56180       11.08870        1.97700
H          3.98520        8.77250        2.03590
H          3.40040        6.48050        2.60890
H         -0.77330        9.77200        3.48580
H         -2.02360       13.74550        4.65910
H         -0.44390       13.14510        5.25370
H         -1.97500       13.64610        7.15900
H         -1.65410       11.90610        7.07900
H         -3.19000       12.55470        6.48210
