260

C          5.38150       -2.64150       -7.66590
C          6.33100       -3.63230       -7.57960
C          6.92580       -4.21660       -8.79940
O          6.81040       -3.81190       -9.93750
C          7.64440       -5.42610       -8.33800
C          8.26490       -6.39620       -9.06810
C          8.85280       -7.49480       -8.39770
C          9.50670       -8.52350       -9.10450
C         10.06310       -9.58740       -8.44930
C          9.97440       -9.64330       -7.05280
F         10.52620      -10.69960       -6.42330
C          9.35260       -8.67230       -6.31840
C          8.77730       -7.56880       -6.97680
C          8.13680       -6.54130       -6.24420
C          7.58930       -5.48460       -6.91580
C          6.89640       -4.29270       -6.43600
C          7.02880       -3.76260       -5.17160
C          7.77170       -4.37010       -4.14530
N          8.38870       -4.81280       -3.28270
C          6.57800       -2.47950       -4.82340
N          6.29440       -1.40680       -4.51840
C          4.41540       -2.34170       -6.69860
C          3.76050       -1.12130       -6.44570
N          3.88280        0.02880       -7.16860
C          4.01500        0.03710       -8.56300
C          3.36810       -0.91710       -9.34750
C          3.50870       -0.89640      -10.71970
C          4.28190        0.07420      -11.34840
C          4.45350        0.06010      -12.83470
C          4.90220        1.03570      -10.56000
C          4.77560        1.02350       -9.18470
C          3.81200        1.26990       -6.49020
C          2.87890        2.22600       -6.87500
C          2.81950        3.43400       -6.20890
C          3.70260        3.72550       -5.17510
C          3.61650        5.02580       -4.43910
C          4.65110        2.77160       -4.82500
C          4.69990        1.54320       -5.45700
C          2.96470       -1.21830       -5.28210
S          1.95050       -0.11590       -4.42470
C          1.39500       -1.40680       -3.35020
C          1.94840       -2.63310       -3.69000
N          1.67220       -3.85810       -3.10030
C          2.76490       -4.73420       -2.94070
C          2.69630       -6.07400       -3.31060
C          3.80110       -6.88840       -3.15930
C          4.99590       -6.39930       -2.64270
C          6.17880       -7.29920       -2.46170
C          5.05710       -5.05870       -2.28190
C          3.96100       -4.23350       -2.43340
C          0.35860       -4.33650       -3.06120
C         -0.59970       -3.87360       -3.96290
C         -1.88340       -4.38050       -3.93750
C         -2.24600       -5.37080       -3.03460
C         -3.64030       -5.92000       -3.03190
C         -1.28580       -5.82660       -2.14020
C         -0.00590       -5.31250       -2.13640
C          2.87800       -2.49220       -4.74720
S          3.90150       -3.60660       -5.57020
C          0.50800       -1.00000       -2.31120
C          0.62930        0.23530       -1.68170
N          1.78650        0.99830       -1.70270
C          1.66770        2.38570       -1.57110
C          0.75330        3.07500       -2.36780
C          0.58160        4.43110       -2.20730
C          1.30010        5.12530       -1.23390
S          0.93250        6.84520       -1.06100
C          2.01870        7.40060        0.27920
C          2.23250        4.44760       -0.46040
C          2.41950        3.09080       -0.63550
C          3.01610        0.35620       -1.47050
C          4.17170        0.86150       -2.05340
C          5.38740        0.22770       -1.88650
C          5.46710       -0.92730       -1.12050
S          6.94050       -1.86200       -0.86500
C          8.20320       -0.96230       -1.80250
C          4.31610       -1.41480       -0.50120
C          3.10330       -0.78690       -0.67670
C         -0.47630        0.50910       -0.85770
S         -0.94250        1.88510        0.06520
C         -2.29480        0.97370        0.74900
C         -2.40460       -0.30110        0.19730
N         -3.37930       -1.22750        0.52680
C         -2.99950       -2.57010        0.66240
C         -3.83830       -3.59990        0.24640
C         -3.48290       -4.92030        0.43530
C         -2.26660       -5.23610        1.02440
S         -1.71750       -6.88470        1.34020
C         -3.18280       -7.90290        0.99660
C         -1.40310       -4.21090        1.40120
C         -1.76740       -2.89480        1.23160
C         -4.71410       -0.84160        0.68630
C         -5.23740        0.22480       -0.04600
C         -6.55750        0.58660        0.10360
C         -7.39340       -0.11590        0.96740
S         -9.06910        0.43120        1.08510
C         -9.93320       -0.99710        1.79880
C         -6.87850       -1.17730        1.69820
C         -5.54950       -1.52380        1.56950
C         -1.36950       -0.54390       -0.73820
S         -0.90440       -1.88690       -1.73910
C         -2.90940        1.54420        1.88860
C         -2.76580        2.88390        2.24690
N         -2.36020        3.88230        1.36930
C         -1.53940        4.88820        1.91240
C         -1.89340        6.23150        1.83860
C         -1.13070        7.18640        2.47630
C         -0.01220        6.80960        3.20700
S          0.95500        7.99120        4.10230
C         -0.34050        9.12770        4.68450
C          0.37680        5.47580        3.23840
C         -0.38060        4.52160        2.59340
C         -3.05250        4.10080        0.17260
C         -2.44600        4.83800       -0.84560
C         -3.10520        5.06010       -2.03220
C         -4.38380        4.54610       -2.23990
S         -5.12790        4.88360       -3.80700
C         -6.81240        4.22680       -3.64180
C         -4.99030        3.81280       -1.23140
C         -4.33230        3.59670       -0.03510
C         -3.06780        3.09930        3.60200
S         -2.80830        4.43530        4.65890
C         -3.36390        3.46980        6.02750
C         -3.70150        2.14590        5.63990
N         -4.08590        1.14060        6.49980
C         -3.52810        1.03060        7.78630
C         -2.17580        1.31530        7.99040
C         -1.66010        1.33850        9.26510
C         -2.47320        1.05180       10.36250
S         -1.73700        1.20130       11.95770
C         -3.16300        1.26300       13.07780
C         -3.79240        0.67410       10.15220
C         -4.31840        0.67400        8.87460
C         -5.03460        0.20600        6.06770
C         -6.10790        0.61020        5.27290
C         -7.06920       -0.29700        4.89120
C         -6.97790       -1.62870        5.28830
S         -8.26700       -2.71940        4.75970
C         -8.09510       -4.15670        5.85120
C         -5.89930       -2.04150        6.05820
C         -4.93850       -1.13000        6.44700
C         -3.51370        1.95840        4.26520
S         -3.59680        0.58400        3.19530
C         -3.43940        3.94520        7.33480
C         -2.83860        5.04500        7.91170
C         -1.96020        6.00740        7.24480
O         -1.85870        6.23160        6.04870
C         -1.22670        6.69920        8.31950
C         -0.20630        7.59840        8.22100
C          0.35770        8.12980        9.40320
C          1.41620        9.05870        9.35960
C          1.95040        9.57250       10.50910
C          1.42870        9.15850       11.74120
F          1.96530        9.67610       12.86280
C          0.40590        8.25600       11.83940
C         -0.15590        7.71710       10.66640
C         -1.20880        6.77290       10.73540
C         -1.73250        6.26570        9.57780
C         -2.78250        5.27990        9.33390
C         -3.55810        4.69130       10.30470
C         -3.37970        4.87830       11.68840
N         -3.28980        4.95320       12.83170
C         -4.65660        3.84620       10.06660
N         -5.58310        3.17100        9.97190
H          5.35150       -2.10190       -8.60640
H          8.30790       -6.33210      -10.14510
H          9.56190       -8.45890      -10.18100
H         10.56650      -10.38230       -8.97650
H          9.30760       -8.74520       -5.24290
H          8.08420       -6.62140       -5.16990
H          2.75550       -1.67060       -8.87420
H          3.00920       -1.64640      -11.31500
H          3.51070       -0.16110      -13.33100
H          4.82800        1.01500      -13.19440
H          5.16740       -0.71510      -13.11440
H          5.50350        1.80160      -11.02750
H          5.27220        1.77040       -8.58350
H          2.20130        2.01160       -7.68840
H          2.07850        4.16500       -6.49680
H          2.90270        4.93570       -3.61900
H          3.27360        5.82320       -5.09390
H          4.58110        5.30140       -4.01920
H          5.37240        3.00160       -4.05350
H          5.42100        0.79460       -5.16440
H          1.78210       -6.47030       -3.72740
H          3.73590       -7.92520       -3.45740
H          6.09920       -7.83200       -1.51360
H          6.22680       -8.03980       -3.25830
H          7.10050       -6.72220       -2.44760
H          5.97090       -4.65210       -1.87510
H          4.02580       -3.19070       -2.16030
H         -0.33060       -3.12770       -4.69660
H         -2.61160       -4.01120       -4.64530
H         -4.31500       -5.22340       -2.53370
H         -3.99970       -6.06340       -4.04910
H         -3.68200       -6.87380       -2.51090
H         -1.53520       -6.60450       -1.43540
H          0.72160       -5.67280       -1.42510
H          0.18590        2.53640       -3.11180
H         -0.11580        4.96810       -2.83070
H          1.79490        6.85310        1.19000
H          1.79250        8.45280        0.42090
H          3.05840        7.28420       -0.01250
H          2.80800        4.95990        0.29320
H          3.13710        2.56490       -0.02340
H          4.09900        1.75330       -2.65450
H          6.25910        0.63490       -2.37050
H          9.10400       -1.56380       -1.72830
H          7.89570       -0.88250       -2.84120
H          8.36910        0.01520       -1.35820
H          4.38870       -2.29360        0.12200
H          2.22140       -1.18240       -0.19480
H         -4.78210       -3.36230       -0.22170
H         -4.16290       -5.69200        0.11390
H         -4.01830       -7.56070        1.59990
H         -3.42580       -7.87550       -0.06190
H         -2.90940       -8.91390        1.28230
H         -0.45290       -4.46080        1.84750
H         -1.10670       -2.10640        1.56010
H         -4.60710        0.76140       -0.73960
H         -6.96640        1.40900       -0.46270
H        -10.99150       -0.77120        1.71290
H         -9.66880       -1.12850        2.84410
H         -9.69380       -1.88670        1.22480
H         -7.49990       -1.73680        2.37710
H         -5.15170       -2.33080        2.16570
H         -2.78100        6.52300        1.29790
H         -1.42590        8.22150        2.41570
H         -0.66400        9.78200        3.88030
H          0.10410        9.72370        5.47590
H         -1.16540        8.53330        5.06690
H          1.26320        5.19440        3.78660
H         -0.09550        3.48040        2.62850
H         -1.45750        5.23820       -0.69200
H         -2.63840        5.63810       -2.81480
H         -7.31690        4.48220       -4.56850
H         -6.78470        3.14710       -3.52460
H         -7.31490        4.70320       -2.80510
H         -5.98310        3.41190       -1.35460
H         -4.83020        3.03810        0.74380
H         -1.54560        1.55040        7.14570
H         -0.62320        1.58690        9.43150
H         -3.87930        1.99430       12.71570
H         -2.76690        1.58230       14.03650
H         -3.61240        0.27850       13.17230
H         -4.43380        0.41230       10.97720
H         -5.35900        0.43150        8.72570
H         -6.19980        1.64530        4.98100
H         -7.91010        0.02950        4.30020
H         -7.21270       -4.73100        5.58320
H         -8.05200       -3.82380        6.88380
H         -8.98580       -4.75640        5.69050
H         -5.79220       -3.07110        6.36010
H         -4.10340       -1.45540        7.04900
H         -3.97630        3.29740        8.01520
H          0.17920        7.89210        7.25690
H          1.80320        9.35930        8.39730
H          2.76030       10.28450       10.49350
H          0.03200        7.95770       12.80640
H         -1.56620        6.46920       11.70640
