
  xtb     02112218213D
 energy: -409.328687527243 gnorm: 0.000252501835 xtb: 6.4.1 (unknown)
238260  0     0  0            999 V2000
   -8.5681    0.7791   -2.9467 C   0  0  0  0  0  0  0  0  0  0  0  0
   -9.4794    0.6672   -1.9236 C   0  0  0  0  0  0  0  0  0  0  0  0
  -10.8409    1.2192   -2.1012 C   0  0  0  0  0  0  0  0  0  0  0  0
  -11.3419    1.6240   -3.1279 O   0  0  0  0  0  0  0  0  0  0  0  0
  -11.4275    1.2414   -0.7437 C   0  0  0  0  0  0  0  0  0  0  0  0
  -12.6101    1.7764   -0.3272 C   0  0  0  0  0  0  0  0  0  0  0  0
  -12.9484    1.7168    1.0442 C   0  0  0  0  0  0  0  0  0  0  0  0
  -14.1447    2.2787    1.5334 C   0  0  0  0  0  0  0  0  0  0  0  0
  -14.4567    2.2271    2.8640 C   0  0  0  0  0  0  0  0  0  0  0  0
  -13.5655    1.5993    3.7436 C   0  0  0  0  0  0  0  0  0  0  0  0
  -13.8865    1.5600    5.0516 F   0  0  0  0  0  0  0  0  0  0  0  0
  -12.3938    1.0355    3.3214 C   0  0  0  0  0  0  0  0  0  0  0  0
  -12.0561    1.0815    1.9550 C   0  0  0  0  0  0  0  0  0  0  0  0
  -10.8443    0.5196    1.4899 C   0  0  0  0  0  0  0  0  0  0  0  0
  -10.5298    0.6117    0.1628 C   0  0  0  0  0  0  0  0  0  0  0  0
   -9.3576    0.1668   -0.5859 C   0  0  0  0  0  0  0  0  0  0  0  0
   -8.4193   -0.7411   -0.1454 C   0  0  0  0  0  0  0  0  0  0  0  0
   -8.3127   -1.1806    1.1851 C   0  0  0  0  0  0  0  0  0  0  0  0
   -8.1451   -1.5386    2.2644 N   0  0  0  0  0  0  0  0  0  0  0  0
   -7.5056   -1.3756   -1.0015 C   0  0  0  0  0  0  0  0  0  0  0  0
   -6.7606   -1.9420   -1.6695 N   0  0  0  0  0  0  0  0  0  0  0  0
   -7.1699    0.7963   -2.9207 C   0  0  0  0  0  0  0  0  0  0  0  0
   -6.2290    1.0039   -1.8907 C   0  0  0  0  0  0  0  0  0  0  0  0
   -6.4639    1.4261   -0.6099 N   0  0  0  0  0  0  0  0  0  0  0  0
   -5.3927    1.3165    0.3267 C   0  0  0  0  0  0  0  0  0  0  0  0
   -4.7848    2.4703    0.8081 C   0  0  0  0  0  0  0  0  0  0  0  0
   -3.7305    2.3769    1.6954 C   0  0  0  0  0  0  0  0  0  0  0  0
   -3.2721    1.1390    2.1295 C   0  0  0  0  0  0  0  0  0  0  0  0
   -2.1110    1.0306    3.0681 C   0  0  0  0  0  0  0  0  0  0  0  0
   -3.9033   -0.0067    1.6582 C   0  0  0  0  0  0  0  0  0  0  0  0
   -4.9516    0.0723    0.7619 C   0  0  0  0  0  0  0  0  0  0  0  0
   -7.5289    2.2468   -0.2084 C   0  0  0  0  0  0  0  0  0  0  0  0
   -7.9157    2.2266    1.1335 C   0  0  0  0  0  0  0  0  0  0  0  0
   -8.9620    3.0100    1.5706 C   0  0  0  0  0  0  0  0  0  0  0  0
   -9.6613    3.8312    0.6919 C   0  0  0  0  0  0  0  0  0  0  0  0
  -10.8132    4.6577    1.1698 C   0  0  0  0  0  0  0  0  0  0  0  0
   -9.2443    3.8787   -0.6320 C   0  0  0  0  0  0  0  0  0  0  0  0
   -8.1887    3.1081   -1.0813 C   0  0  0  0  0  0  0  0  0  0  0  0
   -4.9183    0.7815   -2.3805 C   0  0  0  0  0  0  0  0  0  0  0  0
   -3.3580    0.7510   -1.6472 S   0  0  0  0  0  0  0  0  0  0  0  0
   -2.6003    0.3712   -3.1919 C   0  0  0  0  0  0  0  0  0  0  0  0
   -3.5123    0.2907   -4.2197 C   0  0  0  0  0  0  0  0  0  0  0  0
   -3.2273    0.0924   -5.5578 N   0  0  0  0  0  0  0  0  0  0  0  0
   -3.9740    0.8144   -6.5026 C   0  0  0  0  0  0  0  0  0  0  0  0
   -4.3946    2.1124   -6.2181 C   0  0  0  0  0  0  0  0  0  0  0  0
   -5.1380    2.8236   -7.1378 C   0  0  0  0  0  0  0  0  0  0  0  0
   -5.4655    2.2767   -8.3725 C   0  0  0  0  0  0  0  0  0  0  0  0
   -6.2647    3.0627   -9.3657 C   0  0  0  0  0  0  0  0  0  0  0  0
   -5.0436    0.9816   -8.6496 C   0  0  0  0  0  0  0  0  0  0  0  0
   -4.3174    0.2516   -7.7291 C   0  0  0  0  0  0  0  0  0  0  0  0
   -2.2714   -0.8455   -5.9722 C   0  0  0  0  0  0  0  0  0  0  0  0
   -1.4886   -0.5938   -7.0973 C   0  0  0  0  0  0  0  0  0  0  0  0
   -0.6139   -1.5508   -7.5653 C   0  0  0  0  0  0  0  0  0  0  0  0
   -0.4857   -2.7807   -6.9279 C   0  0  0  0  0  0  0  0  0  0  0  0
    0.4225   -3.8270   -7.4974 C   0  0  0  0  0  0  0  0  0  0  0  0
   -1.2355   -3.0074   -5.7821 C   0  0  0  0  0  0  0  0  0  0  0  0
   -2.1206   -2.0576   -5.3061 C   0  0  0  0  0  0  0  0  0  0  0  0
   -4.8326    0.5133   -3.7360 C   0  0  0  0  0  0  0  0  0  0  0  0
   -6.3829    0.5080   -4.4811 S   0  0  0  0  0  0  0  0  0  0  0  0
   -1.1678    0.2016   -3.0819 C   0  0  0  0  0  0  0  0  0  0  0  0
   -0.3041    1.2413   -2.8202 C   0  0  0  0  0  0  0  0  0  0  0  0
   -0.6276    2.5909   -2.9245 N   0  0  0  0  0  0  0  0  0  0  0  0
   -1.1458    3.1302   -4.0981 C   0  0  0  0  0  0  0  0  0  0  0  0
   -1.9230    4.2902   -4.0602 C   0  0  0  0  0  0  0  0  0  0  0  0
   -2.3953    4.8511   -5.2256 C   0  0  0  0  0  0  0  0  0  0  0  0
   -2.1132    4.2676   -6.4591 C   0  0  0  0  0  0  0  0  0  0  0  0
   -2.7564    5.0794   -7.8898 S   0  0  0  0  0  0  0  0  0  0  0  0
   -2.4037    3.9261   -9.2442 C   0  0  0  0  0  0  0  0  0  0  0  0
   -1.3580    3.1052   -6.5002 C   0  0  0  0  0  0  0  0  0  0  0  0
   -0.8838    2.5402   -5.3328 C   0  0  0  0  0  0  0  0  0  0  0  0
   -0.2824    3.3827   -1.8163 C   0  0  0  0  0  0  0  0  0  0  0  0
   -0.5249    2.8942   -0.5311 C   0  0  0  0  0  0  0  0  0  0  0  0
   -0.1117    3.6059    0.5712 C   0  0  0  0  0  0  0  0  0  0  0  0
    0.5439    4.8258    0.4191 C   0  0  0  0  0  0  0  0  0  0  0  0
    1.0491    5.6380    1.9023 S   0  0  0  0  0  0  0  0  0  0  0  0
    2.2062    6.9079    1.3230 C   0  0  0  0  0  0  0  0  0  0  0  0
    0.7526    5.3329   -0.8569 C   0  0  0  0  0  0  0  0  0  0  0  0
    0.3489    4.6132   -1.9649 C   0  0  0  0  0  0  0  0  0  0  0  0
    0.9329    0.7773   -2.3114 C   0  0  0  0  0  0  0  0  0  0  0  0
    2.3357    1.5660   -1.6956 S   0  0  0  0  0  0  0  0  0  0  0  0
    2.9883    0.0240   -1.1486 C   0  0  0  0  0  0  0  0  0  0  0  0
    2.1365   -1.0426   -1.4297 C   0  0  0  0  0  0  0  0  0  0  0  0
    2.2719   -2.3530   -1.0090 N   0  0  0  0  0  0  0  0  0  0  0  0
    2.7273   -2.6868    0.2712 C   0  0  0  0  0  0  0  0  0  0  0  0
    2.5653   -1.8214    1.3498 C   0  0  0  0  0  0  0  0  0  0  0  0
    3.0877   -2.1286    2.5914 C   0  0  0  0  0  0  0  0  0  0  0  0
    3.7677   -3.3227    2.7861 C   0  0  0  0  0  0  0  0  0  0  0  0
    4.5099   -3.8120    4.3080 S   0  0  0  0  0  0  0  0  0  0  0  0
    4.0042   -2.5307    5.4861 C   0  0  0  0  0  0  0  0  0  0  0  0
    3.8987   -4.2109    1.7182 C   0  0  0  0  0  0  0  0  0  0  0  0
    3.3977   -3.8963    0.4771 C   0  0  0  0  0  0  0  0  0  0  0  0
    1.7798   -3.3601   -1.8575 C   0  0  0  0  0  0  0  0  0  0  0  0
    0.9975   -4.3972   -1.3599 C   0  0  0  0  0  0  0  0  0  0  0  0
    0.5203   -5.3833   -2.2002 C   0  0  0  0  0  0  0  0  0  0  0  0
    0.8218   -5.3468   -3.5550 C   0  0  0  0  0  0  0  0  0  0  0  0
    0.2641   -6.5467   -4.7242 S   0  0  0  0  0  0  0  0  0  0  0  0
   -0.7050   -7.7176   -3.7353 C   0  0  0  0  0  0  0  0  0  0  0  0
    1.6080   -4.3105   -4.0556 C   0  0  0  0  0  0  0  0  0  0  0  0
    2.0782   -3.3250   -3.2190 C   0  0  0  0  0  0  0  0  0  0  0  0
    0.9898   -0.5937   -2.1366 C   0  0  0  0  0  0  0  0  0  0  0  0
   -0.4509   -1.3641   -2.7143 S   0  0  0  0  0  0  0  0  0  0  0  0
    4.2076    0.0558   -0.4183 C   0  0  0  0  0  0  0  0  0  0  0  0
    5.0484   -0.9674   -0.0769 C   0  0  0  0  0  0  0  0  0  0  0  0
    6.0831   -0.5868    0.8079 C   0  0  0  0  0  0  0  0  0  0  0  0
    7.0199   -1.4212    1.4458 C   0  0  0  0  0  0  0  0  0  0  0  0
    7.1054   -2.8535    1.1368 C   0  0  0  0  0  0  0  0  0  0  0  0
    7.1883   -3.8038    2.1495 C   0  0  0  0  0  0  0  0  0  0  0  0
    7.2815   -5.1418    1.8244 C   0  0  0  0  0  0  0  0  0  0  0  0
    7.3619   -6.0383    2.8260 F   0  0  0  0  0  0  0  0  0  0  0  0
    7.2856   -5.6122    0.5156 C   0  0  0  0  0  0  0  0  0  0  0  0
    7.4128   -7.0712    0.1924 C   0  0  0  0  0  0  0  0  0  0  0  0
    8.8861   -7.4823    0.1381 C   0  0  0  0  0  0  0  0  0  0  0  0
    7.2099   -4.6321   -0.4670 C   0  0  0  0  0  0  0  0  0  0  0  0
    7.2150   -5.0137   -1.7622 F   0  0  0  0  0  0  0  0  0  0  0  0
    7.1264   -3.2834   -0.1879 C   0  0  0  0  0  0  0  0  0  0  0  0
    7.8376   -0.8188    2.3891 C   0  0  0  0  0  0  0  0  0  0  0  0
    7.8495    0.5794    2.6291 C   0  0  0  0  0  0  0  0  0  0  0  0
    6.9517    1.4204    1.9463 C   0  0  0  0  0  0  0  0  0  0  0  0
    6.9968    2.8783    2.1162 C   0  0  0  0  0  0  0  0  0  0  0  0
    5.8505    3.6154    2.3949 C   0  0  0  0  0  0  0  0  0  0  0  0
    5.9414    4.9877    2.5157 C   0  0  0  0  0  0  0  0  0  0  0  0
    7.1284    5.6950    2.3601 C   0  0  0  0  0  0  0  0  0  0  0  0
    7.2012    7.1842    2.5230 C   0  0  0  0  0  0  0  0  0  0  0  0
    7.4485    7.5526    3.9879 C   0  0  0  0  0  0  0  0  0  0  0  0
    8.2503    4.9213    2.0850 C   0  0  0  0  0  0  0  0  0  0  0  0
    8.2086    3.5474    1.9625 C   0  0  0  0  0  0  0  0  0  0  0  0
    9.4371    5.5404    1.9191 F   0  0  0  0  0  0  0  0  0  0  0  0
    4.8186    5.6817    2.7903 F   0  0  0  0  0  0  0  0  0  0  0  0
    6.0467    0.8018    1.1016 C   0  0  0  0  0  0  0  0  0  0  0  0
    4.7368    1.5861    0.2623 S   0  0  0  0  0  0  0  0  0  0  0  0
    8.7685    0.9387    3.6417 C   0  0  0  0  0  0  0  0  0  0  0  0
    9.4020   -0.1303    4.2118 C   0  0  0  0  0  0  0  0  0  0  0  0
    8.9745   -1.6398    3.4211 S   0  0  0  0  0  0  0  0  0  0  0  0
   10.2976   -0.1089    5.3179 C   0  0  0  0  0  0  0  0  0  0  0  0
   10.4461   -1.0665    6.2675 C   0  0  0  0  0  0  0  0  0  0  0  0
   11.6661   -1.0979    7.1239 C   0  0  0  0  0  0  0  0  0  0  0  0
   12.4944   -0.2237    7.2319 O   0  0  0  0  0  0  0  0  0  0  0  0
   11.6603   -2.4322    7.7533 C   0  0  0  0  0  0  0  0  0  0  0  0
   12.6102   -3.0158    8.5413 C   0  0  0  0  0  0  0  0  0  0  0  0
   12.3967   -4.3272    9.0219 C   0  0  0  0  0  0  0  0  0  0  0  0
   13.3417   -4.9715    9.8464 C   0  0  0  0  0  0  0  0  0  0  0  0
   13.1279   -6.2420   10.3037 C   0  0  0  0  0  0  0  0  0  0  0  0
   11.9477   -6.9044    9.9391 C   0  0  0  0  0  0  0  0  0  0  0  0
   11.7556   -8.1540   10.3988 F   0  0  0  0  0  0  0  0  0  0  0  0
   10.9991   -6.3270    9.1418 C   0  0  0  0  0  0  0  0  0  0  0  0
   11.2010   -5.0172    8.6649 C   0  0  0  0  0  0  0  0  0  0  0  0
   10.2314   -4.3868    7.8512 C   0  0  0  0  0  0  0  0  0  0  0  0
   10.4538   -3.1098    7.4119 C   0  0  0  0  0  0  0  0  0  0  0  0
    9.6259   -2.2101    6.6168 C   0  0  0  0  0  0  0  0  0  0  0  0
    8.2666   -2.3096    6.4827 C   0  0  0  0  0  0  0  0  0  0  0  0
    7.4342   -1.3014    5.9556 C   0  0  0  0  0  0  0  0  0  0  0  0
    6.6828   -0.5073    5.6024 N   0  0  0  0  0  0  0  0  0  0  0  0
    7.5012   -3.3853    6.9803 C   0  0  0  0  0  0  0  0  0  0  0  0
    6.8139   -4.2174    7.3710 N   0  0  0  0  0  0  0  0  0  0  0  0
   -9.0103    0.9382   -3.9262 H   0  0  0  0  0  0  0  0  0  0  0  0
  -13.2800    2.2456   -1.0322 H   0  0  0  0  0  0  0  0  0  0  0  0
  -14.8161    2.7568    0.8360 H   0  0  0  0  0  0  0  0  0  0  0  0
  -15.3670    2.6540    3.2540 H   0  0  0  0  0  0  0  0  0  0  0  0
  -11.7321    0.5574    4.0269 H   0  0  0  0  0  0  0  0  0  0  0  0
  -10.1840    0.0485    2.2007 H   0  0  0  0  0  0  0  0  0  0  0  0
   -5.1359    3.4356    0.4735 H   0  0  0  0  0  0  0  0  0  0  0  0
   -3.2539    3.2797    2.0478 H   0  0  0  0  0  0  0  0  0  0  0  0
   -1.8955    1.9878    3.5358 H   0  0  0  0  0  0  0  0  0  0  0  0
   -2.3117    0.2950    3.8443 H   0  0  0  0  0  0  0  0  0  0  0  0
   -1.2239    0.7053    2.5238 H   0  0  0  0  0  0  0  0  0  0  0  0
   -3.5682   -0.9770    1.9930 H   0  0  0  0  0  0  0  0  0  0  0  0
   -5.4190   -0.8265    0.3912 H   0  0  0  0  0  0  0  0  0  0  0  0
   -7.4015    1.5765    1.8259 H   0  0  0  0  0  0  0  0  0  0  0  0
   -9.2531    2.9725    2.6098 H   0  0  0  0  0  0  0  0  0  0  0  0
  -10.4544    5.6139    1.5521 H   0  0  0  0  0  0  0  0  0  0  0  0
  -11.3438    4.1517    1.9735 H   0  0  0  0  0  0  0  0  0  0  0  0
  -11.5082    4.8573    0.3580 H   0  0  0  0  0  0  0  0  0  0  0  0
   -9.7538    4.5265   -1.3299 H   0  0  0  0  0  0  0  0  0  0  0  0
   -7.8704    3.1874   -2.1091 H   0  0  0  0  0  0  0  0  0  0  0  0
   -4.1270    2.5680   -5.2762 H   0  0  0  0  0  0  0  0  0  0  0  0
   -5.4532    3.8284   -6.8992 H   0  0  0  0  0  0  0  0  0  0  0  0
   -7.3287    2.9652   -9.1482 H   0  0  0  0  0  0  0  0  0  0  0  0
   -6.0929    2.7028  -10.3775 H   0  0  0  0  0  0  0  0  0  0  0  0
   -6.0079    4.1187   -9.3148 H   0  0  0  0  0  0  0  0  0  0  0  0
   -5.2947    0.5310   -9.5992 H   0  0  0  0  0  0  0  0  0  0  0  0
   -4.0144   -0.7593   -7.9573 H   0  0  0  0  0  0  0  0  0  0  0  0
   -1.5913    0.3484   -7.6133 H   0  0  0  0  0  0  0  0  0  0  0  0
   -0.0257   -1.3467   -8.4490 H   0  0  0  0  0  0  0  0  0  0  0  0
    0.3449   -4.7568   -6.9403 H   0  0  0  0  0  0  0  0  0  0  0  0
    1.4580   -3.4869   -7.4791 H   0  0  0  0  0  0  0  0  0  0  0  0
    0.1615   -4.0237   -8.5366 H   0  0  0  0  0  0  0  0  0  0  0  0
   -1.1453   -3.9499   -5.2641 H   0  0  0  0  0  0  0  0  0  0  0  0
   -2.7202   -2.2655   -4.4318 H   0  0  0  0  0  0  0  0  0  0  0  0
   -2.1513    4.7459   -3.1082 H   0  0  0  0  0  0  0  0  0  0  0  0
   -2.9939    5.7487   -5.1943 H   0  0  0  0  0  0  0  0  0  0  0  0
   -2.8542    2.9612   -9.0283 H   0  0  0  0  0  0  0  0  0  0  0  0
   -2.8667    4.3603  -10.1248 H   0  0  0  0  0  0  0  0  0  0  0  0
   -1.3314    3.8444   -9.3975 H   0  0  0  0  0  0  0  0  0  0  0  0
   -1.1153    2.6366   -7.4399 H   0  0  0  0  0  0  0  0  0  0  0  0
   -0.2903    1.6389   -5.3814 H   0  0  0  0  0  0  0  0  0  0  0  0
   -1.0362    1.9506   -0.4064 H   0  0  0  0  0  0  0  0  0  0  0  0
   -0.2870    3.2246    1.5650 H   0  0  0  0  0  0  0  0  0  0  0  0
    2.6868    7.2923    2.2167 H   0  0  0  0  0  0  0  0  0  0  0  0
    1.6709    7.7053    0.8151 H   0  0  0  0  0  0  0  0  0  0  0  0
    2.9479    6.4505    0.6757 H   0  0  0  0  0  0  0  0  0  0  0  0
    1.2418    6.2824   -1.0033 H   0  0  0  0  0  0  0  0  0  0  0  0
    0.5356    5.0015   -2.9552 H   0  0  0  0  0  0  0  0  0  0  0  0
    2.0271   -0.8948    1.2168 H   0  0  0  0  0  0  0  0  0  0  0  0
    2.9602   -1.4246    3.3976 H   0  0  0  0  0  0  0  0  0  0  0  0
    4.4655   -1.5806    5.2302 H   0  0  0  0  0  0  0  0  0  0  0  0
    4.3753   -2.8691    6.4491 H   0  0  0  0  0  0  0  0  0  0  0  0
    2.9211   -2.4594    5.5110 H   0  0  0  0  0  0  0  0  0  0  0  0
    4.4118   -5.1464    1.8755 H   0  0  0  0  0  0  0  0  0  0  0  0
    3.5321   -4.5800   -0.3480 H   0  0  0  0  0  0  0  0  0  0  0  0
    0.7579   -4.4268   -0.3075 H   0  0  0  0  0  0  0  0  0  0  0  0
   -0.0897   -6.1683   -1.7839 H   0  0  0  0  0  0  0  0  0  0  0  0
   -1.5506   -7.2095   -3.2809 H   0  0  0  0  0  0  0  0  0  0  0  0
   -1.0596   -8.4666   -4.4367 H   0  0  0  0  0  0  0  0  0  0  0  0
   -0.0720   -8.1845   -2.9863 H   0  0  0  0  0  0  0  0  0  0  0  0
    1.8518   -4.2927   -5.1048 H   0  0  0  0  0  0  0  0  0  0  0  0
    2.6892   -2.5255   -3.6110 H   0  0  0  0  0  0  0  0  0  0  0  0
    4.9247   -1.9720   -0.4291 H   0  0  0  0  0  0  0  0  0  0  0  0
    7.1426   -3.5258    3.1892 H   0  0  0  0  0  0  0  0  0  0  0  0
    6.9040   -7.6560    0.9607 H   0  0  0  0  0  0  0  0  0  0  0  0
    6.9436   -7.2717   -0.7720 H   0  0  0  0  0  0  0  0  0  0  0  0
    9.3671   -7.2934    1.0950 H   0  0  0  0  0  0  0  0  0  0  0  0
    8.9691   -8.5418   -0.0891 H   0  0  0  0  0  0  0  0  0  0  0  0
    9.4090   -6.9196   -0.6321 H   0  0  0  0  0  0  0  0  0  0  0  0
    7.1053   -2.5774   -1.0027 H   0  0  0  0  0  0  0  0  0  0  0  0
    4.8966    3.1350    2.5387 H   0  0  0  0  0  0  0  0  0  0  0  0
    8.0132    7.5761    1.9085 H   0  0  0  0  0  0  0  0  0  0  0  0
    6.2624    7.6308    2.1908 H   0  0  0  0  0  0  0  0  0  0  0  0
    8.3886    7.1277    4.3322 H   0  0  0  0  0  0  0  0  0  0  0  0
    7.4960    8.6329    4.0973 H   0  0  0  0  0  0  0  0  0  0  0  0
    6.6446    7.1744    4.6153 H   0  0  0  0  0  0  0  0  0  0  0  0
    9.1126    3.0099    1.7230 H   0  0  0  0  0  0  0  0  0  0  0  0
    8.8894    1.9436    4.0042 H   0  0  0  0  0  0  0  0  0  0  0  0
   10.9671    0.7427    5.3879 H   0  0  0  0  0  0  0  0  0  0  0  0
   13.5140   -2.4833    8.7971 H   0  0  0  0  0  0  0  0  0  0  0  0
   14.2435   -4.4413   10.1136 H   0  0  0  0  0  0  0  0  0  0  0  0
   13.8402   -6.7482   10.9357 H   0  0  0  0  0  0  0  0  0  0  0  0
   10.1004   -6.8650    8.8837 H   0  0  0  0  0  0  0  0  0  0  0  0
    9.3397   -4.9329    7.5860 H   0  0  0  0  0  0  0  0  0  0  0  0
  1  2  2  0  0  0  0
  2  3  1  0  0  0  0
  3  4  2  0  0  0  0
  3  5  1  0  0  0  0
  5  6  2  0  0  0  0
  6  7  1  0  0  0  0
  7  8  2  0  0  0  0
  8  9  1  0  0  0  0
  9 10  2  0  0  0  0
 10 11  1  0  0  0  0
 10 12  1  0  0  0  0
 12 13  2  0  0  0  0
 13 14  1  0  0  0  0
 14 15  2  0  0  0  0
 15 16  1  0  0  0  0
 16 17  2  0  0  0  0
 17 18  1  0  0  0  0
 18 19  3  0  0  0  0
 17 20  1  0  0  0  0
 20 21  3  0  0  0  0
  1 22  1  0  0  0  0
 22 23  2  0  0  0  0
 23 24  1  0  0  0  0
 24 25  1  0  0  0  0
 25 26  2  0  0  0  0
 26 27  1  0  0  0  0
 27 28  2  0  0  0  0
 28 29  1  0  0  0  0
 28 30  1  0  0  0  0
 30 31  2  0  0  0  0
 24 32  1  0  0  0  0
 32 33  2  0  0  0  0
 33 34  1  0  0  0  0
 34 35  2  0  0  0  0
 35 36  1  0  0  0  0
 35 37  1  0  0  0  0
 37 38  2  0  0  0  0
 23 39  1  0  0  0  0
 39 40  1  0  0  0  0
 40 41  1  0  0  0  0
 41 42  2  0  0  0  0
 42 43  1  0  0  0  0
 43 44  1  0  0  0  0
 44 45  2  0  0  0  0
 45 46  1  0  0  0  0
 46 47  2  0  0  0  0
 47 48  1  0  0  0  0
 47 49  1  0  0  0  0
 49 50  2  0  0  0  0
 43 51  1  0  0  0  0
 51 52  2  0  0  0  0
 52 53  1  0  0  0  0
 53 54  2  0  0  0  0
 54 55  1  0  0  0  0
 54 56  1  0  0  0  0
 56 57  2  0  0  0  0
 42 58  1  0  0  0  0
 58 59  1  0  0  0  0
 41 60  1  0  0  0  0
 60 61  2  0  0  0  0
 61 62  1  0  0  0  0
 62 63  1  0  0  0  0
 63 64  2  0  0  0  0
 64 65  1  0  0  0  0
 65 66  2  0  0  0  0
 66 67  1  0  0  0  0
 67 68  1  0  0  0  0
 66 69  1  0  0  0  0
 69 70  2  0  0  0  0
 62 71  1  0  0  0  0
 71 72  2  0  0  0  0
 72 73  1  0  0  0  0
 73 74  2  0  0  0  0
 74 75  1  0  0  0  0
 75 76  1  0  0  0  0
 74 77  1  0  0  0  0
 77 78  2  0  0  0  0
 61 79  1  0  0  0  0
 79 80  1  0  0  0  0
 80 81  1  0  0  0  0
 81 82  2  0  0  0  0
 82 83  1  0  0  0  0
 83 84  1  0  0  0  0
 84 85  2  0  0  0  0
 85 86  1  0  0  0  0
 86 87  2  0  0  0  0
 87 88  1  0  0  0  0
 88 89  1  0  0  0  0
 87 90  1  0  0  0  0
 90 91  2  0  0  0  0
 83 92  1  0  0  0  0
 92 93  2  0  0  0  0
 93 94  1  0  0  0  0
 94 95  2  0  0  0  0
 95 96  1  0  0  0  0
 96 97  1  0  0  0  0
 95 98  1  0  0  0  0
 98 99  2  0  0  0  0
 82100  1  0  0  0  0
100101  1  0  0  0  0
 81102  1  0  0  0  0
102103  2  0  0  0  0
103104  1  0  0  0  0
104105  2  0  0  0  0
105106  1  0  0  0  0
106107  2  0  0  0  0
107108  1  0  0  0  0
108109  1  0  0  0  0
108110  2  0  0  0  0
110111  1  0  0  0  0
111112  1  0  0  0  0
110113  1  0  0  0  0
113114  1  0  0  0  0
113115  2  0  0  0  0
105116  1  0  0  0  0
116117  2  0  0  0  0
117118  1  0  0  0  0
118119  1  0  0  0  0
119120  2  0  0  0  0
120121  1  0  0  0  0
121122  2  0  0  0  0
122123  1  0  0  0  0
123124  1  0  0  0  0
122125  1  0  0  0  0
125126  2  0  0  0  0
125127  1  0  0  0  0
121128  1  0  0  0  0
118129  2  0  0  0  0
129130  1  0  0  0  0
117131  1  0  0  0  0
131132  2  0  0  0  0
132133  1  0  0  0  0
132134  1  0  0  0  0
134135  2  0  0  0  0
135136  1  0  0  0  0
136137  2  0  0  0  0
136138  1  0  0  0  0
138139  2  0  0  0  0
139140  1  0  0  0  0
140141  2  0  0  0  0
141142  1  0  0  0  0
142143  2  0  0  0  0
143144  1  0  0  0  0
143145  1  0  0  0  0
145146  2  0  0  0  0
146147  1  0  0  0  0
147148  2  0  0  0  0
148149  1  0  0  0  0
149150  2  0  0  0  0
150151  1  0  0  0  0
151152  3  0  0  0  0
150153  1  0  0  0  0
153154  3  0  0  0  0
 16  2  1  0  0  0  0
 59 22  1  0  0  0  0
101 60  1  0  0  0  0
130102  1  0  0  0  0
149135  1  0  0  0  0
 15  5  1  0  0  0  0
 31 25  1  0  0  0  0
 38 32  1  0  0  0  0
 58 39  2  0  0  0  0
 70 63  1  0  0  0  0
 78 71  1  0  0  0  0
100 79  2  0  0  0  0
129104  1  0  0  0  0
148138  1  0  0  0  0
 13  7  1  0  0  0  0
 50 44  1  0  0  0  0
 57 51  1  0  0  0  0
 91 84  1  0  0  0  0
 99 92  1  0  0  0  0
115106  1  0  0  0  0
133116  1  0  0  0  0
146140  1  0  0  0  0
126119  1  0  0  0  0
  1155  1  0  0  0  0
  6156  1  0  0  0  0
  8157  1  0  0  0  0
  9158  1  0  0  0  0
 12159  1  0  0  0  0
 14160  1  0  0  0  0
 26161  1  0  0  0  0
 27162  1  0  0  0  0
 29163  1  0  0  0  0
 29164  1  0  0  0  0
 29165  1  0  0  0  0
 30166  1  0  0  0  0
 31167  1  0  0  0  0
 33168  1  0  0  0  0
 34169  1  0  0  0  0
 36170  1  0  0  0  0
 36171  1  0  0  0  0
 36172  1  0  0  0  0
 37173  1  0  0  0  0
 38174  1  0  0  0  0
 45175  1  0  0  0  0
 46176  1  0  0  0  0
 48177  1  0  0  0  0
 48178  1  0  0  0  0
 48179  1  0  0  0  0
 49180  1  0  0  0  0
 50181  1  0  0  0  0
 52182  1  0  0  0  0
 53183  1  0  0  0  0
 55184  1  0  0  0  0
 55185  1  0  0  0  0
 55186  1  0  0  0  0
 56187  1  0  0  0  0
 57188  1  0  0  0  0
 64189  1  0  0  0  0
 65190  1  0  0  0  0
 68191  1  0  0  0  0
 68192  1  0  0  0  0
 68193  1  0  0  0  0
 69194  1  0  0  0  0
 70195  1  0  0  0  0
 72196  1  0  0  0  0
 73197  1  0  0  0  0
 76198  1  0  0  0  0
 76199  1  0  0  0  0
 76200  1  0  0  0  0
 77201  1  0  0  0  0
 78202  1  0  0  0  0
 85203  1  0  0  0  0
 86204  1  0  0  0  0
 89205  1  0  0  0  0
 89206  1  0  0  0  0
 89207  1  0  0  0  0
 90208  1  0  0  0  0
 91209  1  0  0  0  0
 93210  1  0  0  0  0
 94211  1  0  0  0  0
 97212  1  0  0  0  0
 97213  1  0  0  0  0
 97214  1  0  0  0  0
 98215  1  0  0  0  0
 99216  1  0  0  0  0
103217  1  0  0  0  0
107218  1  0  0  0  0
111219  1  0  0  0  0
111220  1  0  0  0  0
112221  1  0  0  0  0
112222  1  0  0  0  0
112223  1  0  0  0  0
115224  1  0  0  0  0
120225  1  0  0  0  0
123226  1  0  0  0  0
123227  1  0  0  0  0
124228  1  0  0  0  0
124229  1  0  0  0  0
124230  1  0  0  0  0
126231  1  0  0  0  0
131232  1  0  0  0  0
134233  1  0  0  0  0
139234  1  0  0  0  0
141235  1  0  0  0  0
142236  1  0  0  0  0
145237  1  0  0  0  0
147238  1  0  0  0  0
M  END
