
  xtb     02112219303D
 energy: -398.975256704340 gnorm: 0.000270959808 xtb: 6.4.1 (unknown)
241265  0     0  0            999 V2000
   -5.9775   -6.9023    0.6802 C   0  0  0  0  0  0  0  0  0  0  0  0
   -7.0792   -7.4553    0.0579 C   0  0  0  0  0  0  0  0  0  0  0  0
   -8.3033   -6.7493   -0.3138 C   0  0  0  0  0  0  0  0  0  0  0  0
   -8.5403   -5.5558   -0.2202 O   0  0  0  0  0  0  0  0  0  0  0  0
   -9.2385   -7.7855   -0.7938 C   0  0  0  0  0  0  0  0  0  0  0  0
  -10.5164   -7.6447   -1.2475 C   0  0  0  0  0  0  0  0  0  0  0  0
  -11.2354   -8.7934   -1.6507 C   0  0  0  0  0  0  0  0  0  0  0  0
  -12.5585   -8.7068   -2.1271 C   0  0  0  0  0  0  0  0  0  0  0  0
  -13.2450   -9.8260   -2.5103 C   0  0  0  0  0  0  0  0  0  0  0  0
  -12.6106  -11.0716   -2.4232 C   0  0  0  0  0  0  0  0  0  0  0  0
  -13.3021  -12.1633   -2.8039 F   0  0  0  0  0  0  0  0  0  0  0  0
  -11.3284  -11.2113   -1.9695 C   0  0  0  0  0  0  0  0  0  0  0  0
  -10.6074  -10.0694   -1.5713 C   0  0  0  0  0  0  0  0  0  0  0  0
   -9.2772  -10.1826   -1.1005 C   0  0  0  0  0  0  0  0  0  0  0  0
   -8.6015   -9.0563   -0.7179 C   0  0  0  0  0  0  0  0  0  0  0  0
   -7.2415   -8.8581   -0.2200 C   0  0  0  0  0  0  0  0  0  0  0  0
   -6.2904   -9.8464   -0.0971 C   0  0  0  0  0  0  0  0  0  0  0  0
   -6.5382  -11.2131   -0.3262 C   0  0  0  0  0  0  0  0  0  0  0  0
   -6.6752  -12.3438   -0.4784 N   0  0  0  0  0  0  0  0  0  0  0  0
   -4.9390   -9.6372    0.2304 C   0  0  0  0  0  0  0  0  0  0  0  0
   -3.8123   -9.5418    0.4459 N   0  0  0  0  0  0  0  0  0  0  0  0
   -5.6527   -5.5740    0.9152 C   0  0  0  0  0  0  0  0  0  0  0  0
   -4.4322   -5.1727    1.5278 C   0  0  0  0  0  0  0  0  0  0  0  0
   -3.6280   -5.9791    2.2746 N   0  0  0  0  0  0  0  0  0  0  0  0
   -2.2833   -5.6144    2.5224 C   0  0  0  0  0  0  0  0  0  0  0  0
   -1.4038   -5.3924    1.4696 C   0  0  0  0  0  0  0  0  0  0  0  0
   -0.0962   -5.0291    1.7226 C   0  0  0  0  0  0  0  0  0  0  0  0
    0.3663   -4.8858    3.0253 C   0  0  0  0  0  0  0  0  0  0  0  0
    1.7744   -4.4527    3.2897 C   0  0  0  0  0  0  0  0  0  0  0  0
   -0.5142   -5.1372    4.0712 C   0  0  0  0  0  0  0  0  0  0  0  0
   -1.8244   -5.5002    3.8299 C   0  0  0  0  0  0  0  0  0  0  0  0
   -4.1169   -7.0858    3.0036 C   0  0  0  0  0  0  0  0  0  0  0  0
   -5.3388   -7.0326    3.6673 C   0  0  0  0  0  0  0  0  0  0  0  0
   -5.7886   -8.1342    4.3677 C   0  0  0  0  0  0  0  0  0  0  0  0
   -5.0334   -9.2994    4.4371 C   0  0  0  0  0  0  0  0  0  0  0  0
   -5.5294  -10.5040    5.1748 C   0  0  0  0  0  0  0  0  0  0  0  0
   -3.7996   -9.3278    3.7970 C   0  0  0  0  0  0  0  0  0  0  0  0
   -3.3394   -8.2372    3.0871 C   0  0  0  0  0  0  0  0  0  0  0  0
   -4.1793   -3.8177    1.2598 C   0  0  0  0  0  0  0  0  0  0  0  0
   -2.8392   -2.7767    1.5808 S   0  0  0  0  0  0  0  0  0  0  0  0
   -3.6515   -1.4588    0.7412 C   0  0  0  0  0  0  0  0  0  0  0  0
   -4.9479   -1.7774    0.3633 C   0  0  0  0  0  0  0  0  0  0  0  0
   -5.8600   -0.8668   -0.1169 N   0  0  0  0  0  0  0  0  0  0  0  0
   -5.7031    0.5099    0.1327 C   0  0  0  0  0  0  0  0  0  0  0  0
   -5.2370    0.9938    1.3532 C   0  0  0  0  0  0  0  0  0  0  0  0
   -5.0766    2.3503    1.5473 C   0  0  0  0  0  0  0  0  0  0  0  0
   -5.4058    3.2629    0.5507 C   0  0  0  0  0  0  0  0  0  0  0  0
   -5.2108    4.7325    0.7724 C   0  0  0  0  0  0  0  0  0  0  0  0
   -5.9198    2.7750   -0.6438 C   0  0  0  0  0  0  0  0  0  0  0  0
   -6.0604    1.4170   -0.8588 C   0  0  0  0  0  0  0  0  0  0  0  0
   -7.1323   -1.2773   -0.5822 C   0  0  0  0  0  0  0  0  0  0  0  0
   -8.2781   -0.7334   -0.0102 C   0  0  0  0  0  0  0  0  0  0  0  0
   -9.5262   -1.1423   -0.4366 C   0  0  0  0  0  0  0  0  0  0  0  0
   -9.6655   -2.0966   -1.4367 C   0  0  0  0  0  0  0  0  0  0  0  0
  -11.0154   -2.5882   -1.8572 C   0  0  0  0  0  0  0  0  0  0  0  0
   -8.5166   -2.6122   -2.0206 C   0  0  0  0  0  0  0  0  0  0  0  0
   -7.2626   -2.2086   -1.6048 C   0  0  0  0  0  0  0  0  0  0  0  0
   -5.2134   -3.1533    0.6049 C   0  0  0  0  0  0  0  0  0  0  0  0
   -6.5486   -4.1983    0.2655 S   0  0  0  0  0  0  0  0  0  0  0  0
   -2.8569   -0.2775    0.5460 C   0  0  0  0  0  0  0  0  0  0  0  0
   -2.4285    0.3176   -0.6299 C   0  0  0  0  0  0  0  0  0  0  0  0
   -2.8128   -0.0525   -1.9088 N   0  0  0  0  0  0  0  0  0  0  0  0
   -2.9139    0.9107   -2.9189 C   0  0  0  0  0  0  0  0  0  0  0  0
   -2.6312    0.5712   -4.2446 C   0  0  0  0  0  0  0  0  0  0  0  0
   -2.8137    1.4876   -5.2534 C   0  0  0  0  0  0  0  0  0  0  0  0
   -3.2702    2.7738   -4.9694 C   0  0  0  0  0  0  0  0  0  0  0  0
   -3.5342    3.8347   -6.3589 S   0  0  0  0  0  0  0  0  0  0  0  0
   -4.2314    5.3442   -5.6311 C   0  0  0  0  0  0  0  0  0  0  0  0
   -3.4900    3.1365   -3.6486 C   0  0  0  0  0  0  0  0  0  0  0  0
   -3.3124    2.2137   -2.6347 C   0  0  0  0  0  0  0  0  0  0  0  0
   -3.0955   -1.3967   -2.1986 C   0  0  0  0  0  0  0  0  0  0  0  0
   -4.1434   -1.7310   -3.0558 C   0  0  0  0  0  0  0  0  0  0  0  0
   -4.4498   -3.0518   -3.3001 C   0  0  0  0  0  0  0  0  0  0  0  0
   -3.7424   -4.0747   -2.6704 C   0  0  0  0  0  0  0  0  0  0  0  0
   -4.3185   -5.7194   -2.9600 S   0  0  0  0  0  0  0  0  0  0  0  0
   -3.2837   -6.7503   -1.8862 C   0  0  0  0  0  0  0  0  0  0  0  0
   -2.6612   -3.7459   -1.8657 C   0  0  0  0  0  0  0  0  0  0  0  0
   -2.3346   -2.4219   -1.6434 C   0  0  0  0  0  0  0  0  0  0  0  0
   -1.4525    1.3127   -0.3622 C   0  0  0  0  0  0  0  0  0  0  0  0
   -0.3881    2.2681   -1.3401 S   0  0  0  0  0  0  0  0  0  0  0  0
    0.5125    2.8007    0.0885 C   0  0  0  0  0  0  0  0  0  0  0  0
   -0.0329    2.2867    1.2546 C   0  0  0  0  0  0  0  0  0  0  0  0
    0.3664    2.5196    2.5729 N   0  0  0  0  0  0  0  0  0  0  0  0
   -0.6740    2.8624    3.4497 C   0  0  0  0  0  0  0  0  0  0  0  0
   -0.8009    2.2850    4.7132 C   0  0  0  0  0  0  0  0  0  0  0  0
   -1.8633    2.6179    5.5226 C   0  0  0  0  0  0  0  0  0  0  0  0
   -2.8273    3.5291    5.0938 C   0  0  0  0  0  0  0  0  0  0  0  0
   -4.1500    3.8654    6.2149 S   0  0  0  0  0  0  0  0  0  0  0  0
   -5.2938    4.8901    5.2451 C   0  0  0  0  0  0  0  0  0  0  0  0
   -2.7010    4.1131    3.8412 C   0  0  0  0  0  0  0  0  0  0  0  0
   -1.6350    3.7788    3.0295 C   0  0  0  0  0  0  0  0  0  0  0  0
    1.6162    2.1151    3.0379 C   0  0  0  0  0  0  0  0  0  0  0  0
    2.1779    2.7196    4.1622 C   0  0  0  0  0  0  0  0  0  0  0  0
    3.4332    2.3578    4.6034 C   0  0  0  0  0  0  0  0  0  0  0  0
    4.1549    1.3839    3.9264 C   0  0  0  0  0  0  0  0  0  0  0  0
    5.7756    0.8735    4.4104 S   0  0  0  0  0  0  0  0  0  0  0  0
    5.8183    1.2814    6.1804 C   0  0  0  0  0  0  0  0  0  0  0  0
    3.6043    0.7804    2.8006 C   0  0  0  0  0  0  0  0  0  0  0  0
    2.3468    1.1347    2.3640 C   0  0  0  0  0  0  0  0  0  0  0  0
   -1.1403    1.4521    0.9766 C   0  0  0  0  0  0  0  0  0  0  0  0
   -2.0470    0.3743    1.9679 S   0  0  0  0  0  0  0  0  0  0  0  0
    1.7057    3.5453   -0.1246 C   0  0  0  0  0  0  0  0  0  0  0  0
    2.2066    3.9229   -1.3428 C   0  0  0  0  0  0  0  0  0  0  0  0
    3.5125    4.4590   -1.2936 C   0  0  0  0  0  0  0  0  0  0  0  0
    4.3580    4.8499   -2.3582 C   0  0  0  0  0  0  0  0  0  0  0  0
    3.9128    4.9232   -3.7324 C   0  0  0  0  0  0  0  0  0  0  0  0
    4.2679    5.8496   -4.6785 C   0  0  0  0  0  0  0  0  0  0  0  0
    3.5863    5.7082   -5.8987 C   0  0  0  0  0  0  0  0  0  0  0  0
    2.7134    4.6592   -5.9018 C   0  0  0  0  0  0  0  0  0  0  0  0
    1.6337    4.1903   -7.1908 S   0  0  0  0  0  0  0  0  0  0  0  0
    0.1758    3.6907   -6.1996 C   0  0  0  0  0  0  0  0  0  0  0  0
   -0.3769    4.8416   -5.3840 C   0  0  0  0  0  0  0  0  0  0  0  0
    2.7655    3.7927   -4.3963 S   0  0  0  0  0  0  0  0  0  0  0  0
    5.6679    5.1763   -2.0144 C   0  0  0  0  0  0  0  0  0  0  0  0
    6.1677    5.1409   -0.6843 C   0  0  0  0  0  0  0  0  0  0  0  0
    5.2991    4.8285    0.3864 C   0  0  0  0  0  0  0  0  0  0  0  0
    5.7298    4.7635    1.7638 C   0  0  0  0  0  0  0  0  0  0  0  0
    5.0405    5.1664    2.8784 C   0  0  0  0  0  0  0  0  0  0  0  0
    5.7178    4.9151    4.0796 C   0  0  0  0  0  0  0  0  0  0  0  0
    6.9201    4.2891    3.8887 C   0  0  0  0  0  0  0  0  0  0  0  0
    8.0335    3.8607    5.1619 S   0  0  0  0  0  0  0  0  0  0  0  0
    9.0927    2.6008    4.3651 C   0  0  0  0  0  0  0  0  0  0  0  0
   10.2654    3.2015    3.6161 C   0  0  0  0  0  0  0  0  0  0  0  0
    7.2459    4.0323    2.2088 S   0  0  0  0  0  0  0  0  0  0  0  0
    3.9921    4.5153    0.0395 C   0  0  0  0  0  0  0  0  0  0  0  0
    2.7923    3.9716    1.1772 S   0  0  0  0  0  0  0  0  0  0  0  0
    7.5436    5.4306   -0.6198 C   0  0  0  0  0  0  0  0  0  0  0  0
    8.1244    5.6498   -1.8439 C   0  0  0  0  0  0  0  0  0  0  0  0
    6.9312    5.5735   -3.1393 S   0  0  0  0  0  0  0  0  0  0  0  0
    9.4571    5.9183   -2.2300 C   0  0  0  0  0  0  0  0  0  0  0  0
   10.6283    5.7796   -1.5422 C   0  0  0  0  0  0  0  0  0  0  0  0
   10.8581    5.1759   -0.2083 C   0  0  0  0  0  0  0  0  0  0  0  0
   10.0576    4.9574    0.6788 O   0  0  0  0  0  0  0  0  0  0  0  0
   12.2992    4.8685   -0.1526 C   0  0  0  0  0  0  0  0  0  0  0  0
   12.9650    4.1822    0.8608 C   0  0  0  0  0  0  0  0  0  0  0  0
   14.3062    4.0014    0.6256 C   0  0  0  0  0  0  0  0  0  0  0  0
   14.9430    4.4715   -0.5313 C   0  0  0  0  0  0  0  0  0  0  0  0
   14.3023    5.1659   -1.5295 C   0  0  0  0  0  0  0  0  0  0  0  0
   12.9355    5.3593   -1.3095 C   0  0  0  0  0  0  0  0  0  0  0  0
   11.9353    6.0290   -2.1335 C   0  0  0  0  0  0  0  0  0  0  0  0
   12.1984    6.8220   -3.2182 C   0  0  0  0  0  0  0  0  0  0  0  0
   11.2369    7.5667   -3.9356 C   0  0  0  0  0  0  0  0  0  0  0  0
   10.5264    8.2234   -4.5541 N   0  0  0  0  0  0  0  0  0  0  0  0
   13.4905    7.0578   -3.7334 C   0  0  0  0  0  0  0  0  0  0  0  0
   14.5113    7.2897   -4.2047 N   0  0  0  0  0  0  0  0  0  0  0  0
   16.2798    3.9077   -0.1203 C   0  0  0  0  0  0  0  0  0  0  0  0
   16.7498    2.5985   -0.8022 C   0  0  0  0  0  0  0  0  0  0  0  0
   15.5035    1.8600   -1.2225 C   0  0  0  0  0  0  0  0  0  0  0  0
   14.9038    1.4194   -0.1246 C   0  0  0  0  0  0  0  0  0  0  0  0
   15.7339    1.8527    1.0584 C   0  0  0  0  0  0  0  0  0  0  0  0
   17.1401    1.7839    0.4417 C   0  0  0  0  0  0  0  0  0  0  0  0
   15.5720    3.3891    1.1711 C   0  0  0  0  0  0  0  0  0  0  0  0
   -5.2299   -7.6092    1.0154 H   0  0  0  0  0  0  0  0  0  0  0  0
  -10.9761   -6.6691   -1.3003 H   0  0  0  0  0  0  0  0  0  0  0  0
  -13.0266   -7.7354   -2.1850 H   0  0  0  0  0  0  0  0  0  0  0  0
  -14.2582   -9.7766   -2.8765 H   0  0  0  0  0  0  0  0  0  0  0  0
  -10.8708  -12.1869   -1.9170 H   0  0  0  0  0  0  0  0  0  0  0  0
   -8.8298  -11.1625   -1.0540 H   0  0  0  0  0  0  0  0  0  0  0  0
   -1.7507   -5.5171    0.4565 H   0  0  0  0  0  0  0  0  0  0  0  0
    0.5776   -4.8572    0.8959 H   0  0  0  0  0  0  0  0  0  0  0  0
    1.8480   -3.3674    3.2106 H   0  0  0  0  0  0  0  0  0  0  0  0
    2.0906   -4.7409    4.2889 H   0  0  0  0  0  0  0  0  0  0  0  0
    2.4572   -4.8874    2.5630 H   0  0  0  0  0  0  0  0  0  0  0  0
   -0.1715   -5.0410    5.0910 H   0  0  0  0  0  0  0  0  0  0  0  0
   -2.5012   -5.6893    4.6500 H   0  0  0  0  0  0  0  0  0  0  0  0
   -5.9344   -6.1325    3.6265 H   0  0  0  0  0  0  0  0  0  0  0  0
   -6.7411   -8.0833    4.8750 H   0  0  0  0  0  0  0  0  0  0  0  0
   -4.7714  -10.8682    5.8661 H   0  0  0  0  0  0  0  0  0  0  0  0
   -6.4341  -10.2767    5.7328 H   0  0  0  0  0  0  0  0  0  0  0  0
   -5.7495  -11.3077    4.4722 H   0  0  0  0  0  0  0  0  0  0  0  0
   -3.1962  -10.2217    3.8430 H   0  0  0  0  0  0  0  0  0  0  0  0
   -2.3872   -8.2765    2.5818 H   0  0  0  0  0  0  0  0  0  0  0  0
   -5.0142    0.3077    2.1565 H   0  0  0  0  0  0  0  0  0  0  0  0
   -4.6883    2.7029    2.4922 H   0  0  0  0  0  0  0  0  0  0  0  0
   -5.7805    5.0687    1.6385 H   0  0  0  0  0  0  0  0  0  0  0  0
   -5.5356    5.3033   -0.0940 H   0  0  0  0  0  0  0  0  0  0  0  0
   -4.1592    4.9510    0.9573 H   0  0  0  0  0  0  0  0  0  0  0  0
   -6.2016    3.4646   -1.4266 H   0  0  0  0  0  0  0  0  0  0  0  0
   -6.4466    1.0496   -1.7979 H   0  0  0  0  0  0  0  0  0  0  0  0
   -8.1854    0.0003    0.7779 H   0  0  0  0  0  0  0  0  0  0  0  0
  -10.4067   -0.7225    0.0285 H   0  0  0  0  0  0  0  0  0  0  0  0
  -11.8011   -1.9130   -1.5271 H   0  0  0  0  0  0  0  0  0  0  0  0
  -11.0700   -2.6958   -2.9387 H   0  0  0  0  0  0  0  0  0  0  0  0
  -11.1943   -3.5674   -1.4130 H   0  0  0  0  0  0  0  0  0  0  0  0
   -8.6003   -3.3493   -2.8051 H   0  0  0  0  0  0  0  0  0  0  0  0
   -6.3793   -2.6159   -2.0664 H   0  0  0  0  0  0  0  0  0  0  0  0
   -2.2792   -0.4219   -4.4787 H   0  0  0  0  0  0  0  0  0  0  0  0
   -2.6117    1.2164   -6.2781 H   0  0  0  0  0  0  0  0  0  0  0  0
   -3.5038    5.8175   -4.9779 H   0  0  0  0  0  0  0  0  0  0  0  0
   -4.4507    5.9972   -6.4701 H   0  0  0  0  0  0  0  0  0  0  0  0
   -5.1479    5.1079   -5.0987 H   0  0  0  0  0  0  0  0  0  0  0  0
   -3.8159    4.1312   -3.3891 H   0  0  0  0  0  0  0  0  0  0  0  0
   -3.5162    2.5027   -1.6155 H   0  0  0  0  0  0  0  0  0  0  0  0
   -4.7269   -0.9488   -3.5176 H   0  0  0  0  0  0  0  0  0  0  0  0
   -5.2545   -3.3110   -3.9719 H   0  0  0  0  0  0  0  0  0  0  0  0
   -3.6415   -7.7673   -2.0137 H   0  0  0  0  0  0  0  0  0  0  0  0
   -2.2438   -6.6898   -2.1937 H   0  0  0  0  0  0  0  0  0  0  0  0
   -3.4154   -6.4516   -0.8505 H   0  0  0  0  0  0  0  0  0  0  0  0
   -2.0510   -4.5110   -1.4159 H   0  0  0  0  0  0  0  0  0  0  0  0
   -1.4809   -2.1826   -1.0269 H   0  0  0  0  0  0  0  0  0  0  0  0
   -0.0741    1.5600    5.0461 H   0  0  0  0  0  0  0  0  0  0  0  0
   -1.9693    2.1639    6.4959 H   0  0  0  0  0  0  0  0  0  0  0  0
   -4.8320    5.8426    5.0010 H   0  0  0  0  0  0  0  0  0  0  0  0
   -5.6007    4.3558    4.3505 H   0  0  0  0  0  0  0  0  0  0  0  0
   -6.1530    5.0544    5.8879 H   0  0  0  0  0  0  0  0  0  0  0  0
   -3.4183    4.8365    3.4885 H   0  0  0  0  0  0  0  0  0  0  0  0
   -1.5411    4.2357    2.0547 H   0  0  0  0  0  0  0  0  0  0  0  0
    1.6319    3.4949    4.6780 H   0  0  0  0  0  0  0  0  0  0  0  0
    3.8490    2.8531    5.4657 H   0  0  0  0  0  0  0  0  0  0  0  0
    6.6748    0.7524    6.5863 H   0  0  0  0  0  0  0  0  0  0  0  0
    5.9525    2.3500    6.3201 H   0  0  0  0  0  0  0  0  0  0  0  0
    4.9052    0.9293    6.6502 H   0  0  0  0  0  0  0  0  0  0  0  0
    4.1717    0.0271    2.2757 H   0  0  0  0  0  0  0  0  0  0  0  0
    1.9236    0.6554    1.4935 H   0  0  0  0  0  0  0  0  0  0  0  0
    1.6475    3.7622   -2.2453 H   0  0  0  0  0  0  0  0  0  0  0  0
    4.9482    6.6587   -4.4848 H   0  0  0  0  0  0  0  0  0  0  0  0
    3.7077    6.3686   -6.7371 H   0  0  0  0  0  0  0  0  0  0  0  0
   -0.5522    3.3427   -6.9306 H   0  0  0  0  0  0  0  0  0  0  0  0
    0.4775    2.8558   -5.5668 H   0  0  0  0  0  0  0  0  0  0  0  0
    0.3950    5.2847   -4.7577 H   0  0  0  0  0  0  0  0  0  0  0  0
   -1.1677    4.4731   -4.7348 H   0  0  0  0  0  0  0  0  0  0  0  0
   -0.7759    5.6122   -6.0392 H   0  0  0  0  0  0  0  0  0  0  0  0
    4.0884    5.6635    2.8332 H   0  0  0  0  0  0  0  0  0  0  0  0
    5.3453    5.1841    5.0511 H   0  0  0  0  0  0  0  0  0  0  0  0
    8.4489    2.0081    3.7163 H   0  0  0  0  0  0  0  0  0  0  0  0
    9.4361    1.9803    5.1935 H   0  0  0  0  0  0  0  0  0  0  0  0
    9.9308    3.8140    2.7820 H   0  0  0  0  0  0  0  0  0  0  0  0
   10.8856    2.3953    3.2270 H   0  0  0  0  0  0  0  0  0  0  0  0
   10.8667    3.8155    4.2841 H   0  0  0  0  0  0  0  0  0  0  0  0
    8.1056    5.4812    0.2927 H   0  0  0  0  0  0  0  0  0  0  0  0
    9.5448    6.2128   -3.2701 H   0  0  0  0  0  0  0  0  0  0  0  0
   12.4368    3.8356    1.7349 H   0  0  0  0  0  0  0  0  0  0  0  0
   14.8039    5.5206   -2.4144 H   0  0  0  0  0  0  0  0  0  0  0  0
   17.0873    4.6280   -0.0064 H   0  0  0  0  0  0  0  0  0  0  0  0
   17.5073    2.7362   -1.5689 H   0  0  0  0  0  0  0  0  0  0  0  0
   15.1663    1.7845   -2.2398 H   0  0  0  0  0  0  0  0  0  0  0  0
   13.9653    0.9030   -0.0417 H   0  0  0  0  0  0  0  0  0  0  0  0
   15.5673    1.3114    1.9861 H   0  0  0  0  0  0  0  0  0  0  0  0
   17.9054    2.2623    1.0512 H   0  0  0  0  0  0  0  0  0  0  0  0
   17.4446    0.7667    0.2003 H   0  0  0  0  0  0  0  0  0  0  0  0
   15.9153    3.7740    2.1293 H   0  0  0  0  0  0  0  0  0  0  0  0
  1  2  2  0  0  0  0
  2  3  1  0  0  0  0
  3  4  2  0  0  0  0
  3  5  1  0  0  0  0
  5  6  2  0  0  0  0
  6  7  1  0  0  0  0
  7  8  2  0  0  0  0
  8  9  1  0  0  0  0
  9 10  2  0  0  0  0
 10 11  1  0  0  0  0
 10 12  1  0  0  0  0
 12 13  2  0  0  0  0
 13 14  1  0  0  0  0
 14 15  2  0  0  0  0
 15 16  1  0  0  0  0
 16 17  2  0  0  0  0
 17 18  1  0  0  0  0
 18 19  3  0  0  0  0
 17 20  1  0  0  0  0
 20 21  3  0  0  0  0
  1 22  1  0  0  0  0
 22 23  2  0  0  0  0
 23 24  1  0  0  0  0
 24 25  1  0  0  0  0
 25 26  2  0  0  0  0
 26 27  1  0  0  0  0
 27 28  2  0  0  0  0
 28 29  1  0  0  0  0
 28 30  1  0  0  0  0
 30 31  2  0  0  0  0
 24 32  1  0  0  0  0
 32 33  2  0  0  0  0
 33 34  1  0  0  0  0
 34 35  2  0  0  0  0
 35 36  1  0  0  0  0
 35 37  1  0  0  0  0
 37 38  2  0  0  0  0
 23 39  1  0  0  0  0
 39 40  1  0  0  0  0
 40 41  1  0  0  0  0
 41 42  2  0  0  0  0
 42 43  1  0  0  0  0
 43 44  1  0  0  0  0
 44 45  2  0  0  0  0
 45 46  1  0  0  0  0
 46 47  2  0  0  0  0
 47 48  1  0  0  0  0
 47 49  1  0  0  0  0
 49 50  2  0  0  0  0
 43 51  1  0  0  0  0
 51 52  2  0  0  0  0
 52 53  1  0  0  0  0
 53 54  2  0  0  0  0
 54 55  1  0  0  0  0
 54 56  1  0  0  0  0
 56 57  2  0  0  0  0
 42 58  1  0  0  0  0
 58 59  1  0  0  0  0
 41 60  1  0  0  0  0
 60 61  2  0  0  0  0
 61 62  1  0  0  0  0
 62 63  1  0  0  0  0
 63 64  2  0  0  0  0
 64 65  1  0  0  0  0
 65 66  2  0  0  0  0
 66 67  1  0  0  0  0
 67 68  1  0  0  0  0
 66 69  1  0  0  0  0
 69 70  2  0  0  0  0
 62 71  1  0  0  0  0
 71 72  2  0  0  0  0
 72 73  1  0  0  0  0
 73 74  2  0  0  0  0
 74 75  1  0  0  0  0
 75 76  1  0  0  0  0
 74 77  1  0  0  0  0
 77 78  2  0  0  0  0
 61 79  1  0  0  0  0
 79 80  1  0  0  0  0
 80 81  1  0  0  0  0
 81 82  2  0  0  0  0
 82 83  1  0  0  0  0
 83 84  1  0  0  0  0
 84 85  2  0  0  0  0
 85 86  1  0  0  0  0
 86 87  2  0  0  0  0
 87 88  1  0  0  0  0
 88 89  1  0  0  0  0
 87 90  1  0  0  0  0
 90 91  2  0  0  0  0
 83 92  1  0  0  0  0
 92 93  2  0  0  0  0
 93 94  1  0  0  0  0
 94 95  2  0  0  0  0
 95 96  1  0  0  0  0
 96 97  1  0  0  0  0
 95 98  1  0  0  0  0
 98 99  2  0  0  0  0
 82100  1  0  0  0  0
100101  1  0  0  0  0
 81102  1  0  0  0  0
102103  2  0  0  0  0
103104  1  0  0  0  0
104105  2  0  0  0  0
105106  1  0  0  0  0
106107  2  0  0  0  0
107108  1  0  0  0  0
108109  2  0  0  0  0
109110  1  0  0  0  0
110111  1  0  0  0  0
111112  1  0  0  0  0
109113  1  0  0  0  0
105114  1  0  0  0  0
114115  2  0  0  0  0
115116  1  0  0  0  0
116117  1  0  0  0  0
117118  2  0  0  0  0
118119  1  0  0  0  0
119120  2  0  0  0  0
120121  1  0  0  0  0
121122  1  0  0  0  0
122123  1  0  0  0  0
120124  1  0  0  0  0
116125  2  0  0  0  0
125126  1  0  0  0  0
115127  1  0  0  0  0
127128  2  0  0  0  0
128129  1  0  0  0  0
128130  1  0  0  0  0
130131  2  0  0  0  0
131132  1  0  0  0  0
132133  2  0  0  0  0
132134  1  0  0  0  0
134135  2  0  0  0  0
135136  1  0  0  0  0
136137  2  0  0  0  0
137138  1  0  0  0  0
138139  2  0  0  0  0
139140  1  0  0  0  0
140141  2  0  0  0  0
141142  1  0  0  0  0
142143  3  0  0  0  0
141144  1  0  0  0  0
144145  3  0  0  0  0
137146  1  0  0  0  0
146147  1  0  0  0  0
147148  1  0  0  0  0
148149  2  0  0  0  0
149150  1  0  0  0  0
150151  1  0  0  0  0
150152  1  0  0  0  0
 16  2  1  0  0  0  0
 59 22  1  0  0  0  0
101 60  1  0  0  0  0
126102  1  0  0  0  0
140131  1  0  0  0  0
152146  1  0  0  0  0
 15  5  1  0  0  0  0
 31 25  1  0  0  0  0
 38 32  1  0  0  0  0
 58 39  2  0  0  0  0
 70 63  1  0  0  0  0
 78 71  1  0  0  0  0
100 79  2  0  0  0  0
125104  1  0  0  0  0
139134  1  0  0  0  0
151147  1  0  0  0  0
 13  7  1  0  0  0  0
 50 44  1  0  0  0  0
 57 51  1  0  0  0  0
 91 84  1  0  0  0  0
 99 92  1  0  0  0  0
113106  1  0  0  0  0
129114  1  0  0  0  0
152136  1  0  0  0  0
124117  1  0  0  0  0
  1153  1  0  0  0  0
  6154  1  0  0  0  0
  8155  1  0  0  0  0
  9156  1  0  0  0  0
 12157  1  0  0  0  0
 14158  1  0  0  0  0
 26159  1  0  0  0  0
 27160  1  0  0  0  0
 29161  1  0  0  0  0
 29162  1  0  0  0  0
 29163  1  0  0  0  0
 30164  1  0  0  0  0
 31165  1  0  0  0  0
 33166  1  0  0  0  0
 34167  1  0  0  0  0
 36168  1  0  0  0  0
 36169  1  0  0  0  0
 36170  1  0  0  0  0
 37171  1  0  0  0  0
 38172  1  0  0  0  0
 45173  1  0  0  0  0
 46174  1  0  0  0  0
 48175  1  0  0  0  0
 48176  1  0  0  0  0
 48177  1  0  0  0  0
 49178  1  0  0  0  0
 50179  1  0  0  0  0
 52180  1  0  0  0  0
 53181  1  0  0  0  0
 55182  1  0  0  0  0
 55183  1  0  0  0  0
 55184  1  0  0  0  0
 56185  1  0  0  0  0
 57186  1  0  0  0  0
 64187  1  0  0  0  0
 65188  1  0  0  0  0
 68189  1  0  0  0  0
 68190  1  0  0  0  0
 68191  1  0  0  0  0
 69192  1  0  0  0  0
 70193  1  0  0  0  0
 72194  1  0  0  0  0
 73195  1  0  0  0  0
 76196  1  0  0  0  0
 76197  1  0  0  0  0
 76198  1  0  0  0  0
 77199  1  0  0  0  0
 78200  1  0  0  0  0
 85201  1  0  0  0  0
 86202  1  0  0  0  0
 89203  1  0  0  0  0
 89204  1  0  0  0  0
 89205  1  0  0  0  0
 90206  1  0  0  0  0
 91207  1  0  0  0  0
 93208  1  0  0  0  0
 94209  1  0  0  0  0
 97210  1  0  0  0  0
 97211  1  0  0  0  0
 97212  1  0  0  0  0
 98213  1  0  0  0  0
 99214  1  0  0  0  0
103215  1  0  0  0  0
107216  1  0  0  0  0
108217  1  0  0  0  0
111218  1  0  0  0  0
111219  1  0  0  0  0
112220  1  0  0  0  0
112221  1  0  0  0  0
112222  1  0  0  0  0
118223  1  0  0  0  0
119224  1  0  0  0  0
122225  1  0  0  0  0
122226  1  0  0  0  0
123227  1  0  0  0  0
123228  1  0  0  0  0
123229  1  0  0  0  0
127230  1  0  0  0  0
130231  1  0  0  0  0
135232  1  0  0  0  0
138233  1  0  0  0  0
146234  1  0  0  0  0
147235  1  0  0  0  0
148236  1  0  0  0  0
149237  1  0  0  0  0
150238  1  0  0  0  0
151239  1  0  0  0  0
151240  1  0  0  0  0
152241  1  0  0  0  0
M  END
