250

C         -2.99910       -7.99610        2.77690
C         -3.65860       -8.26370        3.96310
C         -3.46390       -7.49000        5.19700
O         -2.77070       -6.50020        5.35220
C         -4.19410       -8.22980        6.24810
C         -4.31440       -7.93990        7.57390
C         -5.08130       -8.79480        8.39980
C         -5.24630       -8.53810        9.77520
C         -5.98580       -9.37440       10.56570
C         -6.58400      -10.49970        9.98550
F         -7.30980      -11.31230       10.77830
C         -6.45640      -10.79440        8.65630
C         -5.69920       -9.94370        7.82870
C         -5.55130      -10.22040        6.44800
C         -4.81470       -9.37200        5.66960
C         -4.50940       -9.38220        4.24150
C         -5.08230      -10.20890        3.30290
C         -6.01780      -11.21240        3.60750
N         -6.80220      -12.03060        3.79930
C         -4.87250      -10.08470        1.91650
N         -4.77250      -10.01450        0.77400
C         -2.52080       -6.75220        2.37390
C         -2.90330       -5.44400        2.75160
N         -3.99710       -5.09160        3.48990
C         -4.02790       -3.82790        4.11430
C         -2.92720       -3.36620        4.83150
C         -2.94180       -2.09690        5.37370
C         -4.04600       -1.26410        5.22640
C         -4.02040        0.13470        5.76030
C         -5.16070       -1.75860        4.56010
C         -5.15920       -3.02590        4.00990
C         -5.14580       -5.89390        3.56510
C         -5.83020       -6.00940        4.77290
C         -6.94160       -6.82610        4.86690
C         -7.40640       -7.53540        3.76700
C         -8.57710       -8.45970        3.87730
C         -6.74370       -7.37620        2.55190
C         -5.62950       -6.57030        2.44600
C         -2.07250       -4.49280        2.12390
S         -2.03810       -2.76540        2.13410
C         -0.80000       -2.75580        0.89270
C         -0.44380       -4.03980        0.49060
N          0.45300       -4.31910       -0.53280
C          1.38530       -5.34440       -0.33900
C          1.94940       -5.53160        0.92140
C          2.84450       -6.55990        1.13820
C          3.21360       -7.41890        0.10970
C          4.16270       -8.55230        0.35690
C          2.65920       -7.21400       -1.14860
C          1.75350       -6.19830       -1.37570
C          0.27170       -3.71340       -1.78580
C          1.36770       -3.40920       -2.58840
C          1.18560       -2.78420       -3.80500
C         -0.08320       -2.44420       -4.25770
C         -0.27280       -1.77870       -5.58650
C         -1.17230       -2.76690       -3.45810
C         -1.00500       -3.39510       -2.23950
C         -1.16300       -5.01530        1.21200
S         -1.25270       -6.73500        1.13290
C         -0.18410       -1.53130        0.52530
C         -0.69450       -0.24140        0.62730
N         -1.99770        0.10250        0.96420
C         -3.08740       -0.61210        0.45320
C         -3.05160       -1.13090       -0.83990
C         -4.08600       -1.91610       -1.29960
C         -5.18120       -2.19650       -0.48630
S         -6.41800       -3.26850       -1.15020
C         -7.35240       -3.79270        0.31600
C         -5.24910       -1.63070        0.77970
C         -4.21050       -0.85180        1.24510
C         -2.20400        1.16110        1.85520
C         -3.31600        1.99000        1.72370
C         -3.54500        3.01370        2.62070
C         -2.65400        3.24020        3.66210
S         -2.85270        4.52280        4.86080
C         -4.61410        4.95090        4.72690
C         -1.52600        2.43200        3.78240
C         -1.30610        1.40060        2.89660
C          0.30370        0.71620        0.33820
S          0.30720        2.44020        0.25540
C          2.01610        2.43050       -0.19300
C          2.56690        1.15220       -0.16830
N          3.90280        0.82900       -0.25390
C          4.21460       -0.47720       -0.71510
C          4.03840       -0.80200       -2.05610
C          4.38320       -2.05800       -2.50470
C          4.86720       -3.02190       -1.62050
S          5.21970       -4.60740       -2.30660
C          5.96290       -5.52380       -0.93080
C          5.02280       -2.70300       -0.27790
C          4.71080       -1.43270        0.16480
C          4.91990        1.55680        0.36860
C          6.24870        1.23610        0.09080
C          7.28880        1.90960        0.69660
C          7.02650        2.94210        1.58500
S          8.26830        3.91000        2.38130
C          9.82390        3.25290        1.71650
C          5.70340        3.25550        1.88350
C          4.66510        2.56770        1.29610
C          1.55450        0.18460        0.06500
S          1.51610       -1.54420        0.06660
C          2.54520        3.66580       -0.66110
C          3.44420        3.91120       -1.68410
N          4.14700        2.93070       -2.41850
C          5.54520        2.97160       -2.39150
C          6.25100        3.91680       -1.65230
C          7.63300        3.91150       -1.64360
C          8.35600        2.96420       -2.35190
C          9.85600        2.95870       -2.35500
C          7.64660        1.99630       -3.05550
C          6.26900        1.99330       -3.07660
C          3.49150        2.60870       -3.64150
C          2.24750        1.99010       -3.61060
C          1.58120        1.70300       -4.78840
C          2.13040        2.02920       -6.01980
C          1.41720        1.72280       -7.30110
C          3.36990        2.66030       -6.04090
C          4.04160        2.95430       -4.87280
C          3.45670        5.27660       -2.03350
S          4.22680        6.14800       -3.29490
C          3.36400        7.61730       -2.84520
C          2.58710        7.43180       -1.67110
N          1.83120        8.38470       -1.05550
C          0.65310        7.99550       -0.38660
C         -0.24870        7.13570       -1.00940
C         -1.37240        6.70850       -0.33290
C         -1.62940        7.13130        0.96690
C         -2.83370        6.62570        1.69720
C         -0.74450        8.02020        1.56300
C          0.38750        8.45180        0.89950
C          2.27310        9.71360       -0.92120
C          3.60700        9.98860       -0.62730
C          4.01840       11.29360       -0.46240
C          3.12170       12.35140       -0.58770
C          3.60150       13.75900       -0.44650
C          1.79340       12.06410       -0.87470
C          1.36540       10.76060       -1.03770
C          2.60930        6.08000       -1.27840
S          1.78610        5.13930       -0.07690
C          3.43410        8.74800       -3.65860
C          3.65830        8.71470       -5.02780
C          3.30630        7.57270       -5.87980
O          2.80160        6.51560       -5.55700
C          3.55590        8.02240       -7.27090
C          3.48510        7.27920       -8.43290
Cl         2.95030        5.65940       -8.41940
C          3.88580        7.88330       -9.63190
Cl         3.78710        7.01580      -11.10320
C          4.40570        9.17470       -9.61630
Cl         4.97340        9.86190      -11.07820
C          4.48960        9.91850       -8.42700
Cl         5.30570       11.42690       -8.48160
C          3.98920        9.36200       -7.25610
C          3.92830        9.84530       -5.87520
C          4.03570       11.15590       -5.46230
C          4.28030       11.56350       -4.13850
N          4.57840       12.00450       -3.11890
C          3.80830       12.28890       -6.26780
N          3.50600       13.26120       -6.80010
H         -2.79220       -8.82090        2.10550
H         -3.83560       -7.06690        7.99240
H         -4.77410       -7.66480       10.20000
H         -6.11950       -9.19260       11.62030
H         -6.93190      -11.67020        8.24300
H         -6.02120      -11.10350        6.04540
H         -2.08060       -4.02060        4.96810
H         -2.08030       -1.74240        5.92020
H         -3.55360        0.16610        6.74240
H         -3.43690        0.77410        5.09570
H         -5.02510        0.54380        5.83460
H         -6.04110       -1.13960        4.46020
H         -6.03130       -3.39760        3.49120
H         -5.47630       -5.46550        5.63590
H         -7.44660       -6.92260        5.81710
H         -8.23560       -9.49510        3.90720
H         -9.23360       -8.35570        3.01590
H         -9.14480       -8.26420        4.78330
H         -7.10170       -7.89910        1.67730
H         -5.12710       -6.46950        1.49520
H          1.68320       -4.86410        1.72830
H          3.26750       -6.69530        2.12400
H          3.60870       -9.43520        0.67720
H          4.70610       -8.80970       -0.54940
H          4.87600       -8.30360        1.14020
H          2.93260       -7.86850       -1.96320
H          1.31960       -6.06920       -2.35530
H          2.35810       -3.66210       -2.24750
H          2.04520       -2.54940       -4.41460
H         -1.13800       -1.11900       -5.57100
H          0.60940       -1.20480       -5.86050
H         -0.44040       -2.53000       -6.35910
H         -2.16950       -2.53110       -3.80130
H         -1.86530       -3.64720       -1.63700
H         -2.19960       -0.93260       -1.47290
H         -4.05820       -2.32990       -2.29550
H         -8.00120       -4.59520       -0.02090
H         -7.95390       -2.97210        0.69680
H         -6.66780       -4.16680        1.07190
H         -6.09740       -1.80220        1.42130
H         -4.25240       -0.45470        2.24780
H         -4.00680        1.82950        0.90960
H         -4.41910        3.63230        2.49300
H         -4.82780        5.58450        5.58210
H         -4.80530        5.49860        3.80880
H         -5.21170        4.04590        4.77780
H         -0.83410        2.61410        4.59030
H         -0.44570        0.76000        3.01880
H          3.64520       -0.06370       -2.73790
H          4.28380       -2.31280       -3.54820
H          6.84140       -4.99730       -0.56930
H          6.25280       -6.48440       -1.34450
H          5.22750       -5.67040       -0.14510
H          5.38020       -3.43160        0.43100
H          4.84670       -1.17620        1.20520
H          6.47610        0.45390       -0.61580
H          8.29810        1.62170        0.45440
H          9.83080        3.34740        0.63520
H         10.60910        3.86510        2.14910
H          9.95210        2.21880        2.02340
H          5.49640        4.04280        2.59230
H          3.65410        2.81150        1.58020
H          5.72850        4.65860       -1.06890
H          8.15170        4.67160       -1.07630
H         10.23840        2.09360       -1.81090
H         10.23510        2.89820       -3.37390
H         10.25040        3.86150       -1.89400
H          8.18550        1.23240       -3.59830
H          5.74110        1.23040       -3.62920
H          1.79220        1.74160       -2.66440
H          0.61440        1.22240       -4.73970
H          1.39030        2.60460       -7.93860
H          0.39780        1.39490       -7.11300
H          1.93860        0.93590       -7.84680
H          3.80550        2.94340       -6.98780
H          4.99110        3.46750       -4.90820
H         -0.05760        6.80270       -2.01930
H         -2.05870        6.02970       -0.81750
H         -3.74650        6.97610        1.21480
H         -2.82920        6.96610        2.72950
H         -2.84090        5.53660        1.68380
H         -0.93180        8.36710        2.56860
H          1.07960        9.12800        1.37890
H          4.30880        9.17350       -0.52710
H          5.05290       11.50120       -0.23770
H          4.21650       13.87020        0.44450
H          2.76970       14.45650       -0.39470
H          4.21530       14.01130       -1.31040
H          1.08270       12.87050       -0.98090
H          0.33110       10.54470       -1.26280
H          3.25770        9.71090       -3.19270
