204

C         -6.00900       -4.39160       -2.48480
C         -7.29100       -3.87580       -2.45600
C         -7.63760       -2.60510       -1.80340
O         -6.88140       -1.81950       -1.26150
C         -9.11410       -2.53890       -1.82430
C         -9.93460       -1.56740       -1.33510
C        -11.33430       -1.70930       -1.48140
C        -12.22850       -0.73220       -1.00120
C        -13.58070       -0.88160       -1.14400
C        -14.07050       -2.02810       -1.78160
F        -15.40500       -2.15890       -1.91500
C        -13.24670       -3.00560       -2.26690
C        -11.85250       -2.86790       -2.12750
C        -10.97350       -3.86270       -2.62000
C         -9.62450       -3.69740       -2.47360
C         -8.49360       -4.52260       -2.88960
C         -8.56070       -5.63150       -3.70090
C         -7.43030       -6.30710       -4.19820
N         -6.54910       -6.87490       -4.66890
C         -9.75920       -6.16910       -4.20060
N        -10.70590       -6.64170       -4.64990
C         -4.83000       -3.64960       -2.43030
C         -4.55350       -2.30860       -2.78540
N         -5.38690       -1.45080       -3.44060
C         -6.43170       -1.89180       -4.26560
C         -6.26570       -2.98130       -5.12010
C         -7.31690       -3.42070       -5.89640
C         -8.56140       -2.79530       -5.84800
C         -9.70340       -3.31830       -6.66050
C         -8.70650       -1.68630       -5.02590
C         -7.65900       -1.23240       -4.24580
C         -5.20990       -0.05740       -3.29280
C         -5.29170        0.77160       -4.40460
C         -5.11960        2.13520       -4.26390
C         -4.85690        2.69810       -3.02220
C         -4.65330        4.17390       -2.86690
C         -4.79880        1.86020       -1.91280
C         -4.97790        0.49810       -2.03770
C         -3.21860       -1.98050       -2.45290
S         -2.25780       -0.54570       -2.62030
C         -0.87980       -1.35770       -1.90100
C         -1.14720       -2.68510       -1.60880
N         -0.19910       -3.55270       -1.08760
C          1.08170       -3.58830       -1.64820
C          2.19310       -3.86380       -0.85620
C          3.44840       -3.95360       -1.42450
C          3.63630       -3.76360       -2.78840
C          4.98860       -3.92320       -3.41300
C          2.52770       -3.44900       -3.56580
C          1.26750       -3.36130       -3.01110
C         -0.58050       -4.41750       -0.05190
C         -1.48350       -3.98370        0.91390
C         -1.90430       -4.84480        1.90860
C         -1.42900       -6.14630        1.97830
C         -1.88080       -7.09200        3.04800
C         -0.50990       -6.56390        1.02130
C         -0.09280       -5.72050        0.01360
C         -2.47710       -3.03110       -1.92880
S         -3.38640       -4.48940       -1.83630
C          0.27260       -0.67570       -1.37580
C          1.27850        0.08720       -1.93410
N          1.47420        0.30230       -3.28500
C          0.37460        0.52760       -4.13470
C         -0.51340        1.57020       -3.87780
C         -1.56140        1.81300       -4.73960
C         -1.74480        1.01330       -5.86510
S         -3.08910        1.42710       -6.92920
C         -3.29670       -0.05830       -7.95480
C         -0.86240       -0.02880       -6.12120
C          0.19160       -0.26530       -5.26200
C          2.76310        0.29260       -3.82340
C          3.04390        1.02090       -4.98190
C          4.31200        1.02000       -5.51570
C          5.34070        0.30910       -4.90040
S          6.92630        0.38340       -5.67510
C          8.01580       -0.49830       -4.52090
C          5.06860       -0.41360       -3.74850
C          3.79100       -0.43130       -3.22410
C          2.16460        0.56990       -0.93060
S          3.50910        1.66130       -0.92820
C          3.66020        1.50820        0.81270
C          2.69000        0.68930        1.35950
N          2.47190        0.47000        2.71240
C          2.04500       -0.79810        3.12570
C          2.54840       -1.94760        2.51350
C          2.12790       -3.19260        2.92320
C          1.19470       -3.32480        3.94860
S          0.76220       -4.97210        4.40350
C         -0.56460       -4.75020        5.62160
C          0.68990       -2.18420        4.55880
C          1.11170       -0.93470        4.14940
C          2.65210        1.51130        3.63130
C          3.20430        1.26660        4.88520
C          3.49360        2.30850        5.74530
C          3.25100        3.61990        5.36000
S          3.68670        5.03780        6.31650
C          4.59350        4.34470        7.72430
C          2.63490        3.86340        4.13320
C          2.32850        2.82500        3.28600
C          1.85280        0.15420        0.34930
S          0.44230       -0.83020        0.37810
C          4.61860        2.29670        1.56390
C          4.72830        3.67430        1.33260
C          5.42370        4.43660        2.24040
C          5.52810        5.91710        2.32940
O          5.11120        6.73940        1.55040
C          6.23790        6.15630        3.61610
C          6.58070        4.91800        4.19890
C          6.06910        3.85360        3.34960
C          6.06460        2.48060        3.50710
C          5.32780        1.71480        2.61820
C          7.25330        4.88880        5.40640
C          7.51530        6.08410        6.05820
C          7.13060        7.31330        5.51230
C          6.52370        7.34240        4.24160
C          7.34150        8.57300        6.17900
C          7.21710        8.85610        7.49930
C          6.61890        7.98960        8.54420
O          6.47450        6.78930        8.53980
C          6.17610        8.92240        9.60540
C          5.40240        8.64610       10.72000
Cl         4.90990        7.05600       11.09100
C          5.01470        9.71380       11.54080
Cl         4.08290        9.41770       12.94320
C          5.35470       11.02220       11.19470
Cl         4.79540       12.31460       12.16380
C          6.13200       11.29860       10.05890
Cl         6.37060       12.93520        9.60730
C          6.59550       10.23350        9.29500
C          7.42190       10.17370        8.09790
C          8.39010       11.04900        7.69290
C          9.18620       10.83310        6.54290
N          9.87160       10.71380        5.63080
C          8.86550       12.16870        8.41020
N          9.38360       13.03840        8.94970
H         -5.88700       -5.46820       -2.50000
H         -9.52520       -0.69580       -0.84600
H        -11.82680        0.14280       -0.51230
H        -14.27800       -0.14400       -0.77950
H        -13.65930       -3.87570       -2.75340
H        -11.39480       -4.73420       -3.09550
H         -5.31290       -3.48740       -5.16810
H         -7.17440       -4.27110       -6.54700
H         -9.99300       -4.31020       -6.31300
H        -10.56720       -2.66300       -6.58510
H         -9.41870       -3.40800       -7.70770
H         -9.65720       -1.17510       -4.98030
H         -7.78870       -0.37190       -3.60690
H         -5.48660        0.34700       -5.37810
H         -5.17720        2.76490       -5.13930
H         -5.46110        4.60760       -2.27800
H         -4.62930        4.66790       -3.83490
H         -3.71910        4.37680       -2.34540
H         -4.61810        2.28460       -0.93580
H         -4.97150       -0.14360       -1.17080
H          2.05760       -4.01230        0.20380
H          4.29880       -4.17820       -0.79580
H          5.77710       -3.69040       -2.70030
H          5.08920       -3.28010       -4.28450
H          5.12650       -4.95530       -3.73830
H          2.65470       -3.28360       -4.62630
H          0.41550       -3.13380       -3.63520
H         -1.85180       -2.96830        0.88230
H         -2.61630       -4.49330        2.64220
H         -1.03280       -7.39790        3.65980
H         -2.62800       -6.63000        3.68850
H         -2.31110       -7.98840        2.60360
H         -0.12720       -7.57330        1.06090
H          0.60330       -6.06810       -0.73530
H         -0.37150        2.18710       -3.00330
H         -2.24990        2.62090       -4.55030
H         -3.36580       -0.93420       -7.31640
H         -2.47910       -0.14910       -8.66400
H         -4.22960        0.08310       -8.49180
H         -0.98040       -0.65700       -6.98940
H          0.88820       -1.06550       -5.46390
H          2.26170        1.59320       -5.45720
H          4.52550        1.58280       -6.41130
H          7.73660       -1.54680       -4.46710
H          7.97590       -0.02660       -3.54350
H          9.01500       -0.40590       -4.93520
H          5.83860       -0.97610       -3.24720
H          3.59200       -1.02850       -2.34790
H          3.27680       -1.85740        1.72060
H          2.52810       -4.08600        2.46820
H         -0.89510       -5.75050        5.88260
H         -0.18230       -4.24880        6.50600
H         -1.38250       -4.19500        5.17270
H         -0.03500       -2.25130        5.35360
H          0.71290       -0.05100        4.62500
H          3.42830        0.25190        5.18040
H          3.92600        2.08270        6.70640
H          5.38320        3.69440        7.36240
H          3.91200        3.81600        8.38450
H          5.03370        5.19390        8.23700
H          2.40950        4.88090        3.85290
H          1.85270        3.02630        2.33820
H          4.21460        4.13440        0.50180
H          6.58790        2.00960        4.32530
H          5.27900        0.64420        2.75140
H          7.56510        3.95320        5.84600
H          8.04700        6.06800        6.99500
H          6.24560        8.28090        3.78580
H          7.52940        9.40680        5.51140
