
  xtb     02112217373D
 energy: -379.411112944498 gnorm: 0.000981476983 xtb: 6.4.1 (unknown)
228250  0     0  0            999 V2000
    0.7378   -8.2728    6.6011 C   0  0  0  0  0  0  0  0  0  0  0  0
   -0.1246   -9.0546    7.3476 C   0  0  0  0  0  0  0  0  0  0  0  0
   -1.4745   -9.4285    6.9042 C   0  0  0  0  0  0  0  0  0  0  0  0
   -2.0364   -9.0929    5.8769 O   0  0  0  0  0  0  0  0  0  0  0  0
   -1.9655  -10.4004    7.9044 C   0  0  0  0  0  0  0  0  0  0  0  0
   -3.1602  -11.0536    7.9507 C   0  0  0  0  0  0  0  0  0  0  0  0
   -3.4235  -11.9339    9.0263 C   0  0  0  0  0  0  0  0  0  0  0  0
   -4.6459  -12.6264    9.1306 C   0  0  0  0  0  0  0  0  0  0  0  0
   -4.8886  -13.4774   10.1737 C   0  0  0  0  0  0  0  0  0  0  0  0
   -3.8981  -13.6529   11.1477 C   0  0  0  0  0  0  0  0  0  0  0  0
   -4.1542  -14.4940   12.1692 F   0  0  0  0  0  0  0  0  0  0  0  0
   -2.6953  -13.0049   11.0948 C   0  0  0  0  0  0  0  0  0  0  0  0
   -2.4295  -12.1256   10.0278 C   0  0  0  0  0  0  0  0  0  0  0  0
   -1.1945  -11.4382    9.9470 C   0  0  0  0  0  0  0  0  0  0  0  0
   -0.9694  -10.5845    8.9035 C   0  0  0  0  0  0  0  0  0  0  0  0
    0.1712   -9.7341    8.5736 C   0  0  0  0  0  0  0  0  0  0  0  0
    1.2567   -9.4945    9.3843 C   0  0  0  0  0  0  0  0  0  0  0  0
    1.4467  -10.0939   10.6412 C   0  0  0  0  0  0  0  0  0  0  0  0
    1.6350  -10.5390   11.6843 N   0  0  0  0  0  0  0  0  0  0  0  0
    2.2652   -8.5570    9.0918 C   0  0  0  0  0  0  0  0  0  0  0  0
    3.1002   -7.7827    8.9358 N   0  0  0  0  0  0  0  0  0  0  0  0
    0.3689   -7.3052    5.6697 C   0  0  0  0  0  0  0  0  0  0  0  0
   -0.8207   -6.5542    5.5219 C   0  0  0  0  0  0  0  0  0  0  0  0
   -1.8598   -6.4926    6.4014 N   0  0  0  0  0  0  0  0  0  0  0  0
   -3.1305   -6.0904    5.9348 C   0  0  0  0  0  0  0  0  0  0  0  0
   -3.8533   -5.1274    6.6301 C   0  0  0  0  0  0  0  0  0  0  0  0
   -5.0921   -4.7305    6.1662 C   0  0  0  0  0  0  0  0  0  0  0  0
   -5.6345   -5.2799    5.0105 C   0  0  0  0  0  0  0  0  0  0  0  0
   -6.9619   -4.8211    4.4917 C   0  0  0  0  0  0  0  0  0  0  0  0
   -4.9086   -6.2547    4.3348 C   0  0  0  0  0  0  0  0  0  0  0  0
   -3.6696   -6.6620    4.7868 C   0  0  0  0  0  0  0  0  0  0  0  0
   -1.7183   -6.7603    7.7702 C   0  0  0  0  0  0  0  0  0  0  0  0
   -0.5876   -6.3487    8.4753 C   0  0  0  0  0  0  0  0  0  0  0  0
   -0.4545   -6.6566    9.8124 C   0  0  0  0  0  0  0  0  0  0  0  0
   -1.4354   -7.3797   10.4885 C   0  0  0  0  0  0  0  0  0  0  0  0
   -1.2456   -7.7517   11.9249 C   0  0  0  0  0  0  0  0  0  0  0  0
   -2.5777   -7.7470    9.7904 C   0  0  0  0  0  0  0  0  0  0  0  0
   -2.7258   -7.4413    8.4501 C   0  0  0  0  0  0  0  0  0  0  0  0
   -0.7436   -5.7322    4.3736 C   0  0  0  0  0  0  0  0  0  0  0  0
   -1.8027   -4.5578    3.6645 S   0  0  0  0  0  0  0  0  0  0  0  0
   -0.5901   -4.1535    2.4633 C   0  0  0  0  0  0  0  0  0  0  0  0
    0.6007   -4.8538    2.6447 C   0  0  0  0  0  0  0  0  0  0  0  0
    1.7880   -4.6865    1.9502 N   0  0  0  0  0  0  0  0  0  0  0  0
    2.2489   -3.4267    1.5545 C   0  0  0  0  0  0  0  0  0  0  0  0
    3.0288   -3.2915    0.4065 C   0  0  0  0  0  0  0  0  0  0  0  0
    3.4114   -2.0415   -0.0350 C   0  0  0  0  0  0  0  0  0  0  0  0
    3.0102   -0.8898    0.6293 C   0  0  0  0  0  0  0  0  0  0  0  0
    3.3379    0.4680    0.0903 C   0  0  0  0  0  0  0  0  0  0  0  0
    2.2682   -1.0325    1.7956 C   0  0  0  0  0  0  0  0  0  0  0  0
    1.9032   -2.2779    2.2640 C   0  0  0  0  0  0  0  0  0  0  0  0
    2.5353   -5.8415    1.6522 C   0  0  0  0  0  0  0  0  0  0  0  0
    3.9193   -5.8546    1.8031 C   0  0  0  0  0  0  0  0  0  0  0  0
    4.6363   -6.9920    1.4950 C   0  0  0  0  0  0  0  0  0  0  0  0
    4.0008   -8.1433    1.0411 C   0  0  0  0  0  0  0  0  0  0  0  0
    4.7927   -9.3766    0.7341 C   0  0  0  0  0  0  0  0  0  0  0  0
    2.6195   -8.1234    0.9022 C   0  0  0  0  0  0  0  0  0  0  0  0
    1.8904   -6.9879    1.1979 C   0  0  0  0  0  0  0  0  0  0  0  0
    0.4782   -5.7688    3.7159 C   0  0  0  0  0  0  0  0  0  0  0  0
    1.5880   -6.8534    4.4660 S   0  0  0  0  0  0  0  0  0  0  0  0
   -0.8564   -3.1539    1.4857 C   0  0  0  0  0  0  0  0  0  0  0  0
   -0.2310   -3.0075    0.2819 C   0  0  0  0  0  0  0  0  0  0  0  0
   -0.5229   -1.7928   -0.3757 C   0  0  0  0  0  0  0  0  0  0  0  0
    0.0855   -1.2803   -1.5400 C   0  0  0  0  0  0  0  0  0  0  0  0
    1.0502   -2.0327   -2.3118 C   0  0  0  0  0  0  0  0  0  0  0  0
    2.1456   -1.5694   -2.9856 C   0  0  0  0  0  0  0  0  0  0  0  0
    2.8682   -2.5971   -3.6272 C   0  0  0  0  0  0  0  0  0  0  0  0
    4.3247   -2.2920   -4.4937 Cl  0  0  0  0  0  0  0  0  0  0  0  0
    2.3337   -3.8437   -3.4859 C   0  0  0  0  0  0  0  0  0  0  0  0
    2.8591   -5.1549   -3.9567 C   0  0  0  0  0  0  0  0  0  0  0  0
    3.5160   -5.9261   -2.8083 C   0  0  0  0  0  0  0  0  0  0  0  0
    0.8986   -3.7558   -2.5258 S   0  0  0  0  0  0  0  0  0  0  0  0
   -0.2765    0.0151   -1.8935 C   0  0  0  0  0  0  0  0  0  0  0  0
   -1.2950    0.7508   -1.2383 C   0  0  0  0  0  0  0  0  0  0  0  0
   -1.9300    0.2206   -0.0932 C   0  0  0  0  0  0  0  0  0  0  0  0
   -2.9916    0.9195    0.5995 C   0  0  0  0  0  0  0  0  0  0  0  0
   -3.2390    0.9672    1.9441 C   0  0  0  0  0  0  0  0  0  0  0  0
   -4.3925    1.7022    2.2775 C   0  0  0  0  0  0  0  0  0  0  0  0
   -5.0465    2.2069    1.1959 C   0  0  0  0  0  0  0  0  0  0  0  0
   -6.2555    3.0763    1.1647 C   0  0  0  0  0  0  0  0  0  0  0  0
   -5.8616    4.5478    1.0165 C   0  0  0  0  0  0  0  0  0  0  0  0
   -4.2267    1.7909   -0.2715 S   0  0  0  0  0  0  0  0  0  0  0  0
   -1.4683   -1.0181    0.3416 C   0  0  0  0  0  0  0  0  0  0  0  0
   -1.9594   -1.8302    1.8059 S   0  0  0  0  0  0  0  0  0  0  0  0
   -1.4945    2.0097   -1.8441 C   0  0  0  0  0  0  0  0  0  0  0  0
   -0.6764    2.2587   -2.9168 C   0  0  0  0  0  0  0  0  0  0  0  0
    0.4076    0.9174   -3.2122 S   0  0  0  0  0  0  0  0  0  0  0  0
   -0.6317    3.4811   -3.6394 C   0  0  0  0  0  0  0  0  0  0  0  0
    0.2396    3.9485   -4.6221 C   0  0  0  0  0  0  0  0  0  0  0  0
    1.2437    3.2424   -5.2584 N   0  0  0  0  0  0  0  0  0  0  0  0
    1.0507    1.9597   -5.7766 C   0  0  0  0  0  0  0  0  0  0  0  0
    2.1408    1.0999   -5.9191 C   0  0  0  0  0  0  0  0  0  0  0  0
    1.9526   -0.1900   -6.3648 C   0  0  0  0  0  0  0  0  0  0  0  0
    0.6836   -0.6675   -6.6771 C   0  0  0  0  0  0  0  0  0  0  0  0
    0.4947   -2.0955   -7.0873 C   0  0  0  0  0  0  0  0  0  0  0  0
   -0.3905    0.2047   -6.5715 C   0  0  0  0  0  0  0  0  0  0  0  0
   -0.2160    1.5045   -6.1358 C   0  0  0  0  0  0  0  0  0  0  0  0
    2.4133    3.9624   -5.5798 C   0  0  0  0  0  0  0  0  0  0  0  0
    3.0304    4.7368   -4.6015 C   0  0  0  0  0  0  0  0  0  0  0  0
    4.1299    5.5073   -4.9203 C   0  0  0  0  0  0  0  0  0  0  0  0
    4.6433    5.5195   -6.2110 C   0  0  0  0  0  0  0  0  0  0  0  0
    5.7894    6.4147   -6.5644 C   0  0  0  0  0  0  0  0  0  0  0  0
    4.0414    4.7164   -7.1715 C   0  0  0  0  0  0  0  0  0  0  0  0
    2.9378    3.9451   -6.8674 C   0  0  0  0  0  0  0  0  0  0  0  0
   -0.0031    5.3174   -4.9091 C   0  0  0  0  0  0  0  0  0  0  0  0
    0.8209    6.4849   -5.8792 S   0  0  0  0  0  0  0  0  0  0  0  0
   -0.3520    7.7193   -5.4100 C   0  0  0  0  0  0  0  0  0  0  0  0
   -1.3017    7.2229   -4.4779 C   0  0  0  0  0  0  0  0  0  0  0  0
   -2.2976    7.9474   -3.8786 N   0  0  0  0  0  0  0  0  0  0  0  0
   -2.1399    9.2940   -3.5014 C   0  0  0  0  0  0  0  0  0  0  0  0
   -0.9191    9.7578   -3.0167 C   0  0  0  0  0  0  0  0  0  0  0  0
   -0.7702   11.0884   -2.6810 C   0  0  0  0  0  0  0  0  0  0  0  0
   -1.8301   11.9811   -2.7950 C   0  0  0  0  0  0  0  0  0  0  0  0
   -1.6648   13.4317   -2.4634 C   0  0  0  0  0  0  0  0  0  0  0  0
   -3.0557   11.4978   -3.2386 C   0  0  0  0  0  0  0  0  0  0  0  0
   -3.2153   10.1738   -3.5952 C   0  0  0  0  0  0  0  0  0  0  0  0
   -3.4900    7.2822   -3.5331 C   0  0  0  0  0  0  0  0  0  0  0  0
   -4.0768    6.3963   -4.4338 C   0  0  0  0  0  0  0  0  0  0  0  0
   -5.2350    5.7292   -4.0934 C   0  0  0  0  0  0  0  0  0  0  0  0
   -5.8452    5.9342   -2.8608 C   0  0  0  0  0  0  0  0  0  0  0  0
   -7.0866    5.1805   -2.4974 C   0  0  0  0  0  0  0  0  0  0  0  0
   -5.2646    6.8375   -1.9787 C   0  0  0  0  0  0  0  0  0  0  0  0
   -4.0985    7.5033   -2.3022 C   0  0  0  0  0  0  0  0  0  0  0  0
   -1.0785    5.8612   -4.2202 C   0  0  0  0  0  0  0  0  0  0  0  0
   -1.8156    4.7018   -3.1657 S   0  0  0  0  0  0  0  0  0  0  0  0
   -0.3934    9.0083   -5.9316 C   0  0  0  0  0  0  0  0  0  0  0  0
    0.5212    9.6938   -6.7040 C   0  0  0  0  0  0  0  0  0  0  0  0
    1.8480    9.2210   -7.0998 C   0  0  0  0  0  0  0  0  0  0  0  0
    2.3153    8.1005   -6.9789 O   0  0  0  0  0  0  0  0  0  0  0  0
    2.5433   10.3908   -7.6695 C   0  0  0  0  0  0  0  0  0  0  0  0
    3.8151   10.4800   -8.1531 C   0  0  0  0  0  0  0  0  0  0  0  0
    4.2822   11.7224   -8.6390 C   0  0  0  0  0  0  0  0  0  0  0  0
    5.5891   11.8736   -9.1437 C   0  0  0  0  0  0  0  0  0  0  0  0
    6.0306   13.0823   -9.6068 C   0  0  0  0  0  0  0  0  0  0  0  0
    5.1594   14.1785   -9.5736 C   0  0  0  0  0  0  0  0  0  0  0  0
    5.6115   15.3614  -10.0325 F   0  0  0  0  0  0  0  0  0  0  0  0
    3.8817   14.0860   -9.0957 C   0  0  0  0  0  0  0  0  0  0  0  0
    3.4108   12.8491   -8.6151 C   0  0  0  0  0  0  0  0  0  0  0  0
    2.0924   12.7223   -8.1156 C   0  0  0  0  0  0  0  0  0  0  0  0
    1.6642   11.5100   -7.6475 C   0  0  0  0  0  0  0  0  0  0  0  0
    0.3837   11.0763   -7.0915 C   0  0  0  0  0  0  0  0  0  0  0  0
   -0.7395   11.8630   -6.9848 C   0  0  0  0  0  0  0  0  0  0  0  0
   -0.7723   13.2373   -7.2889 C   0  0  0  0  0  0  0  0  0  0  0  0
   -0.8612   14.3652   -7.4896 N   0  0  0  0  0  0  0  0  0  0  0  0
   -2.0151   11.4157   -6.5941 C   0  0  0  0  0  0  0  0  0  0  0  0
   -3.0943   11.1262   -6.3213 N   0  0  0  0  0  0  0  0  0  0  0  0
    1.8035   -8.4376    6.7080 H   0  0  0  0  0  0  0  0  0  0  0  0
   -3.9024  -10.8992    7.1815 H   0  0  0  0  0  0  0  0  0  0  0  0
   -5.3943  -12.4755    8.3668 H   0  0  0  0  0  0  0  0  0  0  0  0
   -5.8184  -14.0161   10.2662 H   0  0  0  0  0  0  0  0  0  0  0  0
   -1.9550  -13.1635   11.8635 H   0  0  0  0  0  0  0  0  0  0  0  0
   -0.4565  -11.6119   10.7138 H   0  0  0  0  0  0  0  0  0  0  0  0
   -3.4379   -4.6913    7.5269 H   0  0  0  0  0  0  0  0  0  0  0  0
   -5.6440   -3.9767    6.7086 H   0  0  0  0  0  0  0  0  0  0  0  0
   -7.5733   -4.4109    5.2917 H   0  0  0  0  0  0  0  0  0  0  0  0
   -7.4986   -5.6410    4.0198 H   0  0  0  0  0  0  0  0  0  0  0  0
   -6.8151   -4.0416    3.7435 H   0  0  0  0  0  0  0  0  0  0  0  0
   -5.3231   -6.7052    3.4449 H   0  0  0  0  0  0  0  0  0  0  0  0
   -3.1206   -7.4410    4.2815 H   0  0  0  0  0  0  0  0  0  0  0  0
    0.1877   -5.7905    7.9723 H   0  0  0  0  0  0  0  0  0  0  0  0
    0.4310   -6.3373   10.3424 H   0  0  0  0  0  0  0  0  0  0  0  0
   -2.1607   -8.1594   12.3464 H   0  0  0  0  0  0  0  0  0  0  0  0
   -0.4605   -8.5026   12.0191 H   0  0  0  0  0  0  0  0  0  0  0  0
   -0.9417   -6.8848   12.5087 H   0  0  0  0  0  0  0  0  0  0  0  0
   -3.3599   -8.2948   10.2957 H   0  0  0  0  0  0  0  0  0  0  0  0
   -3.6161   -7.7401    7.9175 H   0  0  0  0  0  0  0  0  0  0  0  0
    3.3171   -4.1701   -0.1509 H   0  0  0  0  0  0  0  0  0  0  0  0
    4.0150   -1.9608   -0.9268 H   0  0  0  0  0  0  0  0  0  0  0  0
    3.5817    1.1586    0.8949 H   0  0  0  0  0  0  0  0  0  0  0  0
    4.1750    0.4208   -0.6016 H   0  0  0  0  0  0  0  0  0  0  0  0
    2.4753    0.8688   -0.4447 H   0  0  0  0  0  0  0  0  0  0  0  0
    1.9668   -0.1523    2.3452 H   0  0  0  0  0  0  0  0  0  0  0  0
    1.3346   -2.3635    3.1780 H   0  0  0  0  0  0  0  0  0  0  0  0
    4.4227   -4.9703    2.1642 H   0  0  0  0  0  0  0  0  0  0  0  0
    5.7096   -6.9914    1.6172 H   0  0  0  0  0  0  0  0  0  0  0  0
    4.2187  -10.0660    0.1199 H   0  0  0  0  0  0  0  0  0  0  0  0
    5.7151   -9.1242    0.2151 H   0  0  0  0  0  0  0  0  0  0  0  0
    5.0599   -9.8868    1.6599 H   0  0  0  0  0  0  0  0  0  0  0  0
    2.1046   -9.0057    0.5503 H   0  0  0  0  0  0  0  0  0  0  0  0
    0.8169   -6.9814    1.0732 H   0  0  0  0  0  0  0  0  0  0  0  0
    0.4308   -3.7522   -0.1115 H   0  0  0  0  0  0  0  0  0  0  0  0
    2.4678   -0.5459   -2.9920 H   0  0  0  0  0  0  0  0  0  0  0  0
    3.5914   -4.9765   -4.7464 H   0  0  0  0  0  0  0  0  0  0  0  0
    2.0419   -5.7512   -4.3687 H   0  0  0  0  0  0  0  0  0  0  0  0
    3.9010   -6.8771   -3.1664 H   0  0  0  0  0  0  0  0  0  0  0  0
    4.3417   -5.3535   -2.3917 H   0  0  0  0  0  0  0  0  0  0  0  0
    2.7940   -6.1209   -2.0177 H   0  0  0  0  0  0  0  0  0  0  0  0
   -2.5932    0.5241    2.6796 H   0  0  0  0  0  0  0  0  0  0  0  0
   -4.7280    1.8479    3.2890 H   0  0  0  0  0  0  0  0  0  0  0  0
   -6.8972    2.7888    0.3287 H   0  0  0  0  0  0  0  0  0  0  0  0
   -6.8161    2.9374    2.0916 H   0  0  0  0  0  0  0  0  0  0  0  0
   -6.7501    5.1739    0.9922 H   0  0  0  0  0  0  0  0  0  0  0  0
   -5.2406    4.8576    1.8540 H   0  0  0  0  0  0  0  0  0  0  0  0
   -5.3001    4.6966    0.0969 H   0  0  0  0  0  0  0  0  0  0  0  0
   -2.2048    2.7368   -1.4955 H   0  0  0  0  0  0  0  0  0  0  0  0
    3.1284    1.4473   -5.6551 H   0  0  0  0  0  0  0  0  0  0  0  0
    2.8033   -0.8483   -6.4572 H   0  0  0  0  0  0  0  0  0  0  0  0
   -0.4891   -2.2512   -7.5229 H   0  0  0  0  0  0  0  0  0  0  0  0
    1.2522   -2.3938   -7.8095 H   0  0  0  0  0  0  0  0  0  0  0  0
    0.5912   -2.7458   -6.2166 H   0  0  0  0  0  0  0  0  0  0  0  0
   -1.3834   -0.1354   -6.8291 H   0  0  0  0  0  0  0  0  0  0  0  0
   -1.0655    2.1674   -6.0582 H   0  0  0  0  0  0  0  0  0  0  0  0
    2.6310    4.7388   -3.5970 H   0  0  0  0  0  0  0  0  0  0  0  0
    4.5920    6.1162   -4.1567 H   0  0  0  0  0  0  0  0  0  0  0  0
    5.4034    7.4080   -6.7950 H   0  0  0  0  0  0  0  0  0  0  0  0
    6.3234    6.0441   -7.4362 H   0  0  0  0  0  0  0  0  0  0  0  0
    6.4850    6.5082   -5.7331 H   0  0  0  0  0  0  0  0  0  0  0  0
    4.4285    4.7103   -8.1799 H   0  0  0  0  0  0  0  0  0  0  0  0
    2.4638    3.3419   -7.6276 H   0  0  0  0  0  0  0  0  0  0  0  0
   -0.0877    9.0749   -2.9183 H   0  0  0  0  0  0  0  0  0  0  0  0
    0.1859   11.4373   -2.3180 H   0  0  0  0  0  0  0  0  0  0  0  0
   -1.7660   14.0342   -3.3662 H   0  0  0  0  0  0  0  0  0  0  0  0
   -0.6881   13.6253   -2.0269 H   0  0  0  0  0  0  0  0  0  0  0  0
   -2.4334   13.7545   -1.7631 H   0  0  0  0  0  0  0  0  0  0  0  0
   -3.8921   12.1738   -3.3306 H   0  0  0  0  0  0  0  0  0  0  0  0
   -4.1646    9.8199   -3.9649 H   0  0  0  0  0  0  0  0  0  0  0  0
   -3.6223    6.2421   -5.4015 H   0  0  0  0  0  0  0  0  0  0  0  0
   -5.6788    5.0421   -4.7988 H   0  0  0  0  0  0  0  0  0  0  0  0
   -6.8269    4.1658   -2.1941 H   0  0  0  0  0  0  0  0  0  0  0  0
   -7.7584    5.1110   -3.3505 H   0  0  0  0  0  0  0  0  0  0  0  0
   -7.6093    5.6611   -1.6745 H   0  0  0  0  0  0  0  0  0  0  0  0
   -5.7267    7.0212   -1.0198 H   0  0  0  0  0  0  0  0  0  0  0  0
   -3.6516    8.1932   -1.6020 H   0  0  0  0  0  0  0  0  0  0  0  0
   -1.2734    9.5699   -5.6462 H   0  0  0  0  0  0  0  0  0  0  0  0
    4.4599    9.6137   -8.1673 H   0  0  0  0  0  0  0  0  0  0  0  0
    6.2423   11.0138   -9.1586 H   0  0  0  0  0  0  0  0  0  0  0  0
    7.0278   13.2148   -9.9956 H   0  0  0  0  0  0  0  0  0  0  0  0
    3.2381   14.9518   -9.0859 H   0  0  0  0  0  0  0  0  0  0  0  0
    1.4572   13.5934   -8.1142 H   0  0  0  0  0  0  0  0  0  0  0  0
  1  2  2  0  0  0  0
  2  3  1  0  0  0  0
  3  4  2  0  0  0  0
  3  5  1  0  0  0  0
  5  6  2  0  0  0  0
  6  7  1  0  0  0  0
  7  8  2  0  0  0  0
  8  9  1  0  0  0  0
  9 10  2  0  0  0  0
 10 11  1  0  0  0  0
 10 12  1  0  0  0  0
 12 13  2  0  0  0  0
 13 14  1  0  0  0  0
 14 15  2  0  0  0  0
 15 16  1  0  0  0  0
 16 17  2  0  0  0  0
 17 18  1  0  0  0  0
 18 19  3  0  0  0  0
 17 20  1  0  0  0  0
 20 21  3  0  0  0  0
  1 22  1  0  0  0  0
 22 23  2  0  0  0  0
 23 24  1  0  0  0  0
 24 25  1  0  0  0  0
 25 26  2  0  0  0  0
 26 27  1  0  0  0  0
 27 28  2  0  0  0  0
 28 29  1  0  0  0  0
 28 30  1  0  0  0  0
 30 31  2  0  0  0  0
 24 32  1  0  0  0  0
 32 33  2  0  0  0  0
 33 34  1  0  0  0  0
 34 35  2  0  0  0  0
 35 36  1  0  0  0  0
 35 37  1  0  0  0  0
 37 38  2  0  0  0  0
 23 39  1  0  0  0  0
 39 40  1  0  0  0  0
 40 41  1  0  0  0  0
 41 42  2  0  0  0  0
 42 43  1  0  0  0  0
 43 44  1  0  0  0  0
 44 45  2  0  0  0  0
 45 46  1  0  0  0  0
 46 47  2  0  0  0  0
 47 48  1  0  0  0  0
 47 49  1  0  0  0  0
 49 50  2  0  0  0  0
 43 51  1  0  0  0  0
 51 52  2  0  0  0  0
 52 53  1  0  0  0  0
 53 54  2  0  0  0  0
 54 55  1  0  0  0  0
 54 56  1  0  0  0  0
 56 57  2  0  0  0  0
 42 58  1  0  0  0  0
 58 59  1  0  0  0  0
 41 60  1  0  0  0  0
 60 61  2  0  0  0  0
 61 62  1  0  0  0  0
 62 63  2  0  0  0  0
 63 64  1  0  0  0  0
 64 65  2  0  0  0  0
 65 66  1  0  0  0  0
 66 67  1  0  0  0  0
 66 68  2  0  0  0  0
 68 69  1  0  0  0  0
 69 70  1  0  0  0  0
 68 71  1  0  0  0  0
 63 72  1  0  0  0  0
 72 73  2  0  0  0  0
 73 74  1  0  0  0  0
 74 75  1  0  0  0  0
 75 76  2  0  0  0  0
 76 77  1  0  0  0  0
 77 78  2  0  0  0  0
 78 79  1  0  0  0  0
 79 80  1  0  0  0  0
 78 81  1  0  0  0  0
 74 82  2  0  0  0  0
 82 83  1  0  0  0  0
 73 84  1  0  0  0  0
 84 85  2  0  0  0  0
 85 86  1  0  0  0  0
 85 87  1  0  0  0  0
 87 88  2  0  0  0  0
 88 89  1  0  0  0  0
 89 90  1  0  0  0  0
 90 91  2  0  0  0  0
 91 92  1  0  0  0  0
 92 93  2  0  0  0  0
 93 94  1  0  0  0  0
 93 95  1  0  0  0  0
 95 96  2  0  0  0  0
 89 97  1  0  0  0  0
 97 98  2  0  0  0  0
 98 99  1  0  0  0  0
 99100  2  0  0  0  0
100101  1  0  0  0  0
100102  1  0  0  0  0
102103  2  0  0  0  0
 88104  1  0  0  0  0
104105  1  0  0  0  0
105106  1  0  0  0  0
106107  2  0  0  0  0
107108  1  0  0  0  0
108109  1  0  0  0  0
109110  2  0  0  0  0
110111  1  0  0  0  0
111112  2  0  0  0  0
112113  1  0  0  0  0
112114  1  0  0  0  0
114115  2  0  0  0  0
108116  1  0  0  0  0
116117  2  0  0  0  0
117118  1  0  0  0  0
118119  2  0  0  0  0
119120  1  0  0  0  0
119121  1  0  0  0  0
121122  2  0  0  0  0
107123  1  0  0  0  0
123124  1  0  0  0  0
106125  1  0  0  0  0
125126  2  0  0  0  0
126127  1  0  0  0  0
127128  2  0  0  0  0
127129  1  0  0  0  0
129130  2  0  0  0  0
130131  1  0  0  0  0
131132  2  0  0  0  0
132133  1  0  0  0  0
133134  2  0  0  0  0
134135  1  0  0  0  0
134136  1  0  0  0  0
136137  2  0  0  0  0
137138  1  0  0  0  0
138139  2  0  0  0  0
139140  1  0  0  0  0
140141  2  0  0  0  0
141142  1  0  0  0  0
142143  3  0  0  0  0
141144  1  0  0  0  0
144145  3  0  0  0  0
 16  2  1  0  0  0  0
 59 22  1  0  0  0  0
 83 60  1  0  0  0  0
124 87  1  0  0  0  0
140126  1  0  0  0  0
 15  5  1  0  0  0  0
 31 25  1  0  0  0  0
 38 32  1  0  0  0  0
 58 39  2  0  0  0  0
 82 62  1  0  0  0  0
 96 90  1  0  0  0  0
103 97  1  0  0  0  0
123104  2  0  0  0  0
139129  1  0  0  0  0
 13  7  1  0  0  0  0
 50 44  1  0  0  0  0
 57 51  1  0  0  0  0
 71 64  1  0  0  0  0
 86 72  1  0  0  0  0
115109  1  0  0  0  0
122116  1  0  0  0  0
137131  1  0  0  0  0
 81 75  1  0  0  0  0
  1146  1  0  0  0  0
  6147  1  0  0  0  0
  8148  1  0  0  0  0
  9149  1  0  0  0  0
 12150  1  0  0  0  0
 14151  1  0  0  0  0
 26152  1  0  0  0  0
 27153  1  0  0  0  0
 29154  1  0  0  0  0
 29155  1  0  0  0  0
 29156  1  0  0  0  0
 30157  1  0  0  0  0
 31158  1  0  0  0  0
 33159  1  0  0  0  0
 34160  1  0  0  0  0
 36161  1  0  0  0  0
 36162  1  0  0  0  0
 36163  1  0  0  0  0
 37164  1  0  0  0  0
 38165  1  0  0  0  0
 45166  1  0  0  0  0
 46167  1  0  0  0  0
 48168  1  0  0  0  0
 48169  1  0  0  0  0
 48170  1  0  0  0  0
 49171  1  0  0  0  0
 50172  1  0  0  0  0
 52173  1  0  0  0  0
 53174  1  0  0  0  0
 55175  1  0  0  0  0
 55176  1  0  0  0  0
 55177  1  0  0  0  0
 56178  1  0  0  0  0
 57179  1  0  0  0  0
 61180  1  0  0  0  0
 65181  1  0  0  0  0
 69182  1  0  0  0  0
 69183  1  0  0  0  0
 70184  1  0  0  0  0
 70185  1  0  0  0  0
 70186  1  0  0  0  0
 76187  1  0  0  0  0
 77188  1  0  0  0  0
 79189  1  0  0  0  0
 79190  1  0  0  0  0
 80191  1  0  0  0  0
 80192  1  0  0  0  0
 80193  1  0  0  0  0
 84194  1  0  0  0  0
 91195  1  0  0  0  0
 92196  1  0  0  0  0
 94197  1  0  0  0  0
 94198  1  0  0  0  0
 94199  1  0  0  0  0
 95200  1  0  0  0  0
 96201  1  0  0  0  0
 98202  1  0  0  0  0
 99203  1  0  0  0  0
101204  1  0  0  0  0
101205  1  0  0  0  0
101206  1  0  0  0  0
102207  1  0  0  0  0
103208  1  0  0  0  0
110209  1  0  0  0  0
111210  1  0  0  0  0
113211  1  0  0  0  0
113212  1  0  0  0  0
113213  1  0  0  0  0
114214  1  0  0  0  0
115215  1  0  0  0  0
117216  1  0  0  0  0
118217  1  0  0  0  0
120218  1  0  0  0  0
120219  1  0  0  0  0
120220  1  0  0  0  0
121221  1  0  0  0  0
122222  1  0  0  0  0
125223  1  0  0  0  0
130224  1  0  0  0  0
132225  1  0  0  0  0
133226  1  0  0  0  0
136227  1  0  0  0  0
138228  1  0  0  0  0
M  END
