
  xtb     02112215443D
 energy: -255.667850118659 gnorm: 0.000463783860 xtb: 6.4.1 (unknown)
138152  0     0  0            999 V2000
    4.9392   -2.6316    6.8520 C   0  0  0  0  0  0  0  0  0  0  0  0
    4.7972   -2.5601    8.2147 C   0  0  0  0  0  0  0  0  0  0  0  0
    3.6972   -1.9547    8.9982 C   0  0  0  0  0  0  0  0  0  0  0  0
    2.6163   -1.5534    8.6151 O   0  0  0  0  0  0  0  0  0  0  0  0
    4.1762   -1.9118   10.3926 C   0  0  0  0  0  0  0  0  0  0  0  0
    3.5512   -1.3869   11.4865 C   0  0  0  0  0  0  0  0  0  0  0  0
    4.2025   -1.4330   12.7390 C   0  0  0  0  0  0  0  0  0  0  0  0
    3.6057   -0.9046   13.9018 C   0  0  0  0  0  0  0  0  0  0  0  0
    4.2499   -0.9497   15.1068 C   0  0  0  0  0  0  0  0  0  0  0  0
    5.5225   -1.5331   15.1736 C   0  0  0  0  0  0  0  0  0  0  0  0
    6.1414   -1.5672   16.3684 F   0  0  0  0  0  0  0  0  0  0  0  0
    6.1457   -2.0609   14.0774 C   0  0  0  0  0  0  0  0  0  0  0  0
    5.4963   -2.0240   12.8280 C   0  0  0  0  0  0  0  0  0  0  0  0
    6.1150   -2.5653   11.6768 C   0  0  0  0  0  0  0  0  0  0  0  0
    5.4613   -2.5138   10.4745 C   0  0  0  0  0  0  0  0  0  0  0  0
    5.8315   -2.9842    9.1430 C   0  0  0  0  0  0  0  0  0  0  0  0
    6.9330   -3.7528    8.8637 C   0  0  0  0  0  0  0  0  0  0  0  0
    7.2586   -4.3177    7.6126 C   0  0  0  0  0  0  0  0  0  0  0  0
    7.5910   -4.8384    6.6437 N   0  0  0  0  0  0  0  0  0  0  0  0
    7.8924   -4.1325    9.8256 C   0  0  0  0  0  0  0  0  0  0  0  0
    8.7115   -4.4758   10.5534 N   0  0  0  0  0  0  0  0  0  0  0  0
    4.0726   -2.2841    5.8024 C   0  0  0  0  0  0  0  0  0  0  0  0
    4.7573   -2.3994    4.1701 S   0  0  0  0  0  0  0  0  0  0  0  0
    3.2744   -1.8730    3.4797 C   0  0  0  0  0  0  0  0  0  0  0  0
    2.8198   -1.6315    2.1871 C   0  0  0  0  0  0  0  0  0  0  0  0
    1.4979   -1.2250    2.1702 C   0  0  0  0  0  0  0  0  0  0  0  0
    0.8120   -1.1226    3.7835 S   0  0  0  0  0  0  0  0  0  0  0  0
    2.3098   -1.6410    4.4772 C   0  0  0  0  0  0  0  0  0  0  0  0
    2.7481   -1.8704    5.7712 C   0  0  0  0  0  0  0  0  0  0  0  0
    0.7745   -0.8169    1.0214 C   0  0  0  0  0  0  0  0  0  0  0  0
   -0.5916   -0.6094    0.8490 C   0  0  0  0  0  0  0  0  0  0  0  0
   -1.5880   -0.9323    1.7495 N   0  0  0  0  0  0  0  0  0  0  0  0
   -1.5925   -2.1545    2.4302 C   0  0  0  0  0  0  0  0  0  0  0  0
   -0.9960   -3.2856    1.8801 C   0  0  0  0  0  0  0  0  0  0  0  0
   -0.9845   -4.4842    2.5663 C   0  0  0  0  0  0  0  0  0  0  0  0
   -1.5827   -4.5777    3.8158 C   0  0  0  0  0  0  0  0  0  0  0  0
   -1.6344   -6.0469    4.7888 S   0  0  0  0  0  0  0  0  0  0  0  0
   -0.7682   -7.2796    3.7765 C   0  0  0  0  0  0  0  0  0  0  0  0
   -2.1928   -3.4501    4.3652 C   0  0  0  0  0  0  0  0  0  0  0  0
   -2.1954   -2.2541    3.6868 C   0  0  0  0  0  0  0  0  0  0  0  0
   -2.6957   -0.0711    1.8266 C   0  0  0  0  0  0  0  0  0  0  0  0
   -2.4962    1.3100    1.8404 C   0  0  0  0  0  0  0  0  0  0  0  0
   -3.5726    2.1657    1.8855 C   0  0  0  0  0  0  0  0  0  0  0  0
   -4.8730    1.6645    1.9273 C   0  0  0  0  0  0  0  0  0  0  0  0
   -6.1684    2.8584    1.9797 S   0  0  0  0  0  0  0  0  0  0  0  0
   -7.6809    1.8633    2.1083 C   0  0  0  0  0  0  0  0  0  0  0  0
   -5.0742    0.2902    1.9234 C   0  0  0  0  0  0  0  0  0  0  0  0
   -3.9940   -0.5684    1.8692 C   0  0  0  0  0  0  0  0  0  0  0  0
   -0.8581   -0.0416   -0.4219 C   0  0  0  0  0  0  0  0  0  0  0  0
   -2.3008    0.4995   -1.2063 S   0  0  0  0  0  0  0  0  0  0  0  0
   -1.3757    0.9324   -2.6340 C   0  0  0  0  0  0  0  0  0  0  0  0
   -0.0079    0.7268   -2.4769 C   0  0  0  0  0  0  0  0  0  0  0  0
    0.9681    1.1419   -3.3632 N   0  0  0  0  0  0  0  0  0  0  0  0
    2.1377    0.3844   -3.5053 C   0  0  0  0  0  0  0  0  0  0  0  0
    3.3672    1.0122   -3.7101 C   0  0  0  0  0  0  0  0  0  0  0  0
    4.5126    0.2626   -3.8416 C   0  0  0  0  0  0  0  0  0  0  0  0
    4.4645   -1.1297   -3.7650 C   0  0  0  0  0  0  0  0  0  0  0  0
    6.0024   -1.9743   -3.9401 S   0  0  0  0  0  0  0  0  0  0  0  0
    5.5671   -3.7270   -3.7566 C   0  0  0  0  0  0  0  0  0  0  0  0
    3.2430   -1.7579   -3.5664 C   0  0  0  0  0  0  0  0  0  0  0  0
    2.0906   -1.0054   -3.4437 C   0  0  0  0  0  0  0  0  0  0  0  0
    0.7990    2.3323   -4.0908 C   0  0  0  0  0  0  0  0  0  0  0  0
    0.2175    3.4478   -3.4941 C   0  0  0  0  0  0  0  0  0  0  0  0
   -0.0786    4.5731   -4.2367 C   0  0  0  0  0  0  0  0  0  0  0  0
    0.2072    4.6058   -5.5960 C   0  0  0  0  0  0  0  0  0  0  0  0
   -0.2424    5.9364   -6.6660 S   0  0  0  0  0  0  0  0  0  0  0  0
   -1.3012    6.9810   -5.6279 C   0  0  0  0  0  0  0  0  0  0  0  0
    0.8688    3.5253   -6.1775 C   0  0  0  0  0  0  0  0  0  0  0  0
    1.1613    2.4019   -5.4366 C   0  0  0  0  0  0  0  0  0  0  0  0
    0.2623    0.1400   -1.2160 C   0  0  0  0  0  0  0  0  0  0  0  0
    1.7005   -0.3919   -0.4199 S   0  0  0  0  0  0  0  0  0  0  0  0
   -2.0000    1.5171   -3.7739 C   0  0  0  0  0  0  0  0  0  0  0  0
   -3.1724    2.8141   -3.5881 S   0  0  0  0  0  0  0  0  0  0  0  0
   -3.0816    3.1488   -5.2856 C   0  0  0  0  0  0  0  0  0  0  0  0
   -3.5519    4.1535   -6.1081 C   0  0  0  0  0  0  0  0  0  0  0  0
   -3.0655    4.0356   -7.4136 C   0  0  0  0  0  0  0  0  0  0  0  0
   -2.0774    2.5942   -7.6185 S   0  0  0  0  0  0  0  0  0  0  0  0
   -2.2416    2.2343   -5.9458 C   0  0  0  0  0  0  0  0  0  0  0  0
   -1.6478    1.3078   -5.0877 C   0  0  0  0  0  0  0  0  0  0  0  0
   -3.2502    5.0459   -8.3660 C   0  0  0  0  0  0  0  0  0  0  0  0
   -2.8352    5.1168   -9.6723 C   0  0  0  0  0  0  0  0  0  0  0  0
   -2.2786    4.0113  -10.4598 C   0  0  0  0  0  0  0  0  0  0  0  0
   -1.9457    2.9083  -10.0722 O   0  0  0  0  0  0  0  0  0  0  0  0
   -2.2311    4.4991  -11.8564 C   0  0  0  0  0  0  0  0  0  0  0  0
   -1.8409    3.8174  -12.9903 C   0  0  0  0  0  0  0  0  0  0  0  0
   -1.8982    4.4816  -14.2104 C   0  0  0  0  0  0  0  0  0  0  0  0
   -1.4307    3.6895  -15.6633 Cl  0  0  0  0  0  0  0  0  0  0  0  0
   -2.3427    5.8050  -14.2498 C   0  0  0  0  0  0  0  0  0  0  0  0
   -2.4025    6.4351  -15.4288 F   0  0  0  0  0  0  0  0  0  0  0  0
   -2.7296    6.4983  -13.1129 C   0  0  0  0  0  0  0  0  0  0  0  0
   -2.6725    5.8332  -11.8988 C   0  0  0  0  0  0  0  0  0  0  0  0
   -2.9870    6.2658  -10.5393 C   0  0  0  0  0  0  0  0  0  0  0  0
   -3.2664    7.5534  -10.1584 C   0  0  0  0  0  0  0  0  0  0  0  0
   -3.3908    7.9844   -8.8230 C   0  0  0  0  0  0  0  0  0  0  0  0
   -3.4606    8.4097   -7.7577 N   0  0  0  0  0  0  0  0  0  0  0  0
   -3.4017    8.6309  -11.0585 C   0  0  0  0  0  0  0  0  0  0  0  0
   -3.5372    9.5421  -11.7428 N   0  0  0  0  0  0  0  0  0  0  0  0
    5.8983   -2.9925    6.4981 H   0  0  0  0  0  0  0  0  0  0  0  0
    2.5726   -0.9395   11.3958 H   0  0  0  0  0  0  0  0  0  0  0  0
    2.6248   -0.4600   13.8248 H   0  0  0  0  0  0  0  0  0  0  0  0
    3.8079   -0.5497   16.0056 H   0  0  0  0  0  0  0  0  0  0  0  0
    7.1254   -2.5040   14.1662 H   0  0  0  0  0  0  0  0  0  0  0  0
    7.0954   -3.0017   11.7785 H   0  0  0  0  0  0  0  0  0  0  0  0
    3.4085   -1.7475    1.2954 H   0  0  0  0  0  0  0  0  0  0  0  0
    2.1563   -1.7414    6.6582 H   0  0  0  0  0  0  0  0  0  0  0  0
   -0.5359   -3.2300    0.9044 H   0  0  0  0  0  0  0  0  0  0  0  0
   -0.5103   -5.3376    2.1093 H   0  0  0  0  0  0  0  0  0  0  0  0
   -1.2925   -7.4244    2.8363 H   0  0  0  0  0  0  0  0  0  0  0  0
    0.2610   -6.9725    3.6149 H   0  0  0  0  0  0  0  0  0  0  0  0
   -0.7910   -8.1980    4.3550 H   0  0  0  0  0  0  0  0  0  0  0  0
   -2.6526   -3.5255    5.3382 H   0  0  0  0  0  0  0  0  0  0  0  0
   -2.6507   -1.3814    4.1286 H   0  0  0  0  0  0  0  0  0  0  0  0
   -1.4904    1.7029    1.8208 H   0  0  0  0  0  0  0  0  0  0  0  0
   -3.4218    3.2340    1.8952 H   0  0  0  0  0  0  0  0  0  0  0  0
   -7.6486    1.2536    3.0065 H   0  0  0  0  0  0  0  0  0  0  0  0
   -8.4945    2.5786    2.1783 H   0  0  0  0  0  0  0  0  0  0  0  0
   -7.8033    1.2533    1.2180 H   0  0  0  0  0  0  0  0  0  0  0  0
   -6.0671   -0.1281    1.9502 H   0  0  0  0  0  0  0  0  0  0  0  0
   -4.1584   -1.6355    1.8516 H   0  0  0  0  0  0  0  0  0  0  0  0
    3.4140    2.0895   -3.7591 H   0  0  0  0  0  0  0  0  0  0  0  0
    5.4651    0.7453   -3.9967 H   0  0  0  0  0  0  0  0  0  0  0  0
    4.8914   -4.0288   -4.5516 H   0  0  0  0  0  0  0  0  0  0  0  0
    5.1318   -3.9014   -2.7771 H   0  0  0  0  0  0  0  0  0  0  0  0
    6.5033   -4.2694   -3.8449 H   0  0  0  0  0  0  0  0  0  0  0  0
    3.1691   -2.8319   -3.5137 H   0  0  0  0  0  0  0  0  0  0  0  0
    1.1412   -1.5032   -3.3088 H   0  0  0  0  0  0  0  0  0  0  0  0
   -0.0249    3.4264   -2.4417 H   0  0  0  0  0  0  0  0  0  0  0  0
   -0.5377    5.4140   -3.7431 H   0  0  0  0  0  0  0  0  0  0  0  0
   -0.7025    7.4979   -4.8838 H   0  0  0  0  0  0  0  0  0  0  0  0
   -1.7626    7.7010   -6.2984 H   0  0  0  0  0  0  0  0  0  0  0  0
   -2.0691    6.3690   -5.1642 H   0  0  0  0  0  0  0  0  0  0  0  0
    1.1182    3.5651   -7.2262 H   0  0  0  0  0  0  0  0  0  0  0  0
    1.6457    1.5579   -5.9041 H   0  0  0  0  0  0  0  0  0  0  0  0
   -4.1889    4.9617   -5.7959 H   0  0  0  0  0  0  0  0  0  0  0  0
   -0.9798    0.5279   -5.4015 H   0  0  0  0  0  0  0  0  0  0  0  0
   -3.7973    5.8994   -7.9827 H   0  0  0  0  0  0  0  0  0  0  0  0
   -1.5015    2.7958  -12.9292 H   0  0  0  0  0  0  0  0  0  0  0  0
   -3.0642    7.5181  -13.2120 H   0  0  0  0  0  0  0  0  0  0  0  0
  1  2  2  0  0  0  0
  2  3  1  0  0  0  0
  3  4  2  0  0  0  0
  3  5  1  0  0  0  0
  5  6  2  0  0  0  0
  6  7  1  0  0  0  0
  7  8  2  0  0  0  0
  8  9  1  0  0  0  0
  9 10  2  0  0  0  0
 10 11  1  0  0  0  0
 10 12  1  0  0  0  0
 12 13  2  0  0  0  0
 13 14  1  0  0  0  0
 14 15  2  0  0  0  0
 15 16  1  0  0  0  0
 16 17  2  0  0  0  0
 17 18  1  0  0  0  0
 18 19  3  0  0  0  0
 17 20  1  0  0  0  0
 20 21  3  0  0  0  0
  1 22  1  0  0  0  0
 22 23  1  0  0  0  0
 23 24  1  0  0  0  0
 24 25  1  0  0  0  0
 25 26  2  0  0  0  0
 26 27  1  0  0  0  0
 27 28  1  0  0  0  0
 28 29  1  0  0  0  0
 26 30  1  0  0  0  0
 30 31  2  0  0  0  0
 31 32  1  0  0  0  0
 32 33  1  0  0  0  0
 33 34  2  0  0  0  0
 34 35  1  0  0  0  0
 35 36  2  0  0  0  0
 36 37  1  0  0  0  0
 37 38  1  0  0  0  0
 36 39  1  0  0  0  0
 39 40  2  0  0  0  0
 32 41  1  0  0  0  0
 41 42  2  0  0  0  0
 42 43  1  0  0  0  0
 43 44  2  0  0  0  0
 44 45  1  0  0  0  0
 45 46  1  0  0  0  0
 44 47  1  0  0  0  0
 47 48  2  0  0  0  0
 31 49  1  0  0  0  0
 49 50  1  0  0  0  0
 50 51  1  0  0  0  0
 51 52  2  0  0  0  0
 52 53  1  0  0  0  0
 53 54  1  0  0  0  0
 54 55  2  0  0  0  0
 55 56  1  0  0  0  0
 56 57  2  0  0  0  0
 57 58  1  0  0  0  0
 58 59  1  0  0  0  0
 57 60  1  0  0  0  0
 60 61  2  0  0  0  0
 53 62  1  0  0  0  0
 62 63  2  0  0  0  0
 63 64  1  0  0  0  0
 64 65  2  0  0  0  0
 65 66  1  0  0  0  0
 66 67  1  0  0  0  0
 65 68  1  0  0  0  0
 68 69  2  0  0  0  0
 52 70  1  0  0  0  0
 70 71  1  0  0  0  0
 51 72  1  0  0  0  0
 72 73  1  0  0  0  0
 73 74  1  0  0  0  0
 74 75  1  0  0  0  0
 75 76  2  0  0  0  0
 76 77  1  0  0  0  0
 77 78  1  0  0  0  0
 78 79  1  0  0  0  0
 76 80  1  0  0  0  0
 80 81  2  0  0  0  0
 81 82  1  0  0  0  0
 82 83  2  0  0  0  0
 82 84  1  0  0  0  0
 84 85  2  0  0  0  0
 85 86  1  0  0  0  0
 86 87  1  0  0  0  0
 86 88  2  0  0  0  0
 88 89  1  0  0  0  0
 88 90  1  0  0  0  0
 90 91  2  0  0  0  0
 91 92  1  0  0  0  0
 92 93  2  0  0  0  0
 93 94  1  0  0  0  0
 94 95  3  0  0  0  0
 93 96  1  0  0  0  0
 96 97  3  0  0  0  0
 16  2  1  0  0  0  0
 29 22  2  0  0  0  0
 71 30  1  0  0  0  0
 79 72  2  0  0  0  0
 92 81  1  0  0  0  0
 15  5  1  0  0  0  0
 28 24  2  0  0  0  0
 40 33  1  0  0  0  0
 48 41  1  0  0  0  0
 70 49  2  0  0  0  0
 78 74  2  0  0  0  0
 91 84  1  0  0  0  0
 13  7  1  0  0  0  0
 61 54  1  0  0  0  0
 69 62  1  0  0  0  0
  1 98  1  0  0  0  0
  6 99  1  0  0  0  0
  8100  1  0  0  0  0
  9101  1  0  0  0  0
 12102  1  0  0  0  0
 14103  1  0  0  0  0
 25104  1  0  0  0  0
 29105  1  0  0  0  0
 34106  1  0  0  0  0
 35107  1  0  0  0  0
 38108  1  0  0  0  0
 38109  1  0  0  0  0
 38110  1  0  0  0  0
 39111  1  0  0  0  0
 40112  1  0  0  0  0
 42113  1  0  0  0  0
 43114  1  0  0  0  0
 46115  1  0  0  0  0
 46116  1  0  0  0  0
 46117  1  0  0  0  0
 47118  1  0  0  0  0
 48119  1  0  0  0  0
 55120  1  0  0  0  0
 56121  1  0  0  0  0
 59122  1  0  0  0  0
 59123  1  0  0  0  0
 59124  1  0  0  0  0
 60125  1  0  0  0  0
 61126  1  0  0  0  0
 63127  1  0  0  0  0
 64128  1  0  0  0  0
 67129  1  0  0  0  0
 67130  1  0  0  0  0
 67131  1  0  0  0  0
 68132  1  0  0  0  0
 69133  1  0  0  0  0
 75134  1  0  0  0  0
 79135  1  0  0  0  0
 80136  1  0  0  0  0
 85137  1  0  0  0  0
 90138  1  0  0  0  0
M  END
