
  xtb     01172214243D
 energy: -40.675685759233 gnorm: 0.000825348528 xtb: 6.4.1 (unknown)
 22 23  0     0  0            999 V2000
    0.8458   -0.4450    3.9470 C   0  0  0  0  0  0  0  0  0  0  0  0
    0.5090   -0.3860    2.6571 C   0  0  0  0  0  0  0  0  0  0  0  0
   -0.4778   -1.3445    2.0586 C   0  0  0  0  0  0  0  0  0  0  0  0
   -1.0635   -2.2231    2.6431 O   0  0  0  0  0  0  0  0  0  0  0  0
   -0.5662   -0.9787    0.6346 C   0  0  0  0  0  0  0  0  0  0  0  0
   -1.3275   -1.5634   -0.3606 C   0  0  0  0  0  0  0  0  0  0  0  0
   -1.2414   -1.0460   -1.6441 C   0  0  0  0  0  0  0  0  0  0  0  0
   -0.4095    0.0330   -1.9144 C   0  0  0  0  0  0  0  0  0  0  0  0
    0.3558    0.6250   -0.9207 C   0  0  0  0  0  0  0  0  0  0  0  0
    0.2795    0.1160    0.3692 C   0  0  0  0  0  0  0  0  0  0  0  0
    0.9587    0.5169    1.5955 C   0  0  0  0  0  0  0  0  0  0  0  0
    1.8466    1.5425    1.7324 C   0  0  0  0  0  0  0  0  0  0  0  0
    2.4931    1.8864    2.9414 C   0  0  0  0  0  0  0  0  0  0  0  0
    3.0537    2.2121    3.8875 N   0  0  0  0  0  0  0  0  0  0  0  0
    2.2431    2.4022    0.6830 C   0  0  0  0  0  0  0  0  0  0  0  0
    2.6008    3.1325   -0.1262 N   0  0  0  0  0  0  0  0  0  0  0  0
    0.3866   -1.2023    4.5630 H   0  0  0  0  0  0  0  0  0  0  0  0
    1.5512    0.2167    4.4178 H   0  0  0  0  0  0  0  0  0  0  0  0
   -1.9664   -2.4016   -0.1285 H   0  0  0  0  0  0  0  0  0  0  0  0
   -1.8233   -1.4838   -2.4409 H   0  0  0  0  0  0  0  0  0  0  0  0
   -0.3543    0.4223   -2.9199 H   0  0  0  0  0  0  0  0  0  0  0  0
    0.9928    1.4612   -1.1586 H   0  0  0  0  0  0  0  0  0  0  0  0
  1  2  2  0  0  0  0
  2  3  1  0  0  0  0
  3  4  2  0  0  0  0
  3  5  1  0  0  0  0
  5  6  2  0  0  0  0
  6  7  1  0  0  0  0
  7  8  2  0  0  0  0
  8  9  1  0  0  0  0
  9 10  2  0  0  0  0
 10 11  1  0  0  0  0
 11 12  2  0  0  0  0
 12 13  1  0  0  0  0
 13 14  3  0  0  0  0
 12 15  1  0  0  0  0
 15 16  3  0  0  0  0
 11  2  1  0  0  0  0
 10  5  1  0  0  0  0
  1 17  1  0  0  0  0
  1 18  1  0  0  0  0
  6 19  1  0  0  0  0
  7 20  1  0  0  0  0
  8 21  1  0  0  0  0
  9 22  1  0  0  0  0
M  END
