
  xtb     01172214243D
 energy: -40.355438258079 gnorm: 0.000276659314 xtb: 6.4.1 (unknown)
 22 24  0     0  0            999 V2000
    1.1084    1.4077    4.2115 O   0  0  0  0  0  0  0  0  0  0  0  0
    1.1562    0.7413    3.2016 C   0  0  0  0  0  0  0  0  0  0  0  0
    2.1049   -0.2533    3.0625 N   0  0  0  0  0  0  0  0  0  0  0  0
    2.3144   -1.1083    1.9978 C   0  0  0  0  0  0  0  0  0  0  0  0
    3.2003   -1.9329    2.0373 O   0  0  0  0  0  0  0  0  0  0  0  0
    1.3950   -0.9256    0.8615 C   0  0  0  0  0  0  0  0  0  0  0  0
    1.5140   -1.7259   -0.2553 C   0  0  0  0  0  0  0  0  0  0  0  0
    0.6472   -1.5615   -1.3397 C   0  0  0  0  0  0  0  0  0  0  0  0
   -0.3313   -0.6025   -1.3048 C   0  0  0  0  0  0  0  0  0  0  0  0
   -0.4848    0.2356   -0.1803 C   0  0  0  0  0  0  0  0  0  0  0  0
   -1.4805    1.2327   -0.1104 C   0  0  0  0  0  0  0  0  0  0  0  0
   -1.6018    2.0299    0.9978 C   0  0  0  0  0  0  0  0  0  0  0  0
   -0.7359    1.8671    2.0831 C   0  0  0  0  0  0  0  0  0  0  0  0
    0.2498    0.9032    2.0517 C   0  0  0  0  0  0  0  0  0  0  0  0
    0.3943    0.0696    0.9205 C   0  0  0  0  0  0  0  0  0  0  0  0
    2.7347   -0.3721    3.8511 H   0  0  0  0  0  0  0  0  0  0  0  0
    2.2880   -2.4783   -0.2728 H   0  0  0  0  0  0  0  0  0  0  0  0
    0.7552   -2.1971   -2.2055 H   0  0  0  0  0  0  0  0  0  0  0  0
   -1.0025   -0.4735   -2.1416 H   0  0  0  0  0  0  0  0  0  0  0  0
   -2.1485    1.3565   -0.9506 H   0  0  0  0  0  0  0  0  0  0  0  0
   -2.3675    2.7896    1.0401 H   0  0  0  0  0  0  0  0  0  0  0  0
   -0.8231    2.4899    2.9607 H   0  0  0  0  0  0  0  0  0  0  0  0
  1  2  2  0  0  0  0
  2  3  1  0  0  0  0
  3  4  1  0  0  0  0
  4  5  2  0  0  0  0
  4  6  1  0  0  0  0
  6  7  1  0  0  0  0
  7  8  2  0  0  0  0
  8  9  1  0  0  0  0
  9 10  2  0  0  0  0
 10 11  1  0  0  0  0
 11 12  2  0  0  0  0
 12 13  1  0  0  0  0
 13 14  2  0  0  0  0
 14 15  1  0  0  0  0
 14  2  1  0  0  0  0
 15  6  2  0  0  0  0
 15 10  1  0  0  0  0
  3 16  1  0  0  0  0
  7 17  1  0  0  0  0
  8 18  1  0  0  0  0
  9 19  1  0  0  0  0
 11 20  1  0  0  0  0
 12 21  1  0  0  0  0
 13 22  1  0  0  0  0
M  END
