
  xtb     01172214243D
 energy: -39.559804949257 gnorm: 0.000287171792 xtb: 6.4.1 (unknown)
 28 30  0     0  0            999 V2000
   -1.6443   -2.4900    2.3127 C   0  0  0  0  0  0  0  0  0  0  0  0
   -1.0803   -1.0988    2.6006 C   0  0  0  0  0  0  0  0  0  0  0  0
   -0.2071   -0.6510    1.5500 N   0  0  0  0  0  0  0  0  0  0  0  0
    1.1401   -0.9098    1.4633 C   0  0  0  0  0  0  0  0  0  0  0  0
    1.9751   -1.5736    2.3518 C   0  0  0  0  0  0  0  0  0  0  0  0
    3.3121   -1.6862    2.0227 C   0  0  0  0  0  0  0  0  0  0  0  0
    3.8174   -1.1552    0.8380 C   0  0  0  0  0  0  0  0  0  0  0  0
    2.9935   -0.4966   -0.0524 C   0  0  0  0  0  0  0  0  0  0  0  0
    1.6453   -0.3714    0.2553 C   0  0  0  0  0  0  0  0  0  0  0  0
    0.5274    0.2218   -0.4209 C   0  0  0  0  0  0  0  0  0  0  0  0
    0.3841    0.8880   -1.6307 C   0  0  0  0  0  0  0  0  0  0  0  0
   -0.8702    1.3323   -1.9975 C   0  0  0  0  0  0  0  0  0  0  0  0
   -1.9741    1.1188   -1.1749 C   0  0  0  0  0  0  0  0  0  0  0  0
   -1.8572    0.4599    0.0337 C   0  0  0  0  0  0  0  0  0  0  0  0
   -0.5985    0.0127    0.4116 C   0  0  0  0  0  0  0  0  0  0  0  0
   -0.8352   -3.2102    2.2153 H   0  0  0  0  0  0  0  0  0  0  0  0
   -2.3000   -2.8052    3.1201 H   0  0  0  0  0  0  0  0  0  0  0  0
   -2.2098   -2.4807    1.3838 H   0  0  0  0  0  0  0  0  0  0  0  0
   -0.5175   -1.1094    3.5383 H   0  0  0  0  0  0  0  0  0  0  0  0
   -1.8960   -0.3779    2.7044 H   0  0  0  0  0  0  0  0  0  0  0  0
    1.6005   -1.9954    3.2727 H   0  0  0  0  0  0  0  0  0  0  0  0
    3.9806   -2.1999    2.6982 H   0  0  0  0  0  0  0  0  0  0  0  0
    4.8688   -1.2652    0.6172 H   0  0  0  0  0  0  0  0  0  0  0  0
    3.3848   -0.0869   -0.9715 H   0  0  0  0  0  0  0  0  0  0  0  0
    1.2393    1.0516   -2.2693 H   0  0  0  0  0  0  0  0  0  0  0  0
   -1.0039    1.8511   -2.9352 H   0  0  0  0  0  0  0  0  0  0  0  0
   -2.9441    1.4745   -1.4906 H   0  0  0  0  0  0  0  0  0  0  0  0
   -2.7250    0.2998    0.6562 H   0  0  0  0  0  0  0  0  0  0  0  0
  1  2  1  0  0  0  0
  2  3  1  0  0  0  0
  3  4  1  0  0  0  0
  4  5  2  0  0  0  0
  5  6  1  0  0  0  0
  6  7  2  0  0  0  0
  7  8  1  0  0  0  0
  8  9  2  0  0  0  0
  9 10  1  0  0  0  0
 10 11  2  0  0  0  0
 11 12  1  0  0  0  0
 12 13  2  0  0  0  0
 13 14  1  0  0  0  0
 14 15  2  0  0  0  0
 15  3  1  0  0  0  0
  9  4  1  0  0  0  0
 15 10  1  0  0  0  0
  1 16  1  0  0  0  0
  1 17  1  0  0  0  0
  1 18  1  0  0  0  0
  2 19  1  0  0  0  0
  2 20  1  0  0  0  0
  5 21  1  0  0  0  0
  6 22  1  0  0  0  0
  7 23  1  0  0  0  0
  8 24  1  0  0  0  0
 11 25  1  0  0  0  0
 12 26  1  0  0  0  0
 13 27  1  0  0  0  0
 14 28  1  0  0  0  0
M  END
