
  xtb     01172214243D
 energy: -38.610491676254 gnorm: 0.000723209738 xtb: 6.4.1 (unknown)
 19 20  0     0  0            999 V2000
    3.4245    0.0258    1.5780 C   0  0  0  0  0  0  0  0  0  0  0  0
    2.2299   -0.1327    1.0102 C   0  0  0  0  0  0  0  0  0  0  0  0
    2.0547   -0.8460   -0.3071 C   0  0  0  0  0  0  0  0  0  0  0  0
    2.9347   -1.3342   -0.9721 O   0  0  0  0  0  0  0  0  0  0  0  0
    0.6127   -0.8011   -0.5689 C   0  0  0  0  0  0  0  0  0  0  0  0
   -0.2817   -1.2366   -1.5605 C   0  0  0  0  0  0  0  0  0  0  0  0
   -1.5641   -0.8921   -1.2483 C   0  0  0  0  0  0  0  0  0  0  0  0
   -1.7179   -0.0380    0.2435 S   0  0  0  0  0  0  0  0  0  0  0  0
   -0.0212   -0.1335    0.4752 C   0  0  0  0  0  0  0  0  0  0  0  0
    0.9051    0.3033    1.4760 C   0  0  0  0  0  0  0  0  0  0  0  0
    0.5922    0.9842    2.6186 C   0  0  0  0  0  0  0  0  0  0  0  0
   -0.7455    1.3270    2.9160 C   0  0  0  0  0  0  0  0  0  0  0  0
   -1.8309    1.6073    3.1575 N   0  0  0  0  0  0  0  0  0  0  0  0
    1.5273    1.4028    3.5866 C   0  0  0  0  0  0  0  0  0  0  0  0
    2.2542    1.7607    4.3986 N   0  0  0  0  0  0  0  0  0  0  0  0
    4.2925   -0.3712    1.0758 H   0  0  0  0  0  0  0  0  0  0  0  0
    3.5782    0.5289    2.5165 H   0  0  0  0  0  0  0  0  0  0  0  0
    0.0051   -1.7704   -2.4475 H   0  0  0  0  0  0  0  0  0  0  0  0
   -2.4512   -1.0924   -1.8171 H   0  0  0  0  0  0  0  0  0  0  0  0
  1  2  2  0  0  0  0
  2  3  1  0  0  0  0
  3  4  2  0  0  0  0
  3  5  1  0  0  0  0
  5  6  1  0  0  0  0
  6  7  2  0  0  0  0
  7  8  1  0  0  0  0
  8  9  1  0  0  0  0
  9 10  1  0  0  0  0
 10 11  2  0  0  0  0
 11 12  1  0  0  0  0
 12 13  3  0  0  0  0
 11 14  1  0  0  0  0
 14 15  3  0  0  0  0
 10  2  1  0  0  0  0
  9  5  2  0  0  0  0
  1 16  1  0  0  0  0
  1 17  1  0  0  0  0
  6 18  1  0  0  0  0
  7 19  1  0  0  0  0
M  END
