
  xtb     01172214243D
 energy: -38.611195487209 gnorm: 0.000975843377 xtb: 6.4.1 (unknown)
 19 20  0     0  0            999 V2000
   -1.1614   -1.3002    2.2999 C   0  0  0  0  0  0  0  0  0  0  0  0
   -0.0518   -1.0492    1.6058 C   0  0  0  0  0  0  0  0  0  0  0  0
    0.9574   -2.1305    1.3095 C   0  0  0  0  0  0  0  0  0  0  0  0
    0.8834   -3.2875    1.6440 O   0  0  0  0  0  0  0  0  0  0  0  0
    1.9925   -1.4436    0.5507 C   0  0  0  0  0  0  0  0  0  0  0  0
    3.4768   -1.8722   -0.1786 S   0  0  0  0  0  0  0  0  0  0  0  0
    3.6904   -0.2461   -0.7112 C   0  0  0  0  0  0  0  0  0  0  0  0
    2.6783    0.5934   -0.3527 C   0  0  0  0  0  0  0  0  0  0  0  0
    1.6896   -0.0942    0.3796 C   0  0  0  0  0  0  0  0  0  0  0  0
    0.4281    0.2061    1.0150 C   0  0  0  0  0  0  0  0  0  0  0  0
   -0.1809    1.4268    1.0458 C   0  0  0  0  0  0  0  0  0  0  0  0
    0.3944    2.5618    0.4320 C   0  0  0  0  0  0  0  0  0  0  0  0
    0.8497    3.4910   -0.0625 N   0  0  0  0  0  0  0  0  0  0  0  0
   -1.4166    1.6947    1.6719 C   0  0  0  0  0  0  0  0  0  0  0  0
   -2.4171    1.9589    2.1670 N   0  0  0  0  0  0  0  0  0  0  0  0
   -1.3333   -2.3040    2.6548 H   0  0  0  0  0  0  0  0  0  0  0  0
   -1.9019   -0.5555    2.5328 H   0  0  0  0  0  0  0  0  0  0  0  0
    4.5706    0.0037   -1.2712 H   0  0  0  0  0  0  0  0  0  0  0  0
    2.6503    1.6381   -0.6015 H   0  0  0  0  0  0  0  0  0  0  0  0
  1  2  2  0  0  0  0
  2  3  1  0  0  0  0
  3  4  2  0  0  0  0
  3  5  1  0  0  0  0
  5  6  1  0  0  0  0
  6  7  1  0  0  0  0
  7  8  2  0  0  0  0
  8  9  1  0  0  0  0
  9 10  1  0  0  0  0
 10 11  2  0  0  0  0
 11 12  1  0  0  0  0
 12 13  3  0  0  0  0
 11 14  1  0  0  0  0
 14 15  3  0  0  0  0
 10  2  1  0  0  0  0
  9  5  2  0  0  0  0
  1 16  1  0  0  0  0
  1 17  1  0  0  0  0
  7 18  1  0  0  0  0
  8 19  1  0  0  0  0
M  END
