
  xtb     01172214243D
 energy: -42.655195500371 gnorm: 0.000759021749 xtb: 6.4.1 (unknown)
 19 20  0     0  0            999 V2000
   -1.7597   -0.0171    0.0079 C   0  0  0  0  0  0  0  0  0  0  0  0
   -0.5065   -0.2759    0.3792 C   0  0  0  0  0  0  0  0  0  0  0  0
    0.0629   -1.6707    0.3651 C   0  0  0  0  0  0  0  0  0  0  0  0
   -0.5167   -2.6737    0.0330 O   0  0  0  0  0  0  0  0  0  0  0  0
    1.4456   -1.5154    0.8377 C   0  0  0  0  0  0  0  0  0  0  0  0
    2.5526   -2.3411    1.0801 C   0  0  0  0  0  0  0  0  0  0  0  0
    3.6166   -1.6067    1.5317 C   0  0  0  0  0  0  0  0  0  0  0  0
    5.1535   -2.2053    1.9466 Cl  0  0  0  0  0  0  0  0  0  0  0  0
    3.2865    0.1035    1.6687 S   0  0  0  0  0  0  0  0  0  0  0  0
    1.6868   -0.1723    1.1083 C   0  0  0  0  0  0  0  0  0  0  0  0
    0.5396    0.6435    0.8513 C   0  0  0  0  0  0  0  0  0  0  0  0
    0.4629    1.9977    1.0200 C   0  0  0  0  0  0  0  0  0  0  0  0
   -0.6817    2.7774    0.7584 C   0  0  0  0  0  0  0  0  0  0  0  0
   -1.5885    3.4509    0.5598 N   0  0  0  0  0  0  0  0  0  0  0  0
    1.5742    2.7340    1.4872 C   0  0  0  0  0  0  0  0  0  0  0  0
    2.4744    3.3346    1.8664 N   0  0  0  0  0  0  0  0  0  0  0  0
   -2.3843   -0.8357   -0.3128 H   0  0  0  0  0  0  0  0  0  0  0  0
   -2.1906    0.9687    0.0084 H   0  0  0  0  0  0  0  0  0  0  0  0
    2.5712   -3.4047    0.9341 H   0  0  0  0  0  0  0  0  0  0  0  0
  1  2  2  0  0  0  0
  2  3  1  0  0  0  0
  3  4  2  0  0  0  0
  3  5  1  0  0  0  0
  5  6  1  0  0  0  0
  6  7  2  0  0  0  0
  7  8  1  0  0  0  0
  7  9  1  0  0  0  0
  9 10  1  0  0  0  0
 10 11  1  0  0  0  0
 11 12  2  0  0  0  0
 12 13  1  0  0  0  0
 13 14  3  0  0  0  0
 12 15  1  0  0  0  0
 15 16  3  0  0  0  0
 11  2  1  0  0  0  0
 10  5  2  0  0  0  0
  1 17  1  0  0  0  0
  1 18  1  0  0  0  0
  6 19  1  0  0  0  0
M  END
