
  xtb     01172214253D
 energy: -94.773319874745 gnorm: 0.000950939590 xtb: 6.4.1 (unknown)
 57 64  0     0  0            999 V2000
    7.6895    0.0277    1.8517 C   0  0  0  0  0  0  0  0  0  0  0  0
    7.5181    0.0135    0.3323 C   0  0  0  0  0  0  0  0  0  0  0  0
    6.3946   -0.8899   -0.0661 C   0  0  0  0  0  0  0  0  0  0  0  0
    6.5534   -2.1330   -0.5899 C   0  0  0  0  0  0  0  0  0  0  0  0
    4.9505   -3.0257   -0.9386 Se  0  0  0  0  0  2  0  0  0  0  0  0
    4.0956   -1.4962   -0.2828 C   0  0  0  0  0  0  0  0  0  0  0  0
    5.0312   -0.5400    0.1063 C   0  0  0  0  0  0  0  0  0  0  0  0
    4.3085    0.9257    0.7269 S   0  0  0  0  0  0  0  0  0  0  0  0
    2.7432    0.2420    0.4624 C   0  0  0  0  0  0  0  0  0  0  0  0
    1.3897    0.5660    0.6530 C   0  0  0  0  0  0  0  0  0  0  0  0
    0.8055    1.7121    1.2297 C   0  0  0  0  0  0  0  0  0  0  0  0
    1.4014    2.7949    1.7049 N   0  0  0  0  0  0  0  0  0  0  0  0
    0.2624    3.7887    2.2886 S   0  0  0  0  0  0  0  0  0  0  0  0
   -1.0337    2.8748    1.9563 N   0  0  0  0  0  0  0  0  0  0  0  0
   -0.6189    1.7595    1.3755 C   0  0  0  0  0  0  0  0  0  0  0  0
   -1.3865    0.6839    0.8840 C   0  0  0  0  0  0  0  0  0  0  0  0
   -2.7805    0.5161    0.8390 C   0  0  0  0  0  0  0  0  0  0  0  0
   -4.2210    1.3497    1.3061 S   0  0  0  0  0  0  0  0  0  0  0  0
   -5.1706    0.0634    0.5983 C   0  0  0  0  0  0  0  0  0  0  0  0
   -6.5765   -0.0934    0.5003 C   0  0  0  0  0  0  0  0  0  0  0  0
   -7.5431    0.8925    1.0752 C   0  0  0  0  0  0  0  0  0  0  0  0
   -7.6197    0.7550    2.5961 C   0  0  0  0  0  0  0  0  0  0  0  0
   -6.9317   -1.2393   -0.1368 C   0  0  0  0  0  0  0  0  0  0  0  0
   -5.4870   -2.2778   -0.7039 Se  0  0  0  0  0  2  0  0  0  0  0  0
   -4.3969   -0.9515    0.0394 C   0  0  0  0  0  0  0  0  0  0  0  0
   -3.0230   -0.6865    0.1831 C   0  0  0  0  0  0  0  0  0  0  0  0
   -1.8378   -1.2669   -0.1779 N   0  0  0  0  0  0  0  0  0  0  0  0
   -1.8850   -2.4819   -0.9514 C   0  0  0  0  0  0  0  0  0  0  0  0
   -2.0954   -3.7093   -0.0638 C   0  0  0  0  0  0  0  0  0  0  0  0
   -0.8022   -0.4559    0.2591 C   0  0  0  0  0  0  0  0  0  0  0  0
    0.6200   -0.5422    0.1941 C   0  0  0  0  0  0  0  0  0  0  0  0
    1.5083   -1.5183   -0.2296 N   0  0  0  0  0  0  0  0  0  0  0  0
    1.3443   -2.8723   -0.6955 C   0  0  0  0  0  0  0  0  0  0  0  0
    1.4429   -2.9626   -2.2188 C   0  0  0  0  0  0  0  0  0  0  0  0
    2.7811   -1.0395   -0.0778 C   0  0  0  0  0  0  0  0  0  0  0  0
    6.7776    0.3741    2.3310 H   0  0  0  0  0  0  0  0  0  0  0  0
    7.9158   -0.9717    2.2168 H   0  0  0  0  0  0  0  0  0  0  0  0
    8.5023    0.6931    2.1319 H   0  0  0  0  0  0  0  0  0  0  0  0
    7.2967    1.0260   -0.0132 H   0  0  0  0  0  0  0  0  0  0  0  0
    8.4428   -0.3220   -0.1405 H   0  0  0  0  0  0  0  0  0  0  0  0
    7.4877   -2.6173   -0.8077 H   0  0  0  0  0  0  0  0  0  0  0  0
   -7.2102    1.9018    0.8225 H   0  0  0  0  0  0  0  0  0  0  0  0
   -8.5311    0.7323    0.6403 H   0  0  0  0  0  0  0  0  0  0  0  0
   -8.3228    1.4771    3.0037 H   0  0  0  0  0  0  0  0  0  0  0  0
   -7.9493   -0.2450    2.8697 H   0  0  0  0  0  0  0  0  0  0  0  0
   -6.6438    0.9327    3.0404 H   0  0  0  0  0  0  0  0  0  0  0  0
   -7.9340   -1.5728   -0.3350 H   0  0  0  0  0  0  0  0  0  0  0  0
   -2.7427   -2.3958   -1.6320 H   0  0  0  0  0  0  0  0  0  0  0  0
   -0.9931   -2.5693   -1.5649 H   0  0  0  0  0  0  0  0  0  0  0  0
   -1.3601   -3.7514    0.7372 H   0  0  0  0  0  0  0  0  0  0  0  0
   -3.0831   -3.6699    0.3925 H   0  0  0  0  0  0  0  0  0  0  0  0
   -2.0272   -4.6161   -0.6587 H   0  0  0  0  0  0  0  0  0  0  0  0
    2.1626   -3.4619   -0.2607 H   0  0  0  0  0  0  0  0  0  0  0  0
    0.4129   -3.2867   -0.3206 H   0  0  0  0  0  0  0  0  0  0  0  0
    0.7563   -2.2714   -2.7040 H   0  0  0  0  0  0  0  0  0  0  0  0
    1.2216   -3.9743   -2.5476 H   0  0  0  0  0  0  0  0  0  0  0  0
    2.4520   -2.7089   -2.5392 H   0  0  0  0  0  0  0  0  0  0  0  0
  1  2  1  0  0  0  0
  2  3  1  0  0  0  0
  3  4  2  0  0  0  0
  4  5  1  0  0  0  0
  5  6  1  0  0  0  0
  6  7  2  0  0  0  0
  7  8  1  0  0  0  0
  8  9  1  0  0  0  0
  9 10  1  0  0  0  0
 10 11  1  0  0  0  0
 11 12  2  0  0  0  0
 12 13  1  0  0  0  0
 13 14  1  0  0  0  0
 14 15  2  0  0  0  0
 15 16  1  0  0  0  0
 16 17  1  0  0  0  0
 17 18  1  0  0  0  0
 18 19  1  0  0  0  0
 19 20  1  0  0  0  0
 20 21  1  0  0  0  0
 21 22  1  0  0  0  0
 20 23  2  0  0  0  0
 23 24  1  0  0  0  0
 24 25  1  0  0  0  0
 25 26  1  0  0  0  0
 26 27  1  0  0  0  0
 27 28  1  0  0  0  0
 28 29  1  0  0  0  0
 27 30  1  0  0  0  0
 30 31  1  0  0  0  0
 31 32  1  0  0  0  0
 32 33  1  0  0  0  0
 33 34  1  0  0  0  0
 32 35  1  0  0  0  0
  7  3  1  0  0  0  0
 35  9  2  0  0  0  0
 35  6  1  0  0  0  0
 31 10  2  0  0  0  0
 15 11  1  0  0  0  0
 30 16  2  0  0  0  0
 26 17  2  0  0  0  0
 25 19  2  0  0  0  0
  1 36  1  0  0  0  0
  1 37  1  0  0  0  0
  1 38  1  0  0  0  0
  2 39  1  0  0  0  0
  2 40  1  0  0  0  0
  4 41  1  0  0  0  0
 21 42  1  0  0  0  0
 21 43  1  0  0  0  0
 22 44  1  0  0  0  0
 22 45  1  0  0  0  0
 22 46  1  0  0  0  0
 23 47  1  0  0  0  0
 28 48  1  0  0  0  0
 28 49  1  0  0  0  0
 29 50  1  0  0  0  0
 29 51  1  0  0  0  0
 29 52  1  0  0  0  0
 33 53  1  0  0  0  0
 33 54  1  0  0  0  0
 34 55  1  0  0  0  0
 34 56  1  0  0  0  0
 34 57  1  0  0  0  0
M  END
