
  xtb     01172214253D
 energy: -32.996383146253 gnorm: 0.000933655155 xtb: 6.4.1 (unknown)
 15 16  0     0  0            999 V2000
   -1.5187    0.0981    3.7821 N   0  0  0  0  0  0  0  0  0  0  0  0
   -0.7016    0.0778    2.9799 C   0  0  0  0  0  0  0  0  0  0  0  0
    0.3242    0.0420    2.0040 C   0  0  0  0  0  0  0  0  0  0  0  0
    1.5372   -0.5299    2.3125 C   0  0  0  0  0  0  0  0  0  0  0  0
    2.5273   -0.5472    1.3203 C   0  0  0  0  0  0  0  0  0  0  0  0
    3.7613   -1.0481    1.4087 N   0  0  0  0  0  0  0  0  0  0  0  0
    4.5082   -0.8270    0.0092 S   0  0  0  0  0  0  0  0  0  0  0  0
    3.3293   -0.0912   -0.7872 N   0  0  0  0  0  0  0  0  0  0  0  0
    2.2713    0.0199    0.0189 C   0  0  0  0  0  0  0  0  0  0  0  0
    1.0285    0.5984   -0.2743 C   0  0  0  0  0  0  0  0  0  0  0  0
    0.0706    0.6055    0.7135 C   0  0  0  0  0  0  0  0  0  0  0  0
   -1.1975    1.1810    0.4557 C   0  0  0  0  0  0  0  0  0  0  0  0
   -2.2165    1.6513    0.2284 N   0  0  0  0  0  0  0  0  0  0  0  0
    1.7292   -0.9542    3.2851 H   0  0  0  0  0  0  0  0  0  0  0  0
    0.8379    1.0225   -1.2474 H   0  0  0  0  0  0  0  0  0  0  0  0
  1  2  3  0  0  0  0
  2  3  1  0  0  0  0
  3  4  2  0  0  0  0
  4  5  1  0  0  0  0
  5  6  2  0  0  0  0
  6  7  1  0  0  0  0
  7  8  1  0  0  0  0
  8  9  2  0  0  0  0
  9 10  1  0  0  0  0
 10 11  2  0  0  0  0
 11 12  1  0  0  0  0
 12 13  3  0  0  0  0
 11  3  1  0  0  0  0
  9  5  1  0  0  0  0
  4 14  1  0  0  0  0
 10 15  1  0  0  0  0
M  END
