
  xtb     01172214253D
 energy: -145.803116096232 gnorm: 0.000156357775 xtb: 6.4.1 (unknown)
 98108  0     0  0            999 V2000
    1.4993    6.3326    2.4009 C   0  0  0  0  0  0  0  0  0  0  0  0
    2.3038    5.5200    3.4173 C   0  0  0  0  0  0  0  0  0  0  0  0
    2.1045    4.0488    3.1912 C   0  0  0  0  0  0  0  0  0  0  0  0
    2.9321    3.3422    2.3279 C   0  0  0  0  0  0  0  0  0  0  0  0
    2.7339    1.9944    2.0982 C   0  0  0  0  0  0  0  0  0  0  0  0
    1.6988    1.3136    2.7286 C   0  0  0  0  0  0  0  0  0  0  0  0
    1.4773   -0.1589    2.4485 C   0  0  0  0  0  0  0  0  0  0  0  0
    2.7761   -0.9447    2.4163 C   0  0  0  0  0  0  0  0  0  0  0  0
    2.9236   -2.0438    1.5809 C   0  0  0  0  0  0  0  0  0  0  0  0
    4.0926   -2.7816    1.5918 C   0  0  0  0  0  0  0  0  0  0  0  0
    5.1387   -2.4523    2.4429 C   0  0  0  0  0  0  0  0  0  0  0  0
    6.4274   -3.2224    2.4107 C   0  0  0  0  0  0  0  0  0  0  0  0
    7.3843   -2.6166    1.3817 C   0  0  0  0  0  0  0  0  0  0  0  0
    4.9797   -1.3633    3.2896 C   0  0  0  0  0  0  0  0  0  0  0  0
    3.8136   -0.6219    3.2817 C   0  0  0  0  0  0  0  0  0  0  0  0
    0.6717   -0.3030    1.1646 C   0  0  0  0  0  0  0  0  0  0  0  0
    1.0079    0.1150   -0.1027 C   0  0  0  0  0  0  0  0  0  0  0  0
    0.1070   -0.1652   -1.1244 C   0  0  0  0  0  0  0  0  0  0  0  0
   -1.1145   -0.8309   -0.8803 C   0  0  0  0  0  0  0  0  0  0  0  0
   -1.4511   -1.2482    0.3876 C   0  0  0  0  0  0  0  0  0  0  0  0
   -0.5440   -0.9793    1.4062 C   0  0  0  0  0  0  0  0  0  0  0  0
   -0.5710   -1.2928    2.8054 C   0  0  0  0  0  0  0  0  0  0  0  0
   -1.6803   -2.1205    3.8558 S   0  0  0  0  0  0  0  0  0  0  0  0
   -0.5855   -1.8320    5.1645 C   0  0  0  0  0  0  0  0  0  0  0  0
   -0.6497   -2.2347    6.8370 S   0  0  0  0  0  0  0  0  0  0  0  0
    0.8892   -1.4635    7.0709 C   0  0  0  0  0  0  0  0  0  0  0  0
    1.4132   -0.9353    5.9415 C   0  0  0  0  0  0  0  0  0  0  0  0
    0.5739   -1.1377    4.8145 C   0  0  0  0  0  0  0  0  0  0  0  0
    0.5590   -0.8317    3.4371 C   0  0  0  0  0  0  0  0  0  0  0  0
   -1.8944   -1.0266   -2.1709 C   0  0  0  0  0  0  0  0  0  0  0  0
   -3.1755   -0.2172   -2.2495 C   0  0  0  0  0  0  0  0  0  0  0  0
   -4.0735   -0.4763   -3.2785 C   0  0  0  0  0  0  0  0  0  0  0  0
   -5.2160    0.2860   -3.4206 C   0  0  0  0  0  0  0  0  0  0  0  0
   -5.4920    1.3268   -2.5426 C   0  0  0  0  0  0  0  0  0  0  0  0
   -6.7112    2.1836   -2.7301 C   0  0  0  0  0  0  0  0  0  0  0  0
   -6.4089    3.3394   -3.6860 C   0  0  0  0  0  0  0  0  0  0  0  0
   -4.5878    1.5860   -1.5224 C   0  0  0  0  0  0  0  0  0  0  0  0
   -3.4397    0.8276   -1.3765 C   0  0  0  0  0  0  0  0  0  0  0  0
   -2.1456   -2.5078   -2.3643 C   0  0  0  0  0  0  0  0  0  0  0  0
   -1.2365   -3.3068   -3.0428 C   0  0  0  0  0  0  0  0  0  0  0  0
   -1.4564   -4.6658   -3.1719 C   0  0  0  0  0  0  0  0  0  0  0  0
   -2.5803   -5.2629   -2.6180 C   0  0  0  0  0  0  0  0  0  0  0  0
   -2.8409   -6.7307   -2.7992 C   0  0  0  0  0  0  0  0  0  0  0  0
   -3.6446   -6.9766   -4.0776 C   0  0  0  0  0  0  0  0  0  0  0  0
   -3.4822   -4.4606   -1.9312 C   0  0  0  0  0  0  0  0  0  0  0  0
   -3.2686   -3.1018   -1.8021 C   0  0  0  0  0  0  0  0  0  0  0  0
   -0.9399   -0.4282   -3.1705 C   0  0  0  0  0  0  0  0  0  0  0  0
    0.1727    0.0801   -2.5352 C   0  0  0  0  0  0  0  0  0  0  0  0
    1.3106    0.8333   -3.6046 S   0  0  0  0  0  0  0  0  0  0  0  0
    0.2686    0.4638   -4.9454 C   0  0  0  0  0  0  0  0  0  0  0  0
    0.3472    0.6876   -6.3335 C   0  0  0  0  0  0  0  0  0  0  0  0
   -0.7422    0.1903   -6.9732 C   0  0  0  0  0  0  0  0  0  0  0  0
   -1.8913   -0.5601   -5.9144 S   0  0  0  0  0  0  0  0  0  0  0  0
   -0.8925   -0.2051   -4.5513 C   0  0  0  0  0  0  0  0  0  0  0  0
    0.8580    2.0207    3.5765 C   0  0  0  0  0  0  0  0  0  0  0  0
    1.0622    3.3692    3.8058 C   0  0  0  0  0  0  0  0  0  0  0  0
    1.8135    6.0889    1.3884 H   0  0  0  0  0  0  0  0  0  0  0  0
    0.4389    6.1082    2.4921 H   0  0  0  0  0  0  0  0  0  0  0  0
    1.6449    7.3981    2.5638 H   0  0  0  0  0  0  0  0  0  0  0  0
    3.3625    5.7694    3.3200 H   0  0  0  0  0  0  0  0  0  0  0  0
    1.9815    5.7862    4.4262 H   0  0  0  0  0  0  0  0  0  0  0  0
    3.7473    3.8524    1.8343 H   0  0  0  0  0  0  0  0  0  0  0  0
    3.4018    1.4611    1.4372 H   0  0  0  0  0  0  0  0  0  0  0  0
    2.1213   -2.3249    0.9143 H   0  0  0  0  0  0  0  0  0  0  0  0
    4.1909   -3.6299    0.9293 H   0  0  0  0  0  0  0  0  0  0  0  0
    6.8975   -3.2011    3.3960 H   0  0  0  0  0  0  0  0  0  0  0  0
    6.2297   -4.2637    2.1483 H   0  0  0  0  0  0  0  0  0  0  0  0
    8.3167   -3.1758    1.3519 H   0  0  0  0  0  0  0  0  0  0  0  0
    6.9351   -2.6361    0.3912 H   0  0  0  0  0  0  0  0  0  0  0  0
    7.6069   -1.5825    1.6354 H   0  0  0  0  0  0  0  0  0  0  0  0
    5.7783   -1.0928    3.9662 H   0  0  0  0  0  0  0  0  0  0  0  0
    3.7144    0.2255    3.9447 H   0  0  0  0  0  0  0  0  0  0  0  0
    1.9356    0.6250   -0.3112 H   0  0  0  0  0  0  0  0  0  0  0  0
   -2.3736   -1.7702    0.5906 H   0  0  0  0  0  0  0  0  0  0  0  0
    1.3055   -1.4575    8.0588 H   0  0  0  0  0  0  0  0  0  0  0  0
    2.3556   -0.4218    5.9002 H   0  0  0  0  0  0  0  0  0  0  0  0
   -3.8759   -1.2834   -3.9691 H   0  0  0  0  0  0  0  0  0  0  0  0
   -5.9036    0.0697   -4.2258 H   0  0  0  0  0  0  0  0  0  0  0  0
   -7.5262    1.5829   -3.1393 H   0  0  0  0  0  0  0  0  0  0  0  0
   -7.0331    2.5869   -1.7678 H   0  0  0  0  0  0  0  0  0  0  0  0
   -6.0951    2.9563   -4.6545 H   0  0  0  0  0  0  0  0  0  0  0  0
   -5.6078    3.9586   -3.2884 H   0  0  0  0  0  0  0  0  0  0  0  0
   -7.2913    3.9595   -3.8263 H   0  0  0  0  0  0  0  0  0  0  0  0
   -4.7813    2.3935   -0.8304 H   0  0  0  0  0  0  0  0  0  0  0  0
   -2.7478    1.0523   -0.5779 H   0  0  0  0  0  0  0  0  0  0  0  0
   -0.3496   -2.8663   -3.4749 H   0  0  0  0  0  0  0  0  0  0  0  0
   -0.7400   -5.2721   -3.7082 H   0  0  0  0  0  0  0  0  0  0  0  0
   -1.8938   -7.2707   -2.8601 H   0  0  0  0  0  0  0  0  0  0  0  0
   -3.3993   -7.1158   -1.9435 H   0  0  0  0  0  0  0  0  0  0  0  0
   -3.8355   -8.0391   -4.2100 H   0  0  0  0  0  0  0  0  0  0  0  0
   -3.0980   -6.6106   -4.9439 H   0  0  0  0  0  0  0  0  0  0  0  0
   -4.5980   -6.4550   -4.0304 H   0  0  0  0  0  0  0  0  0  0  0  0
   -4.3624   -4.9058   -1.4890 H   0  0  0  0  0  0  0  0  0  0  0  0
   -3.9860   -2.4942   -1.2694 H   0  0  0  0  0  0  0  0  0  0  0  0
    1.1631    1.1864   -6.8231 H   0  0  0  0  0  0  0  0  0  0  0  0
   -0.9554    0.2149   -8.0233 H   0  0  0  0  0  0  0  0  0  0  0  0
    0.0398    1.5162    4.0689 H   0  0  0  0  0  0  0  0  0  0  0  0
    0.4027    3.8996    4.4783 H   0  0  0  0  0  0  0  0  0  0  0  0
  1  2  1  0  0  0  0
  2  3  1  0  0  0  0
  3  4  2  0  0  0  0
  4  5  1  0  0  0  0
  5  6  2  0  0  0  0
  6  7  1  0  0  0  0
  7  8  1  0  0  0  0
  8  9  2  0  0  0  0
  9 10  1  0  0  0  0
 10 11  2  0  0  0  0
 11 12  1  0  0  0  0
 12 13  1  0  0  0  0
 11 14  1  0  0  0  0
 14 15  2  0  0  0  0
  7 16  1  0  0  0  0
 16 17  2  0  0  0  0
 17 18  1  0  0  0  0
 18 19  2  0  0  0  0
 19 20  1  0  0  0  0
 20 21  2  0  0  0  0
 21 22  1  0  0  0  0
 22 23  1  0  0  0  0
 23 24  1  0  0  0  0
 24 25  1  0  0  0  0
 25 26  1  0  0  0  0
 26 27  2  0  0  0  0
 27 28  1  0  0  0  0
 28 29  1  0  0  0  0
 19 30  1  0  0  0  0
 30 31  1  0  0  0  0
 31 32  2  0  0  0  0
 32 33  1  0  0  0  0
 33 34  2  0  0  0  0
 34 35  1  0  0  0  0
 35 36  1  0  0  0  0
 34 37  1  0  0  0  0
 37 38  2  0  0  0  0
 30 39  1  0  0  0  0
 39 40  2  0  0  0  0
 40 41  1  0  0  0  0
 41 42  2  0  0  0  0
 42 43  1  0  0  0  0
 43 44  1  0  0  0  0
 42 45  1  0  0  0  0
 45 46  2  0  0  0  0
 30 47  1  0  0  0  0
 47 48  2  0  0  0  0
 48 49  1  0  0  0  0
 49 50  1  0  0  0  0
 50 51  1  0  0  0  0
 51 52  2  0  0  0  0
 52 53  1  0  0  0  0
 53 54  1  0  0  0  0
  6 55  1  0  0  0  0
 55 56  2  0  0  0  0
 56  3  1  0  0  0  0
 29  7  1  0  0  0  0
 38 31  1  0  0  0  0
 46 39  1  0  0  0  0
 54 47  1  0  0  0  0
 15  8  1  0  0  0  0
 21 16  1  0  0  0  0
 29 22  2  0  0  0  0
 54 50  2  0  0  0  0
 48 18  1  0  0  0  0
 28 24  2  0  0  0  0
  1 57  1  0  0  0  0
  1 58  1  0  0  0  0
  1 59  1  0  0  0  0
  2 60  1  0  0  0  0
  2 61  1  0  0  0  0
  4 62  1  0  0  0  0
  5 63  1  0  0  0  0
  9 64  1  0  0  0  0
 10 65  1  0  0  0  0
 12 66  1  0  0  0  0
 12 67  1  0  0  0  0
 13 68  1  0  0  0  0
 13 69  1  0  0  0  0
 13 70  1  0  0  0  0
 14 71  1  0  0  0  0
 15 72  1  0  0  0  0
 17 73  1  0  0  0  0
 20 74  1  0  0  0  0
 26 75  1  0  0  0  0
 27 76  1  0  0  0  0
 32 77  1  0  0  0  0
 33 78  1  0  0  0  0
 35 79  1  0  0  0  0
 35 80  1  0  0  0  0
 36 81  1  0  0  0  0
 36 82  1  0  0  0  0
 36 83  1  0  0  0  0
 37 84  1  0  0  0  0
 38 85  1  0  0  0  0
 40 86  1  0  0  0  0
 41 87  1  0  0  0  0
 43 88  1  0  0  0  0
 43 89  1  0  0  0  0
 44 90  1  0  0  0  0
 44 91  1  0  0  0  0
 44 92  1  0  0  0  0
 45 93  1  0  0  0  0
 46 94  1  0  0  0  0
 51 95  1  0  0  0  0
 52 96  1  0  0  0  0
 55 97  1  0  0  0  0
 56 98  1  0  0  0  0
M  END
