
  xtb     01172214263D
 energy: -159.424144563882 gnorm: 0.000263647104 xtb: 6.4.1 (unknown)
100111  0     0  0            999 V2000
    2.6794    2.3015    5.3491 C   0  0  0  0  0  0  0  0  0  0  0  0
    4.0470    1.9039    4.7888 C   0  0  0  0  0  0  0  0  0  0  0  0
    3.8766    1.2044    3.4716 C   0  0  0  0  0  0  0  0  0  0  0  0
    3.6677   -0.1667    3.4194 C   0  0  0  0  0  0  0  0  0  0  0  0
    3.4329   -0.8069    2.2163 C   0  0  0  0  0  0  0  0  0  0  0  0
    3.4009   -0.0788    1.0362 C   0  0  0  0  0  0  0  0  0  0  0  0
    3.0477   -0.7180   -0.2943 C   0  0  0  0  0  0  0  0  0  0  0  0
    3.1808   -2.2350   -0.2602 C   0  0  0  0  0  0  0  0  0  0  0  0
    2.0939   -3.0692   -0.0400 C   0  0  0  0  0  0  0  0  0  0  0  0
    2.2629   -4.4413   -0.0126 C   0  0  0  0  0  0  0  0  0  0  0  0
    3.5127   -5.0122   -0.2116 C   0  0  0  0  0  0  0  0  0  0  0  0
    3.6977   -6.5006   -0.1381 C   0  0  0  0  0  0  0  0  0  0  0  0
    4.0010   -6.9295    1.2990 C   0  0  0  0  0  0  0  0  0  0  0  0
    4.5965   -4.1713   -0.4296 C   0  0  0  0  0  0  0  0  0  0  0  0
    4.4353   -2.7996   -0.4509 C   0  0  0  0  0  0  0  0  0  0  0  0
    3.9824   -0.2012   -1.2653 O   0  0  0  0  0  0  0  0  0  0  0  0
    3.6038   -0.2924   -2.5573 C   0  0  0  0  0  0  0  0  0  0  0  0
    2.2834   -0.2832   -2.9738 C   0  0  0  0  0  0  0  0  0  0  0  0
    2.1088   -0.3369   -4.7062 S   0  0  0  0  0  0  0  0  0  0  0  0
    3.8303   -0.3561   -4.8844 C   0  0  0  0  0  0  0  0  0  0  0  0
    4.7087   -0.4041   -5.9833 C   0  0  0  0  0  0  0  0  0  0  0  0
    6.0044   -0.4087   -5.5749 C   0  0  0  0  0  0  0  0  0  0  0  0
    6.1975   -0.3592   -3.8540 S   0  0  0  0  0  0  0  0  0  0  0  0
    4.4830   -0.3289   -3.6537 C   0  0  0  0  0  0  0  0  0  0  0  0
    1.2759   -0.1747   -1.9821 C   0  0  0  0  0  0  0  0  0  0  0  0
   -0.4054    0.2383   -2.2063 S   0  0  0  0  0  0  0  0  0  0  0  0
   -0.6307    0.2314   -0.4880 C   0  0  0  0  0  0  0  0  0  0  0  0
   -1.7254    0.4339    0.3616 C   0  0  0  0  0  0  0  0  0  0  0  0
   -1.3621    0.3022    1.6861 C   0  0  0  0  0  0  0  0  0  0  0  0
    0.3257   -0.0829    1.9117 S   0  0  0  0  0  0  0  0  0  0  0  0
    0.5539   -0.0686    0.1935 C   0  0  0  0  0  0  0  0  0  0  0  0
    1.6396   -0.3096   -0.6580 C   0  0  0  0  0  0  0  0  0  0  0  0
   -2.3319    0.5803    2.6824 C   0  0  0  0  0  0  0  0  0  0  0  0
   -2.2293    0.3360    4.4042 S   0  0  0  0  0  0  0  0  0  0  0  0
   -3.7844    1.0682    4.6063 C   0  0  0  0  0  0  0  0  0  0  0  0
   -4.6118    1.3396    5.7123 C   0  0  0  0  0  0  0  0  0  0  0  0
   -5.7679    1.9381    5.3240 C   0  0  0  0  0  0  0  0  0  0  0  0
   -5.8898    2.1852    3.6137 S   0  0  0  0  0  0  0  0  0  0  0  0
   -4.3365    1.4656    3.3902 C   0  0  0  0  0  0  0  0  0  0  0  0
   -3.5133    1.1840    2.2858 C   0  0  0  0  0  0  0  0  0  0  0  0
   -3.7912    1.5200    1.0086 O   0  0  0  0  0  0  0  0  0  0  0  0
   -3.1639    0.7090   -0.0075 C   0  0  0  0  0  0  0  0  0  0  0  0
   -3.9469   -0.5911   -0.1366 C   0  0  0  0  0  0  0  0  0  0  0  0
   -3.3298   -1.8010   -0.4212 C   0  0  0  0  0  0  0  0  0  0  0  0
   -4.0810   -2.9561   -0.5367 C   0  0  0  0  0  0  0  0  0  0  0  0
   -5.4583   -2.9339   -0.3639 C   0  0  0  0  0  0  0  0  0  0  0  0
   -6.2735   -4.1830   -0.5368 C   0  0  0  0  0  0  0  0  0  0  0  0
   -6.7091   -4.3360   -1.9956 C   0  0  0  0  0  0  0  0  0  0  0  0
   -6.0696   -1.7194   -0.0798 C   0  0  0  0  0  0  0  0  0  0  0  0
   -5.3254   -0.5608    0.0300 C   0  0  0  0  0  0  0  0  0  0  0  0
   -3.1811    1.5209   -1.2897 C   0  0  0  0  0  0  0  0  0  0  0  0
   -2.7666    2.8456   -1.2448 C   0  0  0  0  0  0  0  0  0  0  0  0
   -2.6860    3.5913   -2.4041 C   0  0  0  0  0  0  0  0  0  0  0  0
   -3.0095    3.0314   -3.6336 C   0  0  0  0  0  0  0  0  0  0  0  0
   -2.8386    3.8152   -4.9024 C   0  0  0  0  0  0  0  0  0  0  0  0
   -1.4257    3.6142   -5.4552 C   0  0  0  0  0  0  0  0  0  0  0  0
   -3.4333    1.7104   -3.6686 C   0  0  0  0  0  0  0  0  0  0  0  0
   -3.5210    0.9587   -2.5111 C   0  0  0  0  0  0  0  0  0  0  0  0
    3.6204    1.2918    1.0787 C   0  0  0  0  0  0  0  0  0  0  0  0
    3.8589    1.9233    2.2832 C   0  0  0  0  0  0  0  0  0  0  0  0
    2.0599    1.4194    5.4946 H   0  0  0  0  0  0  0  0  0  0  0  0
    2.1667    2.9652    4.6566 H   0  0  0  0  0  0  0  0  0  0  0  0
    2.7910    2.8119    6.3029 H   0  0  0  0  0  0  0  0  0  0  0  0
    4.6586    2.7990    4.6597 H   0  0  0  0  0  0  0  0  0  0  0  0
    4.5499    1.2443    5.4987 H   0  0  0  0  0  0  0  0  0  0  0  0
    3.6816   -0.7433    4.3331 H   0  0  0  0  0  0  0  0  0  0  0  0
    3.2650   -1.8732    2.1990 H   0  0  0  0  0  0  0  0  0  0  0  0
    1.1106   -2.6517    0.1180 H   0  0  0  0  0  0  0  0  0  0  0  0
    1.4073   -5.0781    0.1621 H   0  0  0  0  0  0  0  0  0  0  0  0
    4.5229   -6.8036   -0.7856 H   0  0  0  0  0  0  0  0  0  0  0  0
    2.7913   -7.0043   -0.4803 H   0  0  0  0  0  0  0  0  0  0  0  0
    3.1829   -6.6476    1.9582 H   0  0  0  0  0  0  0  0  0  0  0  0
    4.1370   -8.0071    1.3545 H   0  0  0  0  0  0  0  0  0  0  0  0
    4.9080   -6.4455    1.6542 H   0  0  0  0  0  0  0  0  0  0  0  0
    5.5786   -4.5949   -0.5841 H   0  0  0  0  0  0  0  0  0  0  0  0
    5.2842   -2.1532   -0.6183 H   0  0  0  0  0  0  0  0  0  0  0  0
    4.3945   -0.4313   -7.0099 H   0  0  0  0  0  0  0  0  0  0  0  0
    6.8833   -0.4382   -6.1875 H   0  0  0  0  0  0  0  0  0  0  0  0
   -4.3598    1.1058    6.7298 H   0  0  0  0  0  0  0  0  0  0  0  0
   -6.5789    2.2601    5.9463 H   0  0  0  0  0  0  0  0  0  0  0  0
   -2.2602   -1.8468   -0.5615 H   0  0  0  0  0  0  0  0  0  0  0  0
   -3.5864   -3.8905   -0.7612 H   0  0  0  0  0  0  0  0  0  0  0  0
   -7.1589   -4.1392    0.1005 H   0  0  0  0  0  0  0  0  0  0  0  0
   -5.6837   -5.0541   -0.2441 H   0  0  0  0  0  0  0  0  0  0  0  0
   -7.2971   -5.2416   -2.1250 H   0  0  0  0  0  0  0  0  0  0  0  0
   -7.3112   -3.4833   -2.3015 H   0  0  0  0  0  0  0  0  0  0  0  0
   -5.8388   -4.3903   -2.6460 H   0  0  0  0  0  0  0  0  0  0  0  0
   -7.1409   -1.6796    0.0563 H   0  0  0  0  0  0  0  0  0  0  0  0
   -5.8093    0.3798    0.2484 H   0  0  0  0  0  0  0  0  0  0  0  0
   -2.5059    3.2872   -0.2942 H   0  0  0  0  0  0  0  0  0  0  0  0
   -2.3581    4.6200   -2.3555 H   0  0  0  0  0  0  0  0  0  0  0  0
   -3.0036    4.8773   -4.7102 H   0  0  0  0  0  0  0  0  0  0  0  0
   -3.5668    3.4840   -5.6453 H   0  0  0  0  0  0  0  0  0  0  0  0
   -0.6862    3.9520   -4.7326 H   0  0  0  0  0  0  0  0  0  0  0  0
   -1.2455    2.5608   -5.6575 H   0  0  0  0  0  0  0  0  0  0  0  0
   -1.2932    4.1752   -6.3774 H   0  0  0  0  0  0  0  0  0  0  0  0
   -3.6929    1.2586   -4.6152 H   0  0  0  0  0  0  0  0  0  0  0  0
   -3.8457   -0.0697   -2.5620 H   0  0  0  0  0  0  0  0  0  0  0  0
    3.6011    1.8601    0.1604 H   0  0  0  0  0  0  0  0  0  0  0  0
    4.0245    2.9912    2.3025 H   0  0  0  0  0  0  0  0  0  0  0  0
  1  2  1  0  0  0  0
  2  3  1  0  0  0  0
  3  4  2  0  0  0  0
  4  5  1  0  0  0  0
  5  6  2  0  0  0  0
  6  7  1  0  0  0  0
  7  8  1  0  0  0  0
  8  9  2  0  0  0  0
  9 10  1  0  0  0  0
 10 11  2  0  0  0  0
 11 12  1  0  0  0  0
 12 13  1  0  0  0  0
 11 14  1  0  0  0  0
 14 15  2  0  0  0  0
  7 16  1  0  0  0  0
 16 17  1  0  0  0  0
 17 18  2  0  0  0  0
 18 19  1  0  0  0  0
 19 20  1  0  0  0  0
 20 21  1  0  0  0  0
 21 22  2  0  0  0  0
 22 23  1  0  0  0  0
 23 24  1  0  0  0  0
 18 25  1  0  0  0  0
 25 26  1  0  0  0  0
 26 27  1  0  0  0  0
 27 28  1  0  0  0  0
 28 29  2  0  0  0  0
 29 30  1  0  0  0  0
 30 31  1  0  0  0  0
 31 32  1  0  0  0  0
 29 33  1  0  0  0  0
 33 34  1  0  0  0  0
 34 35  1  0  0  0  0
 35 36  1  0  0  0  0
 36 37  2  0  0  0  0
 37 38  1  0  0  0  0
 38 39  1  0  0  0  0
 39 40  1  0  0  0  0
 40 41  1  0  0  0  0
 41 42  1  0  0  0  0
 42 43  1  0  0  0  0
 43 44  2  0  0  0  0
 44 45  1  0  0  0  0
 45 46  2  0  0  0  0
 46 47  1  0  0  0  0
 47 48  1  0  0  0  0
 46 49  1  0  0  0  0
 49 50  2  0  0  0  0
 42 51  1  0  0  0  0
 51 52  2  0  0  0  0
 52 53  1  0  0  0  0
 53 54  2  0  0  0  0
 54 55  1  0  0  0  0
 55 56  1  0  0  0  0
 54 57  1  0  0  0  0
 57 58  2  0  0  0  0
  6 59  1  0  0  0  0
 59 60  2  0  0  0  0
 60  3  1  0  0  0  0
 32  7  1  0  0  0  0
 40 33  2  0  0  0  0
 50 43  1  0  0  0  0
 58 51  1  0  0  0  0
 15  8  1  0  0  0  0
 24 17  1  0  0  0  0
 32 25  2  0  0  0  0
 39 35  2  0  0  0  0
 24 20  2  0  0  0  0
 31 27  2  0  0  0  0
 42 28  1  0  0  0  0
  1 61  1  0  0  0  0
  1 62  1  0  0  0  0
  1 63  1  0  0  0  0
  2 64  1  0  0  0  0
  2 65  1  0  0  0  0
  4 66  1  0  0  0  0
  5 67  1  0  0  0  0
  9 68  1  0  0  0  0
 10 69  1  0  0  0  0
 12 70  1  0  0  0  0
 12 71  1  0  0  0  0
 13 72  1  0  0  0  0
 13 73  1  0  0  0  0
 13 74  1  0  0  0  0
 14 75  1  0  0  0  0
 15 76  1  0  0  0  0
 21 77  1  0  0  0  0
 22 78  1  0  0  0  0
 36 79  1  0  0  0  0
 37 80  1  0  0  0  0
 44 81  1  0  0  0  0
 45 82  1  0  0  0  0
 47 83  1  0  0  0  0
 47 84  1  0  0  0  0
 48 85  1  0  0  0  0
 48 86  1  0  0  0  0
 48 87  1  0  0  0  0
 49 88  1  0  0  0  0
 50 89  1  0  0  0  0
 52 90  1  0  0  0  0
 53 91  1  0  0  0  0
 55 92  1  0  0  0  0
 55 93  1  0  0  0  0
 56 94  1  0  0  0  0
 56 95  1  0  0  0  0
 56 96  1  0  0  0  0
 57 97  1  0  0  0  0
 58 98  1  0  0  0  0
 59 99  1  0  0  0  0
 60100  1  0  0  0  0
M  END
