
  xtb     01172214263D
 energy: -159.540694618748 gnorm: 0.000263330587 xtb: 6.4.1 (unknown)
110121  0     0  0            999 V2000
    2.1690    1.2193    9.9939 C   0  0  0  0  0  0  0  0  0  0  0  0
    1.4121    2.3990    9.3808 C   0  0  0  0  0  0  0  0  0  0  0  0
    1.5598    2.3994    7.8863 C   0  0  0  0  0  0  0  0  0  0  0  0
    2.6263    3.0463    7.2770 C   0  0  0  0  0  0  0  0  0  0  0  0
    2.7834    3.0218    5.9038 C   0  0  0  0  0  0  0  0  0  0  0  0
    1.8684    2.3567    5.0964 C   0  0  0  0  0  0  0  0  0  0  0  0
    2.0585    2.2604    3.5899 C   0  0  0  0  0  0  0  0  0  0  0  0
    2.7066    3.4984    2.9740 C   0  0  0  0  0  0  0  0  0  0  0  0
    3.4711    3.3744    1.8206 C   0  0  0  0  0  0  0  0  0  0  0  0
    4.0203    4.4862    1.2104 C   0  0  0  0  0  0  0  0  0  0  0  0
    3.8139    5.7582    1.7255 C   0  0  0  0  0  0  0  0  0  0  0  0
    4.4530    6.9602    1.0920 C   0  0  0  0  0  0  0  0  0  0  0  0
    5.8387    7.2060    1.6924 C   0  0  0  0  0  0  0  0  0  0  0  0
    3.0363    5.8828    2.8684 C   0  0  0  0  0  0  0  0  0  0  0  0
    2.4852    4.7730    3.4812 C   0  0  0  0  0  0  0  0  0  0  0  0
    2.9400    1.0608    3.3675 C   0  0  0  0  0  0  0  0  0  0  0  0
    4.1886    0.8320    3.9905 C   0  0  0  0  0  0  0  0  0  0  0  0
    4.7705   -0.3254    3.5866 C   0  0  0  0  0  0  0  0  0  0  0  0
    3.8203   -1.1752    2.4325 S   0  0  0  0  0  0  0  0  0  0  0  0
    2.6006    0.0637    2.4920 C   0  0  0  0  0  0  0  0  0  0  0  0
    1.3957    0.0430    1.7181 C   0  0  0  0  0  0  0  0  0  0  0  0
    1.1432   -0.9358    0.7944 C   0  0  0  0  0  0  0  0  0  0  0  0
   -0.0527   -0.9814    0.0531 C   0  0  0  0  0  0  0  0  0  0  0  0
   -0.2811   -1.9984   -0.9437 C   0  0  0  0  0  0  0  0  0  0  0  0
    0.6990   -2.9444   -1.2860 C   0  0  0  0  0  0  0  0  0  0  0  0
    0.4647   -3.8843   -2.2561 C   0  0  0  0  0  0  0  0  0  0  0  0
   -0.7491   -3.9125   -2.9366 C   0  0  0  0  0  0  0  0  0  0  0  0
   -1.7436   -3.0064   -2.6397 C   0  0  0  0  0  0  0  0  0  0  0  0
   -1.5199   -2.0465   -1.6288 C   0  0  0  0  0  0  0  0  0  0  0  0
   -2.5313   -1.1008   -1.2683 C   0  0  0  0  0  0  0  0  0  0  0  0
   -2.2788   -0.1203   -0.3465 C   0  0  0  0  0  0  0  0  0  0  0  0
   -1.0408   -0.0093    0.3152 C   0  0  0  0  0  0  0  0  0  0  0  0
   -0.7842    1.0498    1.2600 C   0  0  0  0  0  0  0  0  0  0  0  0
   -1.7197    2.0647    1.5178 C   0  0  0  0  0  0  0  0  0  0  0  0
   -1.4542    3.0547    2.4287 C   0  0  0  0  0  0  0  0  0  0  0  0
   -0.2393    3.0856    3.1050 C   0  0  0  0  0  0  0  0  0  0  0  0
    0.7215    2.1249    2.8738 C   0  0  0  0  0  0  0  0  0  0  0  0
    0.4502    1.0899    1.9549 C   0  0  0  0  0  0  0  0  0  0  0  0
   -3.8183   -1.2633   -1.8752 C   0  0  0  0  0  0  0  0  0  0  0  0
   -5.2391   -0.3763   -1.4061 S   0  0  0  0  0  0  0  0  0  0  0  0
   -6.1961   -1.2835   -2.5097 C   0  0  0  0  0  0  0  0  0  0  0  0
   -5.4709   -2.2020   -3.1966 C   0  0  0  0  0  0  0  0  0  0  0  0
   -4.1030   -2.1943   -2.8381 C   0  0  0  0  0  0  0  0  0  0  0  0
   -3.0187   -3.0265   -3.4704 C   0  0  0  0  0  0  0  0  0  0  0  0
   -2.7714   -2.3562   -4.8221 C   0  0  0  0  0  0  0  0  0  0  0  0
   -3.6783   -2.5240   -5.8631 C   0  0  0  0  0  0  0  0  0  0  0  0
   -3.5034   -1.8715   -7.0678 C   0  0  0  0  0  0  0  0  0  0  0  0
   -2.4246   -1.0204   -7.2690 C   0  0  0  0  0  0  0  0  0  0  0  0
   -2.2132   -0.3456   -8.5937 C   0  0  0  0  0  0  0  0  0  0  0  0
   -1.4013   -1.2446   -9.5284 C   0  0  0  0  0  0  0  0  0  0  0  0
   -1.5269   -0.8455   -6.2261 C   0  0  0  0  0  0  0  0  0  0  0  0
   -1.6984   -1.4975   -5.0181 C   0  0  0  0  0  0  0  0  0  0  0  0
   -3.4734   -4.4711   -3.5970 C   0  0  0  0  0  0  0  0  0  0  0  0
   -4.1770   -5.0514   -2.5486 C   0  0  0  0  0  0  0  0  0  0  0  0
   -4.5719   -6.3743   -2.6075 C   0  0  0  0  0  0  0  0  0  0  0  0
   -4.2688   -7.1599   -3.7115 C   0  0  0  0  0  0  0  0  0  0  0  0
   -4.6603   -8.6089   -3.7595 C   0  0  0  0  0  0  0  0  0  0  0  0
   -3.5485   -9.4827   -3.1753 C   0  0  0  0  0  0  0  0  0  0  0  0
   -3.5466   -6.5849   -4.7481 C   0  0  0  0  0  0  0  0  0  0  0  0
   -3.1506   -5.2611   -4.6931 C   0  0  0  0  0  0  0  0  0  0  0  0
    0.8176    1.6836    5.7070 C   0  0  0  0  0  0  0  0  0  0  0  0
    0.6641    1.7100    7.0805 C   0  0  0  0  0  0  0  0  0  0  0  0
    1.7821    0.2796    9.6060 H   0  0  0  0  0  0  0  0  0  0  0  0
    2.0630    1.2190   11.0764 H   0  0  0  0  0  0  0  0  0  0  0  0
    3.2270    1.2798    9.7481 H   0  0  0  0  0  0  0  0  0  0  0  0
    1.8054    3.3312    9.7921 H   0  0  0  0  0  0  0  0  0  0  0  0
    0.3558    2.3264    9.6480 H   0  0  0  0  0  0  0  0  0  0  0  0
    3.3443    3.5793    7.8848 H   0  0  0  0  0  0  0  0  0  0  0  0
    3.6232    3.5365    5.4591 H   0  0  0  0  0  0  0  0  0  0  0  0
    3.6395    2.3988    1.3889 H   0  0  0  0  0  0  0  0  0  0  0  0
    4.6143    4.3624    0.3158 H   0  0  0  0  0  0  0  0  0  0  0  0
    4.5497    6.8037    0.0157 H   0  0  0  0  0  0  0  0  0  0  0  0
    3.8287    7.8412    1.2547 H   0  0  0  0  0  0  0  0  0  0  0  0
    6.4777    6.3401    1.5337 H   0  0  0  0  0  0  0  0  0  0  0  0
    6.3068    8.0728    1.2313 H   0  0  0  0  0  0  0  0  0  0  0  0
    5.7609    7.3813    2.7632 H   0  0  0  0  0  0  0  0  0  0  0  0
    2.8540    6.8637    3.2849 H   0  0  0  0  0  0  0  0  0  0  0  0
    1.8860    4.9095    4.3693 H   0  0  0  0  0  0  0  0  0  0  0  0
    4.6331    1.4971    4.7077 H   0  0  0  0  0  0  0  0  0  0  0  0
    5.7088   -0.7413    3.8955 H   0  0  0  0  0  0  0  0  0  0  0  0
    1.8982   -1.6942    0.6603 H   0  0  0  0  0  0  0  0  0  0  0  0
    1.6588   -2.9386   -0.7965 H   0  0  0  0  0  0  0  0  0  0  0  0
    1.2301   -4.6040   -2.5068 H   0  0  0  0  0  0  0  0  0  0  0  0
   -0.9035   -4.6485   -3.7103 H   0  0  0  0  0  0  0  0  0  0  0  0
   -3.0807    0.5654   -0.1235 H   0  0  0  0  0  0  0  0  0  0  0  0
   -2.6637    2.0826    0.9988 H   0  0  0  0  0  0  0  0  0  0  0  0
   -2.1889    3.8225    2.6217 H   0  0  0  0  0  0  0  0  0  0  0  0
   -0.0529    3.8724    3.8191 H   0  0  0  0  0  0  0  0  0  0  0  0
   -7.2458   -1.0784   -2.5800 H   0  0  0  0  0  0  0  0  0  0  0  0
   -5.9015   -2.8729   -3.9174 H   0  0  0  0  0  0  0  0  0  0  0  0
   -4.5275   -3.1789   -5.7383 H   0  0  0  0  0  0  0  0  0  0  0  0
   -4.2206   -2.0212   -7.8628 H   0  0  0  0  0  0  0  0  0  0  0  0
   -1.6808    0.5964   -8.4481 H   0  0  0  0  0  0  0  0  0  0  0  0
   -3.1781   -0.1252   -9.0553 H   0  0  0  0  0  0  0  0  0  0  0  0
   -1.9237   -2.1835   -9.6981 H   0  0  0  0  0  0  0  0  0  0  0  0
   -0.4316   -1.4678   -9.0889 H   0  0  0  0  0  0  0  0  0  0  0  0
   -1.2445   -0.7558  -10.4873 H   0  0  0  0  0  0  0  0  0  0  0  0
   -0.6817   -0.1841   -6.3547 H   0  0  0  0  0  0  0  0  0  0  0  0
   -0.9846   -1.3303   -4.2256 H   0  0  0  0  0  0  0  0  0  0  0  0
   -4.4175   -4.4603   -1.6763 H   0  0  0  0  0  0  0  0  0  0  0  0
   -5.1242   -6.8030   -1.7831 H   0  0  0  0  0  0  0  0  0  0  0  0
   -5.5776   -8.7642   -3.1879 H   0  0  0  0  0  0  0  0  0  0  0  0
   -4.8467   -8.9083   -4.7931 H   0  0  0  0  0  0  0  0  0  0  0  0
   -3.3591   -9.2105   -2.1393 H   0  0  0  0  0  0  0  0  0  0  0  0
   -2.6269   -9.3477   -3.7372 H   0  0  0  0  0  0  0  0  0  0  0  0
   -3.8285  -10.5330   -3.2138 H   0  0  0  0  0  0  0  0  0  0  0  0
   -3.2899   -7.1804   -5.6133 H   0  0  0  0  0  0  0  0  0  0  0  0
   -2.5893   -4.8418   -5.5160 H   0  0  0  0  0  0  0  0  0  0  0  0
    0.1097    1.1353    5.1024 H   0  0  0  0  0  0  0  0  0  0  0  0
   -0.1664    1.1864    7.5327 H   0  0  0  0  0  0  0  0  0  0  0  0
  1  2  1  0  0  0  0
  2  3  1  0  0  0  0
  3  4  2  0  0  0  0
  4  5  1  0  0  0  0
  5  6  2  0  0  0  0
  6  7  1  0  0  0  0
  7  8  1  0  0  0  0
  8  9  2  0  0  0  0
  9 10  1  0  0  0  0
 10 11  2  0  0  0  0
 11 12  1  0  0  0  0
 12 13  1  0  0  0  0
 11 14  1  0  0  0  0
 14 15  2  0  0  0  0
  7 16  1  0  0  0  0
 16 17  1  0  0  0  0
 17 18  2  0  0  0  0
 18 19  1  0  0  0  0
 19 20  1  0  0  0  0
 20 21  1  0  0  0  0
 21 22  2  0  0  0  0
 22 23  1  0  0  0  0
 23 24  2  0  0  0  0
 24 25  1  0  0  0  0
 25 26  2  0  0  0  0
 26 27  1  0  0  0  0
 27 28  2  0  0  0  0
 28 29  1  0  0  0  0
 29 30  2  0  0  0  0
 30 31  1  0  0  0  0
 31 32  2  0  0  0  0
 32 33  1  0  0  0  0
 33 34  2  0  0  0  0
 34 35  1  0  0  0  0
 35 36  2  0  0  0  0
 36 37  1  0  0  0  0
 37 38  2  0  0  0  0
 30 39  1  0  0  0  0
 39 40  1  0  0  0  0
 40 41  1  0  0  0  0
 41 42  2  0  0  0  0
 42 43  1  0  0  0  0
 43 44  1  0  0  0  0
 44 45  1  0  0  0  0
 45 46  2  0  0  0  0
 46 47  1  0  0  0  0
 47 48  2  0  0  0  0
 48 49  1  0  0  0  0
 49 50  1  0  0  0  0
 48 51  1  0  0  0  0
 51 52  2  0  0  0  0
 44 53  1  0  0  0  0
 53 54  2  0  0  0  0
 54 55  1  0  0  0  0
 55 56  2  0  0  0  0
 56 57  1  0  0  0  0
 57 58  1  0  0  0  0
 56 59  1  0  0  0  0
 59 60  2  0  0  0  0
  6 61  1  0  0  0  0
 61 62  2  0  0  0  0
 62  3  1  0  0  0  0
 37  7  1  0  0  0  0
 43 39  2  0  0  0  0
 52 45  1  0  0  0  0
 60 53  1  0  0  0  0
 15  8  1  0  0  0  0
 20 16  2  0  0  0  0
 38 21  1  0  0  0  0
 32 23  1  0  0  0  0
 38 33  1  0  0  0  0
 29 24  1  0  0  0  0
 44 28  1  0  0  0  0
  1 63  1  0  0  0  0
  1 64  1  0  0  0  0
  1 65  1  0  0  0  0
  2 66  1  0  0  0  0
  2 67  1  0  0  0  0
  4 68  1  0  0  0  0
  5 69  1  0  0  0  0
  9 70  1  0  0  0  0
 10 71  1  0  0  0  0
 12 72  1  0  0  0  0
 12 73  1  0  0  0  0
 13 74  1  0  0  0  0
 13 75  1  0  0  0  0
 13 76  1  0  0  0  0
 14 77  1  0  0  0  0
 15 78  1  0  0  0  0
 17 79  1  0  0  0  0
 18 80  1  0  0  0  0
 22 81  1  0  0  0  0
 25 82  1  0  0  0  0
 26 83  1  0  0  0  0
 27 84  1  0  0  0  0
 31 85  1  0  0  0  0
 34 86  1  0  0  0  0
 35 87  1  0  0  0  0
 36 88  1  0  0  0  0
 41 89  1  0  0  0  0
 42 90  1  0  0  0  0
 46 91  1  0  0  0  0
 47 92  1  0  0  0  0
 49 93  1  0  0  0  0
 49 94  1  0  0  0  0
 50 95  1  0  0  0  0
 50 96  1  0  0  0  0
 50 97  1  0  0  0  0
 51 98  1  0  0  0  0
 52 99  1  0  0  0  0
 54100  1  0  0  0  0
 55101  1  0  0  0  0
 57102  1  0  0  0  0
 57103  1  0  0  0  0
 58104  1  0  0  0  0
 58105  1  0  0  0  0
 58106  1  0  0  0  0
 59107  1  0  0  0  0
 60108  1  0  0  0  0
 61109  1  0  0  0  0
 62110  1  0  0  0  0
M  END
