
  xtb     01172214263D
 energy: -41.544578261374 gnorm: 0.000792089203 xtb: 6.4.1 (unknown)
 26 27  0     0  0            999 V2000
    1.8110   -1.2616    4.4553 C   0  0  0  0  0  0  0  0  0  0  0  0
    2.1207   -0.0072    3.6423 C   0  0  0  0  0  0  0  0  0  0  0  0
    1.4320   -0.0108    2.3764 N   0  0  0  0  0  0  0  0  0  0  0  0
    1.7934   -0.7255    1.2762 C   0  0  0  0  0  0  0  0  0  0  0  0
    0.8816   -0.5220    0.2849 C   0  0  0  0  0  0  0  0  0  0  0  0
    0.5371   -0.8364   -1.0847 C   0  0  0  0  0  0  0  0  0  0  0  0
    1.0582   -1.5285   -1.9304 O   0  0  0  0  0  0  0  0  0  0  0  0
   -0.6533   -0.1005   -1.3072 N   0  0  0  0  0  0  0  0  0  0  0  0
   -1.3807   -0.1608   -2.5498 C   0  0  0  0  0  0  0  0  0  0  0  0
   -2.5748   -1.1074   -2.4580 C   0  0  0  0  0  0  0  0  0  0  0  0
   -1.0276    0.5954   -0.1993 C   0  0  0  0  0  0  0  0  0  0  0  0
   -0.1258    0.3772    0.7980 C   0  0  0  0  0  0  0  0  0  0  0  0
    0.2297    0.7077    2.1610 C   0  0  0  0  0  0  0  0  0  0  0  0
   -0.2816    1.4141    3.0008 O   0  0  0  0  0  0  0  0  0  0  0  0
    0.7432   -1.3252    4.6490 H   0  0  0  0  0  0  0  0  0  0  0  0
    2.3360   -1.2250    5.4056 H   0  0  0  0  0  0  0  0  0  0  0  0
    2.1219   -2.1547    3.9175 H   0  0  0  0  0  0  0  0  0  0  0  0
    1.7750    0.8791    4.1811 H   0  0  0  0  0  0  0  0  0  0  0  0
    3.1969    0.0764    3.4646 H   0  0  0  0  0  0  0  0  0  0  0  0
    2.6859   -1.3247    1.2787 H   0  0  0  0  0  0  0  0  0  0  0  0
   -1.7120    0.8461   -2.8203 H   0  0  0  0  0  0  0  0  0  0  0  0
   -0.6770   -0.5230   -3.3040 H   0  0  0  0  0  0  0  0  0  0  0  0
   -3.0958   -1.1386   -3.4107 H   0  0  0  0  0  0  0  0  0  0  0  0
   -3.2697   -0.7763   -1.6894 H   0  0  0  0  0  0  0  0  0  0  0  0
   -2.2361   -2.1108   -2.2129 H   0  0  0  0  0  0  0  0  0  0  0  0
   -1.9122    1.2062   -0.2066 H   0  0  0  0  0  0  0  0  0  0  0  0
  1  2  1  0  0  0  0
  2  3  1  0  0  0  0
  3  4  1  0  0  0  0
  4  5  2  0  0  0  0
  5  6  1  0  0  0  0
  6  7  2  0  0  0  0
  6  8  1  0  0  0  0
  8  9  1  0  0  0  0
  9 10  1  0  0  0  0
  8 11  1  0  0  0  0
 11 12  2  0  0  0  0
 12 13  1  0  0  0  0
 13 14  2  0  0  0  0
 13  3  1  0  0  0  0
 12  5  1  0  0  0  0
  1 15  1  0  0  0  0
  1 16  1  0  0  0  0
  1 17  1  0  0  0  0
  2 18  1  0  0  0  0
  2 19  1  0  0  0  0
  4 20  1  0  0  0  0
  9 21  1  0  0  0  0
  9 22  1  0  0  0  0
 10 23  1  0  0  0  0
 10 24  1  0  0  0  0
 10 25  1  0  0  0  0
 11 26  1  0  0  0  0
M  END
