
  xtb     01172214263D
 energy: -51.748928072564 gnorm: 0.000514616013 xtb: 6.4.1 (unknown)
 32 34  0     0  0            999 V2000
   -2.2648   -1.1319    3.5934 C   0  0  0  0  0  0  0  0  0  0  0  0
   -0.9609   -1.8984    3.7857 C   0  0  0  0  0  0  0  0  0  0  0  0
    0.1872   -1.0863    3.5905 O   0  0  0  0  0  0  0  0  0  0  0  0
    0.4210   -0.6997    2.2914 C   0  0  0  0  0  0  0  0  0  0  0  0
    0.9773   -1.5663    1.3454 C   0  0  0  0  0  0  0  0  0  0  0  0
    1.3814   -2.9197    1.5631 C   0  0  0  0  0  0  0  0  0  0  0  0
    1.9030   -3.5006    0.4680 C   0  0  0  0  0  0  0  0  0  0  0  0
    1.9482   -2.4513   -0.9046 S   0  0  0  0  0  0  0  0  0  0  0  0
    1.2264   -1.1393    0.0141 C   0  0  0  0  0  0  0  0  0  0  0  0
    0.9383    0.1537   -0.4109 C   0  0  0  0  0  0  0  0  0  0  0  0
    1.1401    0.7164   -1.6314 O   0  0  0  0  0  0  0  0  0  0  0  0
    1.2491   -0.0746   -2.7982 C   0  0  0  0  0  0  0  0  0  0  0  0
   -0.0582   -0.7719   -3.1565 C   0  0  0  0  0  0  0  0  0  0  0  0
    0.4135    1.0295    0.5567 C   0  0  0  0  0  0  0  0  0  0  0  0
    0.0601    2.4005    0.3772 C   0  0  0  0  0  0  0  0  0  0  0  0
   -0.4242    2.9652    1.5006 C   0  0  0  0  0  0  0  0  0  0  0  0
   -0.4898    1.8802    2.8510 S   0  0  0  0  0  0  0  0  0  0  0  0
    0.1641    0.5967    1.8744 C   0  0  0  0  0  0  0  0  0  0  0  0
   -2.3617   -0.7989    2.5618 H   0  0  0  0  0  0  0  0  0  0  0  0
   -3.1062   -1.7760    3.8342 H   0  0  0  0  0  0  0  0  0  0  0  0
   -2.2840   -0.2602    4.2425 H   0  0  0  0  0  0  0  0  0  0  0  0
   -0.8742   -2.2499    4.8166 H   0  0  0  0  0  0  0  0  0  0  0  0
   -0.9368   -2.7635    3.1091 H   0  0  0  0  0  0  0  0  0  0  0  0
    1.2979   -3.4055    2.5185 H   0  0  0  0  0  0  0  0  0  0  0  0
    2.2873   -4.4961    0.3611 H   0  0  0  0  0  0  0  0  0  0  0  0
    1.5145    0.6477   -3.5754 H   0  0  0  0  0  0  0  0  0  0  0  0
    2.0638   -0.8015   -2.7109 H   0  0  0  0  0  0  0  0  0  0  0  0
   -0.3354   -1.4891   -2.3879 H   0  0  0  0  0  0  0  0  0  0  0  0
   -0.8562   -0.0395   -3.2530 H   0  0  0  0  0  0  0  0  0  0  0  0
    0.0572   -1.2987   -4.0991 H   0  0  0  0  0  0  0  0  0  0  0  0
    0.1802    2.9109   -0.5603 H   0  0  0  0  0  0  0  0  0  0  0  0
   -0.7602    3.9740    1.6405 H   0  0  0  0  0  0  0  0  0  0  0  0
  1  2  1  0  0  0  0
  2  3  1  0  0  0  0
  3  4  1  0  0  0  0
  4  5  2  0  0  0  0
  5  6  1  0  0  0  0
  6  7  2  0  0  0  0
  7  8  1  0  0  0  0
  8  9  1  0  0  0  0
  9 10  2  0  0  0  0
 10 11  1  0  0  0  0
 11 12  1  0  0  0  0
 12 13  1  0  0  0  0
 10 14  1  0  0  0  0
 14 15  1  0  0  0  0
 15 16  2  0  0  0  0
 16 17  1  0  0  0  0
 17 18  1  0  0  0  0
 18  4  1  0  0  0  0
  9  5  1  0  0  0  0
 18 14  2  0  0  0  0
  1 19  1  0  0  0  0
  1 20  1  0  0  0  0
  1 21  1  0  0  0  0
  2 22  1  0  0  0  0
  2 23  1  0  0  0  0
  6 24  1  0  0  0  0
  7 25  1  0  0  0  0
 12 26  1  0  0  0  0
 12 27  1  0  0  0  0
 13 28  1  0  0  0  0
 13 29  1  0  0  0  0
 13 30  1  0  0  0  0
 15 31  1  0  0  0  0
 16 32  1  0  0  0  0
M  END
