
  xtb     01172214263D
 energy: -24.338084788686 gnorm: 0.000606571612 xtb: 6.4.1 (unknown)
 12 12  0     0  0            999 V2000
   -0.9501   -0.9797    2.4013 F   0  0  0  0  0  0  0  0  0  0  0  0
    0.1961   -0.8742    1.7010 C   0  0  0  0  0  0  0  0  0  0  0  0
    0.6273   -1.9592    0.9575 C   0  0  0  0  0  0  0  0  0  0  0  0
    1.8041   -1.8509    0.2385 C   0  0  0  0  0  0  0  0  0  0  0  0
    2.5099   -0.6612    0.2872 C   0  0  0  0  0  0  0  0  0  0  0  0
    3.6561   -0.5557   -0.4132 F   0  0  0  0  0  0  0  0  0  0  0  0
    2.0788    0.4238    1.0306 C   0  0  0  0  0  0  0  0  0  0  0  0
    0.9019    0.3155    1.7496 C   0  0  0  0  0  0  0  0  0  0  0  0
    0.0466   -2.8675    0.9475 H   0  0  0  0  0  0  0  0  0  0  0  0
    2.1761   -2.6715   -0.3536 H   0  0  0  0  0  0  0  0  0  0  0  0
    2.6594    1.3321    1.0406 H   0  0  0  0  0  0  0  0  0  0  0  0
    0.5300    1.1361    2.3417 H   0  0  0  0  0  0  0  0  0  0  0  0
  1  2  1  0  0  0  0
  2  3  2  0  0  0  0
  3  4  1  0  0  0  0
  4  5  2  0  0  0  0
  5  6  1  0  0  0  0
  5  7  1  0  0  0  0
  7  8  2  0  0  0  0
  8  2  1  0  0  0  0
  3  9  1  0  0  0  0
  4 10  1  0  0  0  0
  7 11  1  0  0  0  0
  8 12  1  0  0  0  0
M  END
