
  xtb     01172214263D
 energy: -99.850742075737 gnorm: 0.000439883854 xtb: 6.4.1 (unknown)
 52 58  0     0  0            999 V2000
    3.2103   -2.3472    7.5018 C   0  0  0  0  0  0  0  0  0  0  0  0
    3.1176   -3.3741    6.3811 C   0  0  0  0  0  0  0  0  0  0  0  0
    2.4739   -2.8081    5.1988 N   0  0  0  0  0  0  0  0  0  0  0  0
    3.2892   -2.1884    4.2680 C   0  0  0  0  0  0  0  0  0  0  0  0
    4.4893   -2.1248    4.4328 O   0  0  0  0  0  0  0  0  0  0  0  0
    2.6256   -1.6294    3.0764 C   0  0  0  0  0  0  0  0  0  0  0  0
    3.3880   -1.0112    2.1091 C   0  0  0  0  0  0  0  0  0  0  0  0
    2.7899   -0.4893    0.9720 C   0  0  0  0  0  0  0  0  0  0  0  0
    1.4169   -0.5652    0.7525 C   0  0  0  0  0  0  0  0  0  0  0  0
    0.7901   -0.0292   -0.4483 C   0  0  0  0  0  0  0  0  0  0  0  0
    1.4856    0.5760   -1.4970 C   0  0  0  0  0  0  0  0  0  0  0  0
    2.8259    0.7017   -1.4927 F   0  0  0  0  0  0  0  0  0  0  0  0
    0.8741    1.0963   -2.6288 C   0  0  0  0  0  0  0  0  0  0  0  0
   -0.4923    1.0249   -2.7645 C   0  0  0  0  0  0  0  0  0  0  0  0
   -1.2546    0.4090   -1.7537 C   0  0  0  0  0  0  0  0  0  0  0  0
   -2.6500    0.3256   -1.9232 C   0  0  0  0  0  0  0  0  0  0  0  0
   -3.4124   -0.2926   -0.9560 C   0  0  0  0  0  0  0  0  0  0  0  0
   -2.8144   -0.8145    0.1811 C   0  0  0  0  0  0  0  0  0  0  0  0
   -1.4413   -0.7385    0.4007 C   0  0  0  0  0  0  0  0  0  0  0  0
   -0.8145   -1.2745    1.6015 C   0  0  0  0  0  0  0  0  0  0  0  0
   -1.5101   -1.8797    2.6502 C   0  0  0  0  0  0  0  0  0  0  0  0
   -2.8503   -2.0054    2.6459 F   0  0  0  0  0  0  0  0  0  0  0  0
   -0.8985   -2.3999    3.7820 C   0  0  0  0  0  0  0  0  0  0  0  0
    0.4678   -2.3286    3.9177 C   0  0  0  0  0  0  0  0  0  0  0  0
    1.2302   -1.7127    2.9069 C   0  0  0  0  0  0  0  0  0  0  0  0
    0.6017   -1.1832    1.7459 C   0  0  0  0  0  0  0  0  0  0  0  0
    1.0985   -2.8998    5.1233 C   0  0  0  0  0  0  0  0  0  0  0  0
    0.4527   -3.4324    6.0012 O   0  0  0  0  0  0  0  0  0  0  0  0
   -0.6261   -0.1206   -0.5927 C   0  0  0  0  0  0  0  0  0  0  0  0
   -3.3136    0.8847   -3.1148 C   0  0  0  0  0  0  0  0  0  0  0  0
   -4.5138    0.8210   -3.2796 O   0  0  0  0  0  0  0  0  0  0  0  0
   -2.4983    1.5044   -4.0456 N   0  0  0  0  0  0  0  0  0  0  0  0
   -3.1420    2.0705   -5.2278 C   0  0  0  0  0  0  0  0  0  0  0  0
   -3.2348    1.0436   -6.3486 C   0  0  0  0  0  0  0  0  0  0  0  0
   -1.1230    1.5962   -3.9701 C   0  0  0  0  0  0  0  0  0  0  0  0
   -0.4771    2.1288   -4.8479 O   0  0  0  0  0  0  0  0  0  0  0  0
    2.2160   -2.0140    7.7896 H   0  0  0  0  0  0  0  0  0  0  0  0
    3.7962   -1.4899    7.1786 H   0  0  0  0  0  0  0  0  0  0  0  0
    3.6928   -2.7943    8.3662 H   0  0  0  0  0  0  0  0  0  0  0  0
    2.5188   -4.2296    6.6983 H   0  0  0  0  0  0  0  0  0  0  0  0
    4.1148   -3.7011    6.0817 H   0  0  0  0  0  0  0  0  0  0  0  0
    4.4558   -0.9418    2.2493 H   0  0  0  0  0  0  0  0  0  0  0  0
    3.4433   -0.0192    0.2626 H   0  0  0  0  0  0  0  0  0  0  0  0
    1.4748    1.5560   -3.3985 H   0  0  0  0  0  0  0  0  0  0  0  0
   -4.4802   -0.3621   -1.0962 H   0  0  0  0  0  0  0  0  0  0  0  0
   -3.4677   -1.2847    0.8906 H   0  0  0  0  0  0  0  0  0  0  0  0
   -1.4993   -2.8596    4.5517 H   0  0  0  0  0  0  0  0  0  0  0  0
   -4.1392    2.3974   -4.9285 H   0  0  0  0  0  0  0  0  0  0  0  0
   -2.5432    2.9260   -5.5450 H   0  0  0  0  0  0  0  0  0  0  0  0
   -2.2404    0.7104   -6.6364 H   0  0  0  0  0  0  0  0  0  0  0  0
   -3.7173    1.4907   -7.2129 H   0  0  0  0  0  0  0  0  0  0  0  0
   -3.8206    0.1863   -6.0254 H   0  0  0  0  0  0  0  0  0  0  0  0
  1  2  1  0  0  0  0
  2  3  1  0  0  0  0
  3  4  1  0  0  0  0
  4  5  2  0  0  0  0
  4  6  1  0  0  0  0
  6  7  2  0  0  0  0
  7  8  1  0  0  0  0
  8  9  2  0  0  0  0
  9 10  1  0  0  0  0
 10 11  2  0  0  0  0
 11 12  1  0  0  0  0
 11 13  1  0  0  0  0
 13 14  2  0  0  0  0
 14 15  1  0  0  0  0
 15 16  1  0  0  0  0
 16 17  2  0  0  0  0
 17 18  1  0  0  0  0
 18 19  2  0  0  0  0
 19 20  1  0  0  0  0
 20 21  2  0  0  0  0
 21 22  1  0  0  0  0
 21 23  1  0  0  0  0
 23 24  2  0  0  0  0
 24 25  1  0  0  0  0
 25 26  2  0  0  0  0
 24 27  1  0  0  0  0
 27 28  2  0  0  0  0
 19 29  1  0  0  0  0
 16 30  1  0  0  0  0
 30 31  2  0  0  0  0
 30 32  1  0  0  0  0
 32 33  1  0  0  0  0
 33 34  1  0  0  0  0
 32 35  1  0  0  0  0
 35 36  2  0  0  0  0
 27  3  1  0  0  0  0
 25  6  1  0  0  0  0
 26  9  1  0  0  0  0
 29 10  1  0  0  0  0
 35 14  1  0  0  0  0
 29 15  2  0  0  0  0
 26 20  1  0  0  0  0
  1 37  1  0  0  0  0
  1 38  1  0  0  0  0
  1 39  1  0  0  0  0
  2 40  1  0  0  0  0
  2 41  1  0  0  0  0
  7 42  1  0  0  0  0
  8 43  1  0  0  0  0
 13 44  1  0  0  0  0
 17 45  1  0  0  0  0
 18 46  1  0  0  0  0
 23 47  1  0  0  0  0
 33 48  1  0  0  0  0
 33 49  1  0  0  0  0
 34 50  1  0  0  0  0
 34 51  1  0  0  0  0
 34 52  1  0  0  0  0
M  END
