
  xtb     01172214263D
 energy: -154.411139572443 gnorm: 0.000605775355 xtb: 6.4.1 (unknown)
108118  0     0  0            999 V2000
   -5.6326    3.1630    0.2609 C   0  0  0  0  0  0  0  0  0  0  0  0
   -4.8318    4.3130    0.8750 C   0  0  0  0  0  0  0  0  0  0  0  0
   -3.3750    4.1805    0.5333 C   0  0  0  0  0  0  0  0  0  0  0  0
   -2.5339    3.3951    1.3111 C   0  0  0  0  0  0  0  0  0  0  0  0
   -1.2014    3.2396    0.9814 C   0  0  0  0  0  0  0  0  0  0  0  0
   -0.6717    3.8702   -0.1381 C   0  0  0  0  0  0  0  0  0  0  0  0
    0.7754    3.6455   -0.5233 C   0  0  0  0  0  0  0  0  0  0  0  0
    1.6831    3.5771    0.6903 C   0  0  0  0  0  0  0  0  0  0  0  0
    2.7008    2.6398    0.7933 C   0  0  0  0  0  0  0  0  0  0  0  0
    3.5426    2.6365    1.8910 C   0  0  0  0  0  0  0  0  0  0  0  0
    3.3962    3.5688    2.9084 C   0  0  0  0  0  0  0  0  0  0  0  0
    4.3405    3.5881    4.0764 C   0  0  0  0  0  0  0  0  0  0  0  0
    5.5563    4.4634    3.7660 C   0  0  0  0  0  0  0  0  0  0  0  0
    2.3853    4.5148    2.7942 C   0  0  0  0  0  0  0  0  0  0  0  0
    1.5416    4.5216    1.7006 C   0  0  0  0  0  0  0  0  0  0  0  0
    0.8471    2.4103   -1.4116 C   0  0  0  0  0  0  0  0  0  0  0  0
    0.4277    1.1367   -1.1231 C   0  0  0  0  0  0  0  0  0  0  0  0
    0.6050    0.1619   -2.1044 C   0  0  0  0  0  0  0  0  0  0  0  0
    0.3205   -1.2386   -2.1379 C   0  0  0  0  0  0  0  0  0  0  0  0
   -0.2468   -2.1075   -1.2064 C   0  0  0  0  0  0  0  0  0  0  0  0
   -0.3468   -3.4311   -1.5521 C   0  0  0  0  0  0  0  0  0  0  0  0
    0.1011   -3.8915   -2.8165 C   0  0  0  0  0  0  0  0  0  0  0  0
    0.6545   -3.0459   -3.7600 C   0  0  0  0  0  0  0  0  0  0  0  0
    0.7561   -1.7074   -3.4046 C   0  0  0  0  0  0  0  0  0  0  0  0
    1.2530   -0.6511   -4.1295 N   0  0  0  0  0  0  0  0  0  0  0  0
    1.8373   -0.7376   -5.4404 C   0  0  0  0  0  0  0  0  0  0  0  0
    3.3366   -1.0267   -5.3724 C   0  0  0  0  0  0  0  0  0  0  0  0
    1.1920    0.4829   -3.3560 C   0  0  0  0  0  0  0  0  0  0  0  0
    1.6032    1.7745   -3.6582 C   0  0  0  0  0  0  0  0  0  0  0  0
    1.4169    2.7249   -2.6716 C   0  0  0  0  0  0  0  0  0  0  0  0
    1.7111    4.1293   -2.6461 C   0  0  0  0  0  0  0  0  0  0  0  0
    2.3987    5.2821   -3.7230 S   0  0  0  0  0  0  0  0  0  0  0  0
    2.1777    6.5227   -2.5380 C   0  0  0  0  0  0  0  0  0  0  0  0
    1.6115    6.0730   -1.3839 C   0  0  0  0  0  0  0  0  0  0  0  0
    1.3378    4.6957   -1.4488 C   0  0  0  0  0  0  0  0  0  0  0  0
   -0.1424   -5.3055   -2.8447 C   0  0  0  0  0  0  0  0  0  0  0  0
    0.1217   -6.5968   -3.9508 S   0  0  0  0  0  0  0  0  0  0  0  0
   -0.5683   -7.7083   -2.8195 C   0  0  0  0  0  0  0  0  0  0  0  0
   -0.9774   -7.1177   -1.6624 C   0  0  0  0  0  0  0  0  0  0  0  0
   -0.7352   -5.7332   -1.6788 C   0  0  0  0  0  0  0  0  0  0  0  0
   -0.9246   -4.5760   -0.7300 C   0  0  0  0  0  0  0  0  0  0  0  0
   -0.1527   -4.8770    0.5395 C   0  0  0  0  0  0  0  0  0  0  0  0
    1.1244   -4.3816    0.7581 C   0  0  0  0  0  0  0  0  0  0  0  0
    1.8179   -4.7139    1.9082 C   0  0  0  0  0  0  0  0  0  0  0  0
    1.2626   -5.5562    2.8609 C   0  0  0  0  0  0  0  0  0  0  0  0
    2.0002   -5.8771    4.1295 C   0  0  0  0  0  0  0  0  0  0  0  0
    1.6635   -4.8552    5.2175 C   0  0  0  0  0  0  0  0  0  0  0  0
   -0.0121   -6.0592    2.6327 C   0  0  0  0  0  0  0  0  0  0  0  0
   -0.7095   -5.7281    1.4874 C   0  0  0  0  0  0  0  0  0  0  0  0
   -2.3781   -4.2557   -0.4412 C   0  0  0  0  0  0  0  0  0  0  0  0
   -2.7121   -3.4765    0.6600 C   0  0  0  0  0  0  0  0  0  0  0  0
   -4.0274   -3.1321    0.9052 C   0  0  0  0  0  0  0  0  0  0  0  0
   -5.0454   -3.5548    0.0605 C   0  0  0  0  0  0  0  0  0  0  0  0
   -6.4692   -3.1445    0.3077 C   0  0  0  0  0  0  0  0  0  0  0  0
   -6.7669   -1.8071   -0.3736 C   0  0  0  0  0  0  0  0  0  0  0  0
   -4.7070   -4.3264   -1.0424 C   0  0  0  0  0  0  0  0  0  0  0  0
   -3.3913   -4.6704   -1.2938 C   0  0  0  0  0  0  0  0  0  0  0  0
   -1.5120    4.6455   -0.9248 C   0  0  0  0  0  0  0  0  0  0  0  0
   -2.8449    4.7994   -0.5902 C   0  0  0  0  0  0  0  0  0  0  0  0
   -5.5293    3.1661   -0.8219 H   0  0  0  0  0  0  0  0  0  0  0  0
   -5.2692    2.2081    0.6341 H   0  0  0  0  0  0  0  0  0  0  0  0
   -6.6872    3.2560    0.5105 H   0  0  0  0  0  0  0  0  0  0  0  0
   -5.2167    5.2621    0.4963 H   0  0  0  0  0  0  0  0  0  0  0  0
   -4.9598    4.3012    1.9597 H   0  0  0  0  0  0  0  0  0  0  0  0
   -2.9268    2.9015    2.1891 H   0  0  0  0  0  0  0  0  0  0  0  0
   -0.5622    2.6323    1.6064 H   0  0  0  0  0  0  0  0  0  0  0  0
    2.8363    1.9045    0.0139 H   0  0  0  0  0  0  0  0  0  0  0  0
    4.3257    1.8941    1.9576 H   0  0  0  0  0  0  0  0  0  0  0  0
    4.6759    2.5728    4.2983 H   0  0  0  0  0  0  0  0  0  0  0  0
    3.8309    3.9802    4.9591 H   0  0  0  0  0  0  0  0  0  0  0  0
    6.2424    4.4782    4.6099 H   0  0  0  0  0  0  0  0  0  0  0  0
    6.0838    4.0813    2.8948 H   0  0  0  0  0  0  0  0  0  0  0  0
    5.2429    5.4834    3.5544 H   0  0  0  0  0  0  0  0  0  0  0  0
    2.2563    5.2537    3.5728 H   0  0  0  0  0  0  0  0  0  0  0  0
    0.7558    5.2605    1.6332 H   0  0  0  0  0  0  0  0  0  0  0  0
   -0.0162    0.8880   -0.1716 H   0  0  0  0  0  0  0  0  0  0  0  0
   -0.5844   -1.7440   -0.2483 H   0  0  0  0  0  0  0  0  0  0  0  0
    0.9882   -3.4247   -4.7138 H   0  0  0  0  0  0  0  0  0  0  0  0
    1.6611    0.2077   -5.9610 H   0  0  0  0  0  0  0  0  0  0  0  0
    1.3271   -1.5297   -5.9951 H   0  0  0  0  0  0  0  0  0  0  0  0
    3.5142   -1.9710   -4.8629 H   0  0  0  0  0  0  0  0  0  0  0  0
    3.8465   -0.2378   -4.8242 H   0  0  0  0  0  0  0  0  0  0  0  0
    3.7542   -1.0844   -6.3739 H   0  0  0  0  0  0  0  0  0  0  0  0
    2.0487    2.0398   -4.6046 H   0  0  0  0  0  0  0  0  0  0  0  0
    2.4874    7.5206   -2.7781 H   0  0  0  0  0  0  0  0  0  0  0  0
    1.4016    6.7036   -0.5390 H   0  0  0  0  0  0  0  0  0  0  0  0
   -0.6276   -8.7438   -3.0910 H   0  0  0  0  0  0  0  0  0  0  0  0
   -1.4282   -7.6550   -0.8477 H   0  0  0  0  0  0  0  0  0  0  0  0
    1.5810   -3.7294    0.0284 H   0  0  0  0  0  0  0  0  0  0  0  0
    2.8099   -4.3136    2.0646 H   0  0  0  0  0  0  0  0  0  0  0  0
    1.7243   -6.8753    4.4761 H   0  0  0  0  0  0  0  0  0  0  0  0
    3.0765   -5.8649    3.9452 H   0  0  0  0  0  0  0  0  0  0  0  0
    0.5954   -4.8608    5.4236 H   0  0  0  0  0  0  0  0  0  0  0  0
    2.1963   -5.0869    6.1372 H   0  0  0  0  0  0  0  0  0  0  0  0
    1.9438   -3.8546    4.8956 H   0  0  0  0  0  0  0  0  0  0  0  0
   -0.4621   -6.7209    3.3596 H   0  0  0  0  0  0  0  0  0  0  0  0
   -1.7022   -6.1251    1.3289 H   0  0  0  0  0  0  0  0  0  0  0  0
   -1.9372   -3.1476    1.3375 H   0  0  0  0  0  0  0  0  0  0  0  0
   -4.2681   -2.5282    1.7690 H   0  0  0  0  0  0  0  0  0  0  0  0
   -6.6458   -3.0484    1.3812 H   0  0  0  0  0  0  0  0  0  0  0  0
   -7.1476   -3.9058   -0.0831 H   0  0  0  0  0  0  0  0  0  0  0  0
   -6.1070   -1.0318    0.0095 H   0  0  0  0  0  0  0  0  0  0  0  0
   -6.6102   -1.8868   -1.4470 H   0  0  0  0  0  0  0  0  0  0  0  0
   -7.7970   -1.5077   -0.1933 H   0  0  0  0  0  0  0  0  0  0  0  0
   -5.4833   -4.6656   -1.7140 H   0  0  0  0  0  0  0  0  0  0  0  0
   -3.1533   -5.2697   -2.1605 H   0  0  0  0  0  0  0  0  0  0  0  0
   -1.1223    5.1352   -1.8054 H   0  0  0  0  0  0  0  0  0  0  0  0
   -3.4826    5.4126   -1.2117 H   0  0  0  0  0  0  0  0  0  0  0  0
  1  2  1  0  0  0  0
  2  3  1  0  0  0  0
  3  4  2  0  0  0  0
  4  5  1  0  0  0  0
  5  6  2  0  0  0  0
  6  7  1  0  0  0  0
  7  8  1  0  0  0  0
  8  9  2  0  0  0  0
  9 10  1  0  0  0  0
 10 11  2  0  0  0  0
 11 12  1  0  0  0  0
 12 13  1  0  0  0  0
 11 14  1  0  0  0  0
 14 15  2  0  0  0  0
  7 16  1  0  0  0  0
 16 17  2  0  0  0  0
 17 18  1  0  0  0  0
 18 19  1  0  0  0  0
 19 20  2  0  0  0  0
 20 21  1  0  0  0  0
 21 22  2  0  0  0  0
 22 23  1  0  0  0  0
 23 24  2  0  0  0  0
 24 25  1  0  0  0  0
 25 26  1  0  0  0  0
 26 27  1  0  0  0  0
 25 28  1  0  0  0  0
 28 29  1  0  0  0  0
 29 30  2  0  0  0  0
 30 31  1  0  0  0  0
 31 32  1  0  0  0  0
 32 33  1  0  0  0  0
 33 34  2  0  0  0  0
 34 35  1  0  0  0  0
 22 36  1  0  0  0  0
 36 37  1  0  0  0  0
 37 38  1  0  0  0  0
 38 39  2  0  0  0  0
 39 40  1  0  0  0  0
 40 41  1  0  0  0  0
 41 42  1  0  0  0  0
 42 43  2  0  0  0  0
 43 44  1  0  0  0  0
 44 45  2  0  0  0  0
 45 46  1  0  0  0  0
 46 47  1  0  0  0  0
 45 48  1  0  0  0  0
 48 49  2  0  0  0  0
 41 50  1  0  0  0  0
 50 51  2  0  0  0  0
 51 52  1  0  0  0  0
 52 53  2  0  0  0  0
 53 54  1  0  0  0  0
 54 55  1  0  0  0  0
 53 56  1  0  0  0  0
 56 57  2  0  0  0  0
  6 58  1  0  0  0  0
 58 59  2  0  0  0  0
 59  3  1  0  0  0  0
 35  7  1  0  0  0  0
 40 36  2  0  0  0  0
 49 42  1  0  0  0  0
 57 50  1  0  0  0  0
 15  8  1  0  0  0  0
 30 16  1  0  0  0  0
 35 31  2  0  0  0  0
 28 18  2  0  0  0  0
 24 19  1  0  0  0  0
 41 21  1  0  0  0  0
  1 60  1  0  0  0  0
  1 61  1  0  0  0  0
  1 62  1  0  0  0  0
  2 63  1  0  0  0  0
  2 64  1  0  0  0  0
  4 65  1  0  0  0  0
  5 66  1  0  0  0  0
  9 67  1  0  0  0  0
 10 68  1  0  0  0  0
 12 69  1  0  0  0  0
 12 70  1  0  0  0  0
 13 71  1  0  0  0  0
 13 72  1  0  0  0  0
 13 73  1  0  0  0  0
 14 74  1  0  0  0  0
 15 75  1  0  0  0  0
 17 76  1  0  0  0  0
 20 77  1  0  0  0  0
 23 78  1  0  0  0  0
 26 79  1  0  0  0  0
 26 80  1  0  0  0  0
 27 81  1  0  0  0  0
 27 82  1  0  0  0  0
 27 83  1  0  0  0  0
 29 84  1  0  0  0  0
 33 85  1  0  0  0  0
 34 86  1  0  0  0  0
 38 87  1  0  0  0  0
 39 88  1  0  0  0  0
 43 89  1  0  0  0  0
 44 90  1  0  0  0  0
 46 91  1  0  0  0  0
 46 92  1  0  0  0  0
 47 93  1  0  0  0  0
 47 94  1  0  0  0  0
 47 95  1  0  0  0  0
 48 96  1  0  0  0  0
 49 97  1  0  0  0  0
 51 98  1  0  0  0  0
 52 99  1  0  0  0  0
 54100  1  0  0  0  0
 54101  1  0  0  0  0
 55102  1  0  0  0  0
 55103  1  0  0  0  0
 55104  1  0  0  0  0
 56105  1  0  0  0  0
 57106  1  0  0  0  0
 58107  1  0  0  0  0
 59108  1  0  0  0  0
M  END
