
  xtb     01172214263D
 energy: -41.204115677698 gnorm: 0.000419967005 xtb: 6.4.1 (unknown)
 29 31  0     0  0            999 V2000
   -2.6354   -2.3776    0.8325 C   0  0  0  0  0  0  0  0  0  0  0  0
   -2.2241   -0.9152    0.8973 C   0  0  0  0  0  0  0  0  0  0  0  0
   -0.2446   -0.6842    1.1472 Ge  0  0  0  0  0  4  0  0  0  0  0  0
    0.4551   -1.4145    2.8799 C   0  0  0  0  0  0  0  0  0  0  0  0
    1.9553   -1.2069    3.0147 C   0  0  0  0  0  0  0  0  0  0  0  0
    0.8221   -1.2856   -0.3951 C   0  0  0  0  0  0  0  0  0  0  0  0
    1.1266   -2.4696   -1.0911 C   0  0  0  0  0  0  0  0  0  0  0  0
    1.9854   -2.2649   -2.1260 C   0  0  0  0  0  0  0  0  0  0  0  0
    2.4547   -0.6140   -2.2864 S   0  0  0  0  0  0  0  0  0  0  0  0
    1.4745   -0.1934   -0.9316 C   0  0  0  0  0  0  0  0  0  0  0  0
    1.2607    1.0768   -0.3189 C   0  0  0  0  0  0  0  0  0  0  0  0
    1.9135    2.6207   -0.7231 S   0  0  0  0  0  0  0  0  0  0  0  0
    1.0434    3.3412    0.5791 C   0  0  0  0  0  0  0  0  0  0  0  0
    0.2985    2.4412    1.2757 C   0  0  0  0  0  0  0  0  0  0  0  0
    0.4134    1.1336    0.7696 C   0  0  0  0  0  0  0  0  0  0  0  0
   -2.1207   -2.8815    0.0173 H   0  0  0  0  0  0  0  0  0  0  0  0
   -2.3880   -2.8888    1.7607 H   0  0  0  0  0  0  0  0  0  0  0  0
   -3.7080   -2.4680    0.6685 H   0  0  0  0  0  0  0  0  0  0  0  0
   -2.7386   -0.4150    1.7175 H   0  0  0  0  0  0  0  0  0  0  0  0
   -2.5062   -0.4056   -0.0237 H   0  0  0  0  0  0  0  0  0  0  0  0
   -0.0697   -0.9245    3.6999 H   0  0  0  0  0  0  0  0  0  0  0  0
    0.2171   -2.4768    2.9305 H   0  0  0  0  0  0  0  0  0  0  0  0
    2.1986   -0.1466    2.9793 H   0  0  0  0  0  0  0  0  0  0  0  0
    2.4830   -1.7011    2.2010 H   0  0  0  0  0  0  0  0  0  0  0  0
    2.3184   -1.6125    3.9575 H   0  0  0  0  0  0  0  0  0  0  0  0
    0.7278   -3.4362   -0.8348 H   0  0  0  0  0  0  0  0  0  0  0  0
    2.3806   -2.9843   -2.8164 H   0  0  0  0  0  0  0  0  0  0  0  0
    1.1413    4.3963    0.7453 H   0  0  0  0  0  0  0  0  0  0  0  0
   -0.3117    2.7046    2.1224 H   0  0  0  0  0  0  0  0  0  0  0  0
  1  2  1  0  0  0  0
  2  3  1  0  0  0  0
  3  4  1  0  0  0  0
  4  5  1  0  0  0  0
  3  6  1  0  0  0  0
  6  7  1  0  0  0  0
  7  8  2  0  0  0  0
  8  9  1  0  0  0  0
  9 10  1  0  0  0  0
 10 11  1  0  0  0  0
 11 12  1  0  0  0  0
 12 13  1  0  0  0  0
 13 14  2  0  0  0  0
 14 15  1  0  0  0  0
 15  3  1  0  0  0  0
 10  6  2  0  0  0  0
 15 11  2  0  0  0  0
  1 16  1  0  0  0  0
  1 17  1  0  0  0  0
  1 18  1  0  0  0  0
  2 19  1  0  0  0  0
  2 20  1  0  0  0  0
  4 21  1  0  0  0  0
  4 22  1  0  0  0  0
  5 23  1  0  0  0  0
  5 24  1  0  0  0  0
  5 25  1  0  0  0  0
  7 26  1  0  0  0  0
  8 27  1  0  0  0  0
 13 28  1  0  0  0  0
 14 29  1  0  0  0  0
M  END
