
  xtb     01172214263D
 energy: -80.768942681583 gnorm: 0.000375495778 xtb: 6.4.1 (unknown)
 58 63  0     0  0            999 V2000
    3.9250    0.4952    4.0540 C   0  0  0  0  0  0  0  0  0  0  0  0
    4.2243    0.0647    2.6248 C   0  0  0  0  0  0  0  0  0  0  0  0
    3.4475    0.7768    1.4951 C   0  0  0  0  0  0  0  0  0  0  0  0
    3.6213    2.3148    1.5055 C   0  0  0  0  0  0  0  0  0  0  0  0
    2.6001    3.1233    2.2966 C   0  0  0  0  0  0  0  0  0  0  0  0
    3.9954    0.2576    0.1876 C   0  0  0  0  0  0  0  0  0  0  0  0
    5.2362    0.2740   -0.4713 C   0  0  0  0  0  0  0  0  0  0  0  0
    5.1698   -0.3551   -1.6778 C   0  0  0  0  0  0  0  0  0  0  0  0
    3.5983   -0.9770   -2.0363 S   0  0  0  0  0  0  0  0  0  0  0  0
    3.0112   -0.3797   -0.5316 C   0  0  0  0  0  0  0  0  0  0  0  0
    1.7722   -0.3623    0.1929 C   0  0  0  0  0  0  0  0  0  0  0  0
    2.0020    0.3119    1.3948 C   0  0  0  0  0  0  0  0  0  0  0  0
    0.9622    0.4512    2.3141 C   0  0  0  0  0  0  0  0  0  0  0  0
   -0.2786   -0.0615    2.0248 C   0  0  0  0  0  0  0  0  0  0  0  0
   -0.5351   -0.7304    0.8144 C   0  0  0  0  0  0  0  0  0  0  0  0
   -1.8002   -1.2587    0.4795 C   0  0  0  0  0  0  0  0  0  0  0  0
   -2.0198   -1.9312   -0.7232 C   0  0  0  0  0  0  0  0  0  0  0  0
   -0.9907   -2.0547   -1.6546 C   0  0  0  0  0  0  0  0  0  0  0  0
    0.2514   -1.5473   -1.3614 C   0  0  0  0  0  0  0  0  0  0  0  0
    0.5083   -0.8953   -0.1405 C   0  0  0  0  0  0  0  0  0  0  0  0
   -3.4576   -2.4061   -0.8309 C   0  0  0  0  0  0  0  0  0  0  0  0
   -4.1547   -1.8723   -2.0904 C   0  0  0  0  0  0  0  0  0  0  0  0
   -4.1718   -0.3489   -2.1434 C   0  0  0  0  0  0  0  0  0  0  0  0
   -3.5726   -3.9446   -0.7217 C   0  0  0  0  0  0  0  0  0  0  0  0
   -2.8929   -4.7441   -1.8252 C   0  0  0  0  0  0  0  0  0  0  0  0
   -4.0402   -1.8310    0.4331 C   0  0  0  0  0  0  0  0  0  0  0  0
   -5.2978   -1.8040    1.0581 C   0  0  0  0  0  0  0  0  0  0  0  0
   -5.2467   -1.1586    2.2570 C   0  0  0  0  0  0  0  0  0  0  0  0
   -3.6677   -0.5791    2.6527 S   0  0  0  0  0  0  0  0  0  0  0  0
   -3.0563   -1.2142    1.1740 C   0  0  0  0  0  0  0  0  0  0  0  0
    4.1598    1.5449    4.2063 H   0  0  0  0  0  0  0  0  0  0  0  0
    2.8852    0.3195    4.3108 H   0  0  0  0  0  0  0  0  0  0  0  0
    4.5410   -0.0874    4.7369 H   0  0  0  0  0  0  0  0  0  0  0  0
    4.0298   -1.0072    2.5305 H   0  0  0  0  0  0  0  0  0  0  0  0
    5.2895    0.2215    2.4343 H   0  0  0  0  0  0  0  0  0  0  0  0
    3.5760    2.6579    0.4681 H   0  0  0  0  0  0  0  0  0  0  0  0
    4.6257    2.5337    1.8752 H   0  0  0  0  0  0  0  0  0  0  0  0
    1.6025    2.9882    1.8868 H   0  0  0  0  0  0  0  0  0  0  0  0
    2.5859    2.8488    3.3465 H   0  0  0  0  0  0  0  0  0  0  0  0
    2.8544    4.1796    2.2274 H   0  0  0  0  0  0  0  0  0  0  0  0
    6.1346    0.7238   -0.0877 H   0  0  0  0  0  0  0  0  0  0  0  0
    5.9543   -0.4972   -2.3947 H   0  0  0  0  0  0  0  0  0  0  0  0
    1.1152    0.9598    3.2518 H   0  0  0  0  0  0  0  0  0  0  0  0
   -1.0832    0.0453    2.7374 H   0  0  0  0  0  0  0  0  0  0  0  0
   -1.1667   -2.5270   -2.6090 H   0  0  0  0  0  0  0  0  0  0  0  0
    1.0528   -1.6366   -2.0797 H   0  0  0  0  0  0  0  0  0  0  0  0
   -5.1799   -2.2494   -2.1091 H   0  0  0  0  0  0  0  0  0  0  0  0
   -3.6387   -2.2521   -2.9732 H   0  0  0  0  0  0  0  0  0  0  0  0
   -3.1580    0.0449   -2.1224 H   0  0  0  0  0  0  0  0  0  0  0  0
   -4.6555   -0.0101   -3.0568 H   0  0  0  0  0  0  0  0  0  0  0  0
   -4.7149    0.0601   -1.2944 H   0  0  0  0  0  0  0  0  0  0  0  0
   -4.6367   -4.1934   -0.7029 H   0  0  0  0  0  0  0  0  0  0  0  0
   -3.1465   -4.2436    0.2396 H   0  0  0  0  0  0  0  0  0  0  0  0
   -1.8179   -4.5886   -1.8101 H   0  0  0  0  0  0  0  0  0  0  0  0
   -3.2770   -4.4750   -2.8057 H   0  0  0  0  0  0  0  0  0  0  0  0
   -3.0830   -5.8042   -1.6692 H   0  0  0  0  0  0  0  0  0  0  0  0
   -6.1994   -2.2272    0.6522 H   0  0  0  0  0  0  0  0  0  0  0  0
   -6.0473   -0.9799    2.9475 H   0  0  0  0  0  0  0  0  0  0  0  0
  1  2  1  0  0  0  0
  2  3  1  0  0  0  0
  3  4  1  0  0  0  0
  4  5  1  0  0  0  0
  3  6  1  0  0  0  0
  6  7  1  0  0  0  0
  7  8  2  0  0  0  0
  8  9  1  0  0  0  0
  9 10  1  0  0  0  0
 10 11  1  0  0  0  0
 11 12  2  0  0  0  0
 12 13  1  0  0  0  0
 13 14  2  0  0  0  0
 14 15  1  0  0  0  0
 15 16  2  0  0  0  0
 16 17  1  0  0  0  0
 17 18  2  0  0  0  0
 18 19  1  0  0  0  0
 19 20  2  0  0  0  0
 17 21  1  0  0  0  0
 21 22  1  0  0  0  0
 22 23  1  0  0  0  0
 21 24  1  0  0  0  0
 24 25  1  0  0  0  0
 21 26  1  0  0  0  0
 26 27  1  0  0  0  0
 27 28  2  0  0  0  0
 28 29  1  0  0  0  0
 29 30  1  0  0  0  0
 12  3  1  0  0  0  0
 20 15  1  0  0  0  0
 30 26  2  0  0  0  0
 10  6  2  0  0  0  0
 20 11  1  0  0  0  0
 30 16  1  0  0  0  0
  1 31  1  0  0  0  0
  1 32  1  0  0  0  0
  1 33  1  0  0  0  0
  2 34  1  0  0  0  0
  2 35  1  0  0  0  0
  4 36  1  0  0  0  0
  4 37  1  0  0  0  0
  5 38  1  0  0  0  0
  5 39  1  0  0  0  0
  5 40  1  0  0  0  0
  7 41  1  0  0  0  0
  8 42  1  0  0  0  0
 13 43  1  0  0  0  0
 14 44  1  0  0  0  0
 18 45  1  0  0  0  0
 19 46  1  0  0  0  0
 22 47  1  0  0  0  0
 22 48  1  0  0  0  0
 23 49  1  0  0  0  0
 23 50  1  0  0  0  0
 23 51  1  0  0  0  0
 24 52  1  0  0  0  0
 24 53  1  0  0  0  0
 25 54  1  0  0  0  0
 25 55  1  0  0  0  0
 25 56  1  0  0  0  0
 27 57  1  0  0  0  0
 28 58  1  0  0  0  0
M  END
