
  xtb     01172214263D
 energy: -172.620501889180 gnorm: 0.000246932696 xtb: 6.4.1 (unknown)
118131  0     0  0            999 V2000
    5.7384   -0.5424   -6.4475 C   0  0  0  0  0  0  0  0  0  0  0  0
    6.8211   -1.1432   -5.5488 C   0  0  0  0  0  0  0  0  0  0  0  0
    6.2693   -1.4302   -4.1818 C   0  0  0  0  0  0  0  0  0  0  0  0
    6.3003   -0.4667   -3.1826 C   0  0  0  0  0  0  0  0  0  0  0  0
    5.7595   -0.7192   -1.9362 C   0  0  0  0  0  0  0  0  0  0  0  0
    5.1784   -1.9479   -1.6487 C   0  0  0  0  0  0  0  0  0  0  0  0
    4.5423   -2.1734   -0.2884 C   0  0  0  0  0  0  0  0  0  0  0  0
    4.5111   -3.6441    0.1242 C   0  0  0  0  0  0  0  0  0  0  0  0
    5.6004   -4.4726   -0.1216 C   0  0  0  0  0  0  0  0  0  0  0  0
    5.6066   -5.7826    0.3164 C   0  0  0  0  0  0  0  0  0  0  0  0
    4.5307   -6.3053    1.0217 C   0  0  0  0  0  0  0  0  0  0  0  0
    4.5632   -7.7137    1.5417 C   0  0  0  0  0  0  0  0  0  0  0  0
    5.2035   -7.7544    2.9306 C   0  0  0  0  0  0  0  0  0  0  0  0
    3.4504   -5.4734    1.2780 C   0  0  0  0  0  0  0  0  0  0  0  0
    3.4395   -4.1616    0.8395 C   0  0  0  0  0  0  0  0  0  0  0  0
    5.3496   -1.5056    0.8017 C   0  0  0  0  0  0  0  0  0  0  0  0
    6.7459   -1.6600    0.9689 C   0  0  0  0  0  0  0  0  0  0  0  0
    7.2215   -1.0232    2.0679 C   0  0  0  0  0  0  0  0  0  0  0  0
    5.9831   -0.2120    2.9431 S   0  0  0  0  0  0  0  0  0  0  0  0
    4.7869   -0.7395    1.7940 C   0  0  0  0  0  0  0  0  0  0  0  0
    3.4073   -0.3522    1.8396 C   0  0  0  0  0  0  0  0  0  0  0  0
    2.8882    0.4193    2.8767 C   0  0  0  0  0  0  0  0  0  0  0  0
    1.5436    0.8051    2.8095 C   0  0  0  0  0  0  0  0  0  0  0  0
    0.8575    0.3791    1.6730 C   0  0  0  0  0  0  0  0  0  0  0  0
    1.3071   -0.3809    0.6084 C   0  0  0  0  0  0  0  0  0  0  0  0
    2.6480   -0.7932    0.6953 C   0  0  0  0  0  0  0  0  0  0  0  0
    3.1350   -1.6077   -0.3383 C   0  0  0  0  0  0  0  0  0  0  0  0
    2.2693   -1.9213   -1.3772 C   0  0  0  0  0  0  0  0  0  0  0  0
    0.9485   -1.4779   -1.4486 C   0  0  0  0  0  0  0  0  0  0  0  0
    0.4042   -0.6872   -0.4445 C   0  0  0  0  0  0  0  0  0  0  0  0
   -0.9692   -0.1701   -0.3804 C   0  0  0  0  0  0  0  0  0  0  0  0
   -1.9647   -0.3350   -1.3353 C   0  0  0  0  0  0  0  0  0  0  0  0
   -3.2273    0.2329   -1.1622 C   0  0  0  0  0  0  0  0  0  0  0  0
   -3.5950    0.9740   -0.0476 C   0  0  0  0  0  0  0  0  0  0  0  0
   -2.6380    1.1552    0.9624 C   0  0  0  0  0  0  0  0  0  0  0  0
   -2.8492    1.8776    2.1929 C   0  0  0  0  0  0  0  0  0  0  0  0
   -1.8658    2.0924    3.1557 C   0  0  0  0  0  0  0  0  0  0  0  0
   -0.5880    1.5654    2.9297 C   0  0  0  0  0  0  0  0  0  0  0  0
   -0.4419    0.8431    1.7461 C   0  0  0  0  0  0  0  0  0  0  0  0
   -1.3679    0.5923    0.7498 C   0  0  0  0  0  0  0  0  0  0  0  0
    0.6462    1.5469    3.5682 N   0  0  0  0  0  0  0  0  0  0  0  0
    0.9251    2.1220    4.8576 C   0  0  0  0  0  0  0  0  0  0  0  0
    0.6335    1.1380    5.9903 C   0  0  0  0  0  0  0  0  0  0  0  0
   -4.2022    2.3173    2.3718 C   0  0  0  0  0  0  0  0  0  0  0  0
   -4.8050    3.0389    3.8364 S   0  0  0  0  0  0  0  0  0  0  0  0
   -6.3959    3.0972    3.1857 C   0  0  0  0  0  0  0  0  0  0  0  0
   -6.4578    2.5996    1.9254 C   0  0  0  0  0  0  0  0  0  0  0  0
   -5.2049    2.1494    1.4472 C   0  0  0  0  0  0  0  0  0  0  0  0
   -4.9607    1.6281    0.0494 C   0  0  0  0  0  0  0  0  0  0  0  0
   -5.9995    0.5895   -0.3335 C   0  0  0  0  0  0  0  0  0  0  0  0
   -6.4652    0.4590   -1.6361 C   0  0  0  0  0  0  0  0  0  0  0  0
   -7.3640   -0.5385   -1.9661 C   0  0  0  0  0  0  0  0  0  0  0  0
   -7.8171   -1.4380   -1.0109 C   0  0  0  0  0  0  0  0  0  0  0  0
   -8.7553   -2.5488   -1.3872 C   0  0  0  0  0  0  0  0  0  0  0  0
   -7.9689   -3.7692   -1.8700 C   0  0  0  0  0  0  0  0  0  0  0  0
   -7.3355   -1.3178    0.2857 C   0  0  0  0  0  0  0  0  0  0  0  0
   -6.4370   -0.3220    0.6193 C   0  0  0  0  0  0  0  0  0  0  0  0
   -5.0111    2.8806   -0.8248 C   0  0  0  0  0  0  0  0  0  0  0  0
   -6.2307    3.4394   -1.1905 C   0  0  0  0  0  0  0  0  0  0  0  0
   -6.2821    4.6110   -1.9206 C   0  0  0  0  0  0  0  0  0  0  0  0
   -5.1190    5.2677   -2.3005 C   0  0  0  0  0  0  0  0  0  0  0  0
   -5.1788    6.5677   -3.0499 C   0  0  0  0  0  0  0  0  0  0  0  0
   -5.2731    7.7420   -2.0737 C   0  0  0  0  0  0  0  0  0  0  0  0
   -3.9034    4.7169   -1.9217 C   0  0  0  0  0  0  0  0  0  0  0  0
   -3.8476    3.5427   -1.1927 C   0  0  0  0  0  0  0  0  0  0  0  0
    5.1247   -2.9049   -2.6546 C   0  0  0  0  0  0  0  0  0  0  0  0
    5.6666   -2.6486   -3.9006 C   0  0  0  0  0  0  0  0  0  0  0  0
    6.1372   -0.3322   -7.4374 H   0  0  0  0  0  0  0  0  0  0  0  0
    4.9044   -1.2334   -6.5478 H   0  0  0  0  0  0  0  0  0  0  0  0
    5.3633    0.3843   -6.0189 H   0  0  0  0  0  0  0  0  0  0  0  0
    7.1911   -2.0664   -6.0001 H   0  0  0  0  0  0  0  0  0  0  0  0
    7.6550   -0.4423   -5.4722 H   0  0  0  0  0  0  0  0  0  0  0  0
    6.7537    0.4941   -3.3824 H   0  0  0  0  0  0  0  0  0  0  0  0
    5.7886    0.0481   -1.1756 H   0  0  0  0  0  0  0  0  0  0  0  0
    6.4513   -4.0976   -0.6707 H   0  0  0  0  0  0  0  0  0  0  0  0
    6.4623   -6.4093    0.1069 H   0  0  0  0  0  0  0  0  0  0  0  0
    5.1379   -8.3468    0.8622 H   0  0  0  0  0  0  0  0  0  0  0  0
    3.5475   -8.1102    1.6018 H   0  0  0  0  0  0  0  0  0  0  0  0
    4.6392   -7.1353    3.6244 H   0  0  0  0  0  0  0  0  0  0  0  0
    6.2226   -7.3763    2.8881 H   0  0  0  0  0  0  0  0  0  0  0  0
    5.2258   -8.7729    3.3116 H   0  0  0  0  0  0  0  0  0  0  0  0
    2.6024   -5.8547    1.8294 H   0  0  0  0  0  0  0  0  0  0  0  0
    2.5847   -3.5392    1.0586 H   0  0  0  0  0  0  0  0  0  0  0  0
    7.3733   -2.2089    0.2906 H   0  0  0  0  0  0  0  0  0  0  0  0
    8.2305   -0.9752    2.4260 H   0  0  0  0  0  0  0  0  0  0  0  0
    3.5394    0.6987    3.6930 H   0  0  0  0  0  0  0  0  0  0  0  0
    2.6328   -2.5484   -2.1782 H   0  0  0  0  0  0  0  0  0  0  0  0
    0.3538   -1.7745   -2.2999 H   0  0  0  0  0  0  0  0  0  0  0  0
   -1.7748   -0.8962   -2.2382 H   0  0  0  0  0  0  0  0  0  0  0  0
   -3.9554    0.0883   -1.9471 H   0  0  0  0  0  0  0  0  0  0  0  0
   -2.1228    2.6482    4.0466 H   0  0  0  0  0  0  0  0  0  0  0  0
    0.3105    3.0193    4.9761 H   0  0  0  0  0  0  0  0  0  0  0  0
    1.9782    2.4175    4.8828 H   0  0  0  0  0  0  0  0  0  0  0  0
    0.8596    1.5944    6.9502 H   0  0  0  0  0  0  0  0  0  0  0  0
    1.2407    0.2429    5.8759 H   0  0  0  0  0  0  0  0  0  0  0  0
   -0.4150    0.8493    5.9774 H   0  0  0  0  0  0  0  0  0  0  0  0
   -7.1898    3.4985    3.7835 H   0  0  0  0  0  0  0  0  0  0  0  0
   -7.3708    2.5396    1.3613 H   0  0  0  0  0  0  0  0  0  0  0  0
   -6.1300    1.1446   -2.4014 H   0  0  0  0  0  0  0  0  0  0  0  0
   -7.7186   -0.6185   -2.9844 H   0  0  0  0  0  0  0  0  0  0  0  0
   -9.3628   -2.8300   -0.5246 H   0  0  0  0  0  0  0  0  0  0  0  0
   -9.4250   -2.2151   -2.1828 H   0  0  0  0  0  0  0  0  0  0  0  0
   -8.6450   -4.5769   -2.1412 H   0  0  0  0  0  0  0  0  0  0  0  0
   -7.3681   -3.5117   -2.7395 H   0  0  0  0  0  0  0  0  0  0  0  0
   -7.3011   -4.1218   -1.0871 H   0  0  0  0  0  0  0  0  0  0  0  0
   -7.6664   -2.0134    1.0441 H   0  0  0  0  0  0  0  0  0  0  0  0
   -6.0685   -0.2524    1.6329 H   0  0  0  0  0  0  0  0  0  0  0  0
   -7.1531    2.9511   -0.9134 H   0  0  0  0  0  0  0  0  0  0  0  0
   -7.2423    5.0220   -2.1999 H   0  0  0  0  0  0  0  0  0  0  0  0
   -4.2839    6.6819   -3.6650 H   0  0  0  0  0  0  0  0  0  0  0  0
   -6.0500    6.5767   -3.7084 H   0  0  0  0  0  0  0  0  0  0  0  0
   -6.1686    7.6543   -1.4623 H   0  0  0  0  0  0  0  0  0  0  0  0
   -4.4091    7.7533   -1.4129 H   0  0  0  0  0  0  0  0  0  0  0  0
   -5.3112    8.6856   -2.6134 H   0  0  0  0  0  0  0  0  0  0  0  0
   -2.9834    5.2116   -2.1998 H   0  0  0  0  0  0  0  0  0  0  0  0
   -2.8849    3.1426   -0.9117 H   0  0  0  0  0  0  0  0  0  0  0  0
    4.6640   -3.8640   -2.4649 H   0  0  0  0  0  0  0  0  0  0  0  0
    5.6211   -3.4103   -4.6666 H   0  0  0  0  0  0  0  0  0  0  0  0
  1  2  1  0  0  0  0
  2  3  1  0  0  0  0
  3  4  2  0  0  0  0
  4  5  1  0  0  0  0
  5  6  2  0  0  0  0
  6  7  1  0  0  0  0
  7  8  1  0  0  0  0
  8  9  2  0  0  0  0
  9 10  1  0  0  0  0
 10 11  2  0  0  0  0
 11 12  1  0  0  0  0
 12 13  1  0  0  0  0
 11 14  1  0  0  0  0
 14 15  2  0  0  0  0
  7 16  1  0  0  0  0
 16 17  1  0  0  0  0
 17 18  2  0  0  0  0
 18 19  1  0  0  0  0
 19 20  1  0  0  0  0
 20 21  1  0  0  0  0
 21 22  2  0  0  0  0
 22 23  1  0  0  0  0
 23 24  2  0  0  0  0
 24 25  1  0  0  0  0
 25 26  2  0  0  0  0
 26 27  1  0  0  0  0
 27 28  2  0  0  0  0
 28 29  1  0  0  0  0
 29 30  2  0  0  0  0
 30 31  1  0  0  0  0
 31 32  2  0  0  0  0
 32 33  1  0  0  0  0
 33 34  2  0  0  0  0
 34 35  1  0  0  0  0
 35 36  1  0  0  0  0
 36 37  2  0  0  0  0
 37 38  1  0  0  0  0
 38 39  2  0  0  0  0
 39 40  1  0  0  0  0
 38 41  1  0  0  0  0
 41 42  1  0  0  0  0
 42 43  1  0  0  0  0
 36 44  1  0  0  0  0
 44 45  1  0  0  0  0
 45 46  1  0  0  0  0
 46 47  2  0  0  0  0
 47 48  1  0  0  0  0
 48 49  1  0  0  0  0
 49 50  1  0  0  0  0
 50 51  2  0  0  0  0
 51 52  1  0  0  0  0
 52 53  2  0  0  0  0
 53 54  1  0  0  0  0
 54 55  1  0  0  0  0
 53 56  1  0  0  0  0
 56 57  2  0  0  0  0
 49 58  1  0  0  0  0
 58 59  2  0  0  0  0
 59 60  1  0  0  0  0
 60 61  2  0  0  0  0
 61 62  1  0  0  0  0
 62 63  1  0  0  0  0
 61 64  1  0  0  0  0
 64 65  2  0  0  0  0
  6 66  1  0  0  0  0
 66 67  2  0  0  0  0
 67  3  1  0  0  0  0
 27  7  1  0  0  0  0
 40 31  1  0  0  0  0
 48 44  2  0  0  0  0
 57 50  1  0  0  0  0
 65 58  1  0  0  0  0
 15  8  1  0  0  0  0
 20 16  2  0  0  0  0
 26 21  1  0  0  0  0
 49 34  1  0  0  0  0
 41 23  1  0  0  0  0
 39 24  1  0  0  0  0
 30 25  1  0  0  0  0
 40 35  2  0  0  0  0
  1 68  1  0  0  0  0
  1 69  1  0  0  0  0
  1 70  1  0  0  0  0
  2 71  1  0  0  0  0
  2 72  1  0  0  0  0
  4 73  1  0  0  0  0
  5 74  1  0  0  0  0
  9 75  1  0  0  0  0
 10 76  1  0  0  0  0
 12 77  1  0  0  0  0
 12 78  1  0  0  0  0
 13 79  1  0  0  0  0
 13 80  1  0  0  0  0
 13 81  1  0  0  0  0
 14 82  1  0  0  0  0
 15 83  1  0  0  0  0
 17 84  1  0  0  0  0
 18 85  1  0  0  0  0
 22 86  1  0  0  0  0
 28 87  1  0  0  0  0
 29 88  1  0  0  0  0
 32 89  1  0  0  0  0
 33 90  1  0  0  0  0
 37 91  1  0  0  0  0
 42 92  1  0  0  0  0
 42 93  1  0  0  0  0
 43 94  1  0  0  0  0
 43 95  1  0  0  0  0
 43 96  1  0  0  0  0
 46 97  1  0  0  0  0
 47 98  1  0  0  0  0
 51 99  1  0  0  0  0
 52100  1  0  0  0  0
 54101  1  0  0  0  0
 54102  1  0  0  0  0
 55103  1  0  0  0  0
 55104  1  0  0  0  0
 55105  1  0  0  0  0
 56106  1  0  0  0  0
 57107  1  0  0  0  0
 59108  1  0  0  0  0
 60109  1  0  0  0  0
 62110  1  0  0  0  0
 62111  1  0  0  0  0
 63112  1  0  0  0  0
 63113  1  0  0  0  0
 63114  1  0  0  0  0
 64115  1  0  0  0  0
 65116  1  0  0  0  0
 66117  1  0  0  0  0
 67118  1  0  0  0  0
M  END
