
  xtb     01172214273D
 energy: -169.491419624377 gnorm: 0.000634147686 xtb: 6.4.1 (unknown)
114126  0     0  0            999 V2000
    8.4860   -0.9514    1.7501 C   0  0  0  0  0  0  0  0  0  0  0  0
    7.4299    0.0659    1.3134 C   0  0  0  0  0  0  0  0  0  0  0  0
    6.2853   -0.6286    0.6327 C   0  0  0  0  0  0  0  0  0  0  0  0
    6.3444   -0.9293   -0.7224 C   0  0  0  0  0  0  0  0  0  0  0  0
    5.3152   -1.6093   -1.3429 C   0  0  0  0  0  0  0  0  0  0  0  0
    4.1949   -2.0061   -0.6220 C   0  0  0  0  0  0  0  0  0  0  0  0
    3.1187   -2.8188   -1.3195 C   0  0  0  0  0  0  0  0  0  0  0  0
    2.7619   -2.2433   -2.6730 C   0  0  0  0  0  0  0  0  0  0  0  0
    2.4556   -3.0659   -3.7474 C   0  0  0  0  0  0  0  0  0  0  0  0
    2.0838   -2.5233   -4.9639 C   0  0  0  0  0  0  0  0  0  0  0  0
    2.0018   -1.1488   -5.1373 C   0  0  0  0  0  0  0  0  0  0  0  0
    1.5572   -0.5590   -6.4452 C   0  0  0  0  0  0  0  0  0  0  0  0
    0.0452   -0.3250   -6.4423 C   0  0  0  0  0  0  0  0  0  0  0  0
    2.2975   -0.3293   -4.0555 C   0  0  0  0  0  0  0  0  0  0  0  0
    2.6725   -0.8666   -2.8395 C   0  0  0  0  0  0  0  0  0  0  0  0
    1.8461   -2.9812   -0.5007 C   0  0  0  0  0  0  0  0  0  0  0  0
    0.9186   -2.0234   -0.1796 C   0  0  0  0  0  0  0  0  0  0  0  0
   -0.1733   -2.4169    0.5938 C   0  0  0  0  0  0  0  0  0  0  0  0
   -1.3037   -1.7057    1.1034 C   0  0  0  0  0  0  0  0  0  0  0  0
   -1.7193   -0.3801    0.9772 C   0  0  0  0  0  0  0  0  0  0  0  0
   -2.8924   -0.0221    1.5909 C   0  0  0  0  0  0  0  0  0  0  0  0
   -3.6376   -0.9629    2.3479 C   0  0  0  0  0  0  0  0  0  0  0  0
   -3.2485   -2.2834    2.4800 C   0  0  0  0  0  0  0  0  0  0  0  0
   -2.0709   -2.6458    1.8406 C   0  0  0  0  0  0  0  0  0  0  0  0
   -1.4475   -3.8692    1.7985 N   0  0  0  0  0  0  0  0  0  0  0  0
   -1.9536   -5.0865    2.3729 C   0  0  0  0  0  0  0  0  0  0  0  0
   -2.8730   -5.8284    1.4036 C   0  0  0  0  0  0  0  0  0  0  0  0
   -0.3121   -3.7599    1.0331 C   0  0  0  0  0  0  0  0  0  0  0  0
    0.6098   -4.7387    0.6876 C   0  0  0  0  0  0  0  0  0  0  0  0
    1.6810   -4.3276   -0.0845 C   0  0  0  0  0  0  0  0  0  0  0  0
    2.7874   -5.0632   -0.6237 C   0  0  0  0  0  0  0  0  0  0  0  0
    3.3124   -6.7151   -0.5646 S   0  0  0  0  0  0  0  0  0  0  0  0
    4.6818   -6.2979   -1.5495 C   0  0  0  0  0  0  0  0  0  0  0  0
    5.7634   -7.0290   -2.0773 C   0  0  0  0  0  0  0  0  0  0  0  0
    6.5861   -6.2308   -2.8048 C   0  0  0  0  0  0  0  0  0  0  0  0
    6.0749   -4.5757   -2.8694 S   0  0  0  0  0  0  0  0  0  0  0  0
    4.7027   -4.9430   -1.8872 C   0  0  0  0  0  0  0  0  0  0  0  0
    3.6117   -4.2412   -1.3604 C   0  0  0  0  0  0  0  0  0  0  0  0
   -4.7699   -0.2605    2.8774 C   0  0  0  0  0  0  0  0  0  0  0  0
   -6.1245   -0.6838    3.8744 S   0  0  0  0  0  0  0  0  0  0  0  0
   -6.6881    0.9571    3.7767 C   0  0  0  0  0  0  0  0  0  0  0  0
   -7.7969    1.6419    4.3101 C   0  0  0  0  0  0  0  0  0  0  0  0
   -7.7899    2.9485    3.9417 C   0  0  0  0  0  0  0  0  0  0  0  0
   -6.4438    3.3838    2.9400 S   0  0  0  0  0  0  0  0  0  0  0  0
   -5.8506    1.7631    3.0028 C   0  0  0  0  0  0  0  0  0  0  0  0
   -4.7494    1.0628    2.4956 C   0  0  0  0  0  0  0  0  0  0  0  0
   -3.5758    1.3378    1.5927 C   0  0  0  0  0  0  0  0  0  0  0  0
   -2.6172    2.3836    2.1191 C   0  0  0  0  0  0  0  0  0  0  0  0
   -1.7283    3.0081    1.2527 C   0  0  0  0  0  0  0  0  0  0  0  0
   -0.8183    3.9331    1.7266 C   0  0  0  0  0  0  0  0  0  0  0  0
   -0.7686    4.2586    3.0759 C   0  0  0  0  0  0  0  0  0  0  0  0
    0.1852    5.3047    3.5776 C   0  0  0  0  0  0  0  0  0  0  0  0
   -0.4512    6.6932    3.4890 C   0  0  0  0  0  0  0  0  0  0  0  0
   -1.6547    3.6284    3.9385 C   0  0  0  0  0  0  0  0  0  0  0  0
   -2.5636    2.6978    3.4694 C   0  0  0  0  0  0  0  0  0  0  0  0
   -4.1520    1.7290    0.2428 C   0  0  0  0  0  0  0  0  0  0  0  0
   -4.2972    0.8133   -0.7887 C   0  0  0  0  0  0  0  0  0  0  0  0
   -4.8896    1.1906   -1.9806 C   0  0  0  0  0  0  0  0  0  0  0  0
   -5.3584    2.4829   -2.1695 C   0  0  0  0  0  0  0  0  0  0  0  0
   -6.0522    2.8723   -3.4434 C   0  0  0  0  0  0  0  0  0  0  0  0
   -7.5581    2.6295   -3.3238 C   0  0  0  0  0  0  0  0  0  0  0  0
   -5.2185    3.3934   -1.1297 C   0  0  0  0  0  0  0  0  0  0  0  0
   -4.6239    3.0238    0.0606 C   0  0  0  0  0  0  0  0  0  0  0  0
    4.1346   -1.7169    0.7329 C   0  0  0  0  0  0  0  0  0  0  0  0
    5.1677   -1.0328    1.3487 C   0  0  0  0  0  0  0  0  0  0  0  0
    9.3178   -0.4522    2.2420 H   0  0  0  0  0  0  0  0  0  0  0  0
    8.0534   -1.6707    2.4419 H   0  0  0  0  0  0  0  0  0  0  0  0
    8.8664   -1.4942    0.8878 H   0  0  0  0  0  0  0  0  0  0  0  0
    7.0675    0.6077    2.1893 H   0  0  0  0  0  0  0  0  0  0  0  0
    7.8856    0.7858    0.6302 H   0  0  0  0  0  0  0  0  0  0  0  0
    7.2075   -0.6279   -1.2989 H   0  0  0  0  0  0  0  0  0  0  0  0
    5.3778   -1.8326   -2.3982 H   0  0  0  0  0  0  0  0  0  0  0  0
    2.5085   -4.1394   -3.6363 H   0  0  0  0  0  0  0  0  0  0  0  0
    1.8558   -3.1796   -5.7920 H   0  0  0  0  0  0  0  0  0  0  0  0
    1.8153   -1.2342   -7.2633 H   0  0  0  0  0  0  0  0  0  0  0  0
    2.0669    0.3921   -6.6137 H   0  0  0  0  0  0  0  0  0  0  0  0
   -0.2762    0.1047   -7.3885 H   0  0  0  0  0  0  0  0  0  0  0  0
   -0.4820   -1.2641   -6.2894 H   0  0  0  0  0  0  0  0  0  0  0  0
   -0.2309    0.3551   -5.6397 H   0  0  0  0  0  0  0  0  0  0  0  0
    2.2372    0.7442   -4.1680 H   0  0  0  0  0  0  0  0  0  0  0  0
    2.9112   -0.2115   -2.0139 H   0  0  0  0  0  0  0  0  0  0  0  0
    1.0248   -1.0004   -0.5051 H   0  0  0  0  0  0  0  0  0  0  0  0
   -1.1375    0.3288    0.4091 H   0  0  0  0  0  0  0  0  0  0  0  0
   -3.8427   -2.9802    3.0509 H   0  0  0  0  0  0  0  0  0  0  0  0
   -1.1048   -5.7200    2.6440 H   0  0  0  0  0  0  0  0  0  0  0  0
   -2.4965   -4.8377    3.2887 H   0  0  0  0  0  0  0  0  0  0  0  0
   -2.3346   -6.0788    0.4925 H   0  0  0  0  0  0  0  0  0  0  0  0
   -3.7238   -5.2042    1.1405 H   0  0  0  0  0  0  0  0  0  0  0  0
   -3.2379   -6.7452    1.8587 H   0  0  0  0  0  0  0  0  0  0  0  0
    0.5105   -5.7694    0.9913 H   0  0  0  0  0  0  0  0  0  0  0  0
    5.9177   -8.0811   -1.9240 H   0  0  0  0  0  0  0  0  0  0  0  0
    7.4837   -6.5089   -3.3203 H   0  0  0  0  0  0  0  0  0  0  0  0
   -8.5502    1.1893    4.9282 H   0  0  0  0  0  0  0  0  0  0  0  0
   -8.5039    3.7064    4.1956 H   0  0  0  0  0  0  0  0  0  0  0  0
   -1.7582    2.7766    0.1976 H   0  0  0  0  0  0  0  0  0  0  0  0
   -0.1346    4.4097    1.0380 H   0  0  0  0  0  0  0  0  0  0  0  0
    1.0992    5.2891    2.9801 H   0  0  0  0  0  0  0  0  0  0  0  0
    0.4521    5.0964    4.6157 H   0  0  0  0  0  0  0  0  0  0  0  0
   -0.7146    6.9228    2.4589 H   0  0  0  0  0  0  0  0  0  0  0  0
    0.2383    7.4533    3.8496 H   0  0  0  0  0  0  0  0  0  0  0  0
   -1.3573    6.7322    4.0895 H   0  0  0  0  0  0  0  0  0  0  0  0
   -1.6318    3.8657    4.9928 H   0  0  0  0  0  0  0  0  0  0  0  0
   -3.2370    2.2144    4.1624 H   0  0  0  0  0  0  0  0  0  0  0  0
   -3.9452   -0.2002   -0.6648 H   0  0  0  0  0  0  0  0  0  0  0  0
   -4.9896    0.4655   -2.7761 H   0  0  0  0  0  0  0  0  0  0  0  0
   -5.8739    3.9286   -3.6550 H   0  0  0  0  0  0  0  0  0  0  0  0
   -5.6577    2.2851   -4.2753 H   0  0  0  0  0  0  0  0  0  0  0  0
   -7.9708    3.2153   -2.5054 H   0  0  0  0  0  0  0  0  0  0  0  0
   -8.0653    2.9108   -4.2439 H   0  0  0  0  0  0  0  0  0  0  0  0
   -7.7561    1.5786   -3.1245 H   0  0  0  0  0  0  0  0  0  0  0  0
   -5.5804    4.4043   -1.2528 H   0  0  0  0  0  0  0  0  0  0  0  0
   -4.5210    3.7465    0.8572 H   0  0  0  0  0  0  0  0  0  0  0  0
    3.2770   -2.0245    1.3130 H   0  0  0  0  0  0  0  0  0  0  0  0
    5.1018   -0.8114    2.4047 H   0  0  0  0  0  0  0  0  0  0  0  0
  1  2  1  0  0  0  0
  2  3  1  0  0  0  0
  3  4  2  0  0  0  0
  4  5  1  0  0  0  0
  5  6  2  0  0  0  0
  6  7  1  0  0  0  0
  7  8  1  0  0  0  0
  8  9  2  0  0  0  0
  9 10  1  0  0  0  0
 10 11  2  0  0  0  0
 11 12  1  0  0  0  0
 12 13  1  0  0  0  0
 11 14  1  0  0  0  0
 14 15  2  0  0  0  0
  7 16  1  0  0  0  0
 16 17  2  0  0  0  0
 17 18  1  0  0  0  0
 18 19  1  0  0  0  0
 19 20  2  0  0  0  0
 20 21  1  0  0  0  0
 21 22  2  0  0  0  0
 22 23  1  0  0  0  0
 23 24  2  0  0  0  0
 24 25  1  0  0  0  0
 25 26  1  0  0  0  0
 26 27  1  0  0  0  0
 25 28  1  0  0  0  0
 28 29  1  0  0  0  0
 29 30  2  0  0  0  0
 30 31  1  0  0  0  0
 31 32  1  0  0  0  0
 32 33  1  0  0  0  0
 33 34  1  0  0  0  0
 34 35  2  0  0  0  0
 35 36  1  0  0  0  0
 36 37  1  0  0  0  0
 37 38  1  0  0  0  0
 22 39  1  0  0  0  0
 39 40  1  0  0  0  0
 40 41  1  0  0  0  0
 41 42  1  0  0  0  0
 42 43  2  0  0  0  0
 43 44  1  0  0  0  0
 44 45  1  0  0  0  0
 45 46  1  0  0  0  0
 46 47  1  0  0  0  0
 47 48  1  0  0  0  0
 48 49  2  0  0  0  0
 49 50  1  0  0  0  0
 50 51  2  0  0  0  0
 51 52  1  0  0  0  0
 52 53  1  0  0  0  0
 51 54  1  0  0  0  0
 54 55  2  0  0  0  0
 47 56  1  0  0  0  0
 56 57  2  0  0  0  0
 57 58  1  0  0  0  0
 58 59  2  0  0  0  0
 59 60  1  0  0  0  0
 60 61  1  0  0  0  0
 59 62  1  0  0  0  0
 62 63  2  0  0  0  0
  6 64  1  0  0  0  0
 64 65  2  0  0  0  0
 65  3  1  0  0  0  0
 38  7  1  0  0  0  0
 46 39  2  0  0  0  0
 55 48  1  0  0  0  0
 63 56  1  0  0  0  0
 15  8  1  0  0  0  0
 30 16  1  0  0  0  0
 38 31  2  0  0  0  0
 45 41  2  0  0  0  0
 28 18  2  0  0  0  0
 37 33  2  0  0  0  0
 24 19  1  0  0  0  0
 47 21  1  0  0  0  0
  1 66  1  0  0  0  0
  1 67  1  0  0  0  0
  1 68  1  0  0  0  0
  2 69  1  0  0  0  0
  2 70  1  0  0  0  0
  4 71  1  0  0  0  0
  5 72  1  0  0  0  0
  9 73  1  0  0  0  0
 10 74  1  0  0  0  0
 12 75  1  0  0  0  0
 12 76  1  0  0  0  0
 13 77  1  0  0  0  0
 13 78  1  0  0  0  0
 13 79  1  0  0  0  0
 14 80  1  0  0  0  0
 15 81  1  0  0  0  0
 17 82  1  0  0  0  0
 20 83  1  0  0  0  0
 23 84  1  0  0  0  0
 26 85  1  0  0  0  0
 26 86  1  0  0  0  0
 27 87  1  0  0  0  0
 27 88  1  0  0  0  0
 27 89  1  0  0  0  0
 29 90  1  0  0  0  0
 34 91  1  0  0  0  0
 35 92  1  0  0  0  0
 42 93  1  0  0  0  0
 43 94  1  0  0  0  0
 49 95  1  0  0  0  0
 50 96  1  0  0  0  0
 52 97  1  0  0  0  0
 52 98  1  0  0  0  0
 53 99  1  0  0  0  0
 53100  1  0  0  0  0
 53101  1  0  0  0  0
 54102  1  0  0  0  0
 55103  1  0  0  0  0
 57104  1  0  0  0  0
 58105  1  0  0  0  0
 60106  1  0  0  0  0
 60107  1  0  0  0  0
 61108  1  0  0  0  0
 61109  1  0  0  0  0
 61110  1  0  0  0  0
 62111  1  0  0  0  0
 63112  1  0  0  0  0
 64113  1  0  0  0  0
 65114  1  0  0  0  0
M  END
