
  xtb     01172214273D
 energy: -28.192182700596 gnorm: 0.000359218481 xtb: 6.4.1 (unknown)
 13 14  0     0  0            999 V2000
   -0.4610   -2.0497   -1.2939 F   0  0  0  0  0  0  0  0  0  0  0  0
    0.2491   -1.3034   -0.4254 C   0  0  0  0  0  0  0  0  0  0  0  0
   -0.4049   -0.8982    0.7565 C   0  0  0  0  0  0  0  0  0  0  0  0
    0.2479   -0.1401    1.6858 C   0  0  0  0  0  0  0  0  0  0  0  0
    1.5824    0.2207    1.4286 C   0  0  0  0  0  0  0  0  0  0  0  0
    2.3926    0.9497    2.1974 N   0  0  0  0  0  0  0  0  0  0  0  0
    3.8142    1.0814    1.4650 S   0  0  0  0  0  0  0  0  0  0  0  0
    3.4910    0.2305    0.1422 N   0  0  0  0  0  0  0  0  0  0  0  0
    2.2323   -0.2042    0.2137 C   0  0  0  0  0  0  0  0  0  0  0  0
    1.5418   -0.9835   -0.7282 C   0  0  0  0  0  0  0  0  0  0  0  0
   -1.4291   -1.2042    0.9013 H   0  0  0  0  0  0  0  0  0  0  0  0
   -0.2279    0.1830    2.5970 H   0  0  0  0  0  0  0  0  0  0  0  0
    2.0141   -1.3081   -1.6398 H   0  0  0  0  0  0  0  0  0  0  0  0
  1  2  1  0  0  0  0
  2  3  1  0  0  0  0
  3  4  2  0  0  0  0
  4  5  1  0  0  0  0
  5  6  2  0  0  0  0
  6  7  1  0  0  0  0
  7  8  1  0  0  0  0
  8  9  2  0  0  0  0
  9 10  1  0  0  0  0
 10  2  2  0  0  0  0
  9  5  1  0  0  0  0
  3 11  1  0  0  0  0
  4 12  1  0  0  0  0
 10 13  1  0  0  0  0
M  END
