
  xtb     01172214273D
 energy: -163.947813161081 gnorm: 0.000291343659 xtb: 6.4.1 (unknown)
110121  0     0  0            999 V2000
    6.5958   -1.6850    3.4682 C   0  0  0  0  0  0  0  0  0  0  0  0
    6.0649   -0.3151    3.8954 C   0  0  0  0  0  0  0  0  0  0  0  0
    5.0718    0.1977    2.8925 C   0  0  0  0  0  0  0  0  0  0  0  0
    5.4858    0.9577    1.8057 C   0  0  0  0  0  0  0  0  0  0  0  0
    4.5800    1.3925    0.8584 C   0  0  0  0  0  0  0  0  0  0  0  0
    3.2328    1.0734    0.9742 C   0  0  0  0  0  0  0  0  0  0  0  0
    2.2580    1.6127   -0.0568 C   0  0  0  0  0  0  0  0  0  0  0  0
    2.7950    1.4418   -1.4636 C   0  0  0  0  0  0  0  0  0  0  0  0
    2.6973    2.4480   -2.4126 C   0  0  0  0  0  0  0  0  0  0  0  0
    3.1696    2.2444   -3.6967 C   0  0  0  0  0  0  0  0  0  0  0  0
    3.7357    1.0325   -4.0663 C   0  0  0  0  0  0  0  0  0  0  0  0
    4.2885    0.8303   -5.4479 C   0  0  0  0  0  0  0  0  0  0  0  0
    5.7640    1.2318   -5.4969 C   0  0  0  0  0  0  0  0  0  0  0  0
    3.8209    0.0251   -3.1133 C   0  0  0  0  0  0  0  0  0  0  0  0
    3.3568    0.2244   -1.8282 C   0  0  0  0  0  0  0  0  0  0  0  0
    1.9300    3.0376    0.3197 C   0  0  0  0  0  0  0  0  0  0  0  0
    0.5783    3.1805    0.5972 C   0  0  0  0  0  0  0  0  0  0  0  0
    0.1245    4.7794    1.0803 S   0  0  0  0  0  0  0  0  0  0  0  0
    1.7824    5.2810    0.9157 C   0  0  0  0  0  0  0  0  0  0  0  0
    2.4479    6.5135    1.1097 C   0  0  0  0  0  0  0  0  0  0  0  0
    1.7682    7.7808    1.5181 C   0  0  0  0  0  0  0  0  0  0  0  0
    0.9144    8.3344    0.3770 C   0  0  0  0  0  0  0  0  0  0  0  0
    3.7748    6.3799    0.8392 C   0  0  0  0  0  0  0  0  0  0  0  0
    4.2507    4.7825    0.3567 S   0  0  0  0  0  0  0  0  0  0  0  0
    2.6179    4.2391    0.5092 C   0  0  0  0  0  0  0  0  0  0  0  0
   -0.0655    1.9297    0.4066 C   0  0  0  0  0  0  0  0  0  0  0  0
   -1.6732    1.2966    0.5323 S   0  0  0  0  0  0  0  0  0  0  0  0
   -1.0753   -0.2666    0.0622 C   0  0  0  0  0  0  0  0  0  0  0  0
   -1.6403   -1.5306   -0.0974 C   0  0  0  0  0  0  0  0  0  0  0  0
   -0.6901   -2.4691   -0.4786 C   0  0  0  0  0  0  0  0  0  0  0  0
    0.9114   -1.8283   -0.6381 S   0  0  0  0  0  0  0  0  0  0  0  0
    0.3103   -0.2615   -0.1844 C   0  0  0  0  0  0  0  0  0  0  0  0
    0.8840    0.9915    0.0228 C   0  0  0  0  0  0  0  0  0  0  0  0
   -1.3257   -3.7297   -0.6270 C   0  0  0  0  0  0  0  0  0  0  0  0
   -0.8575   -5.3447   -1.0373 S   0  0  0  0  0  0  0  0  0  0  0  0
   -2.5087   -5.8553   -0.8370 C   0  0  0  0  0  0  0  0  0  0  0  0
   -3.1618   -7.1025   -0.9692 C   0  0  0  0  0  0  0  0  0  0  0  0
   -2.4799   -8.3682   -1.3791 C   0  0  0  0  0  0  0  0  0  0  0  0
   -2.0998   -8.3286   -2.8596 C   0  0  0  0  0  0  0  0  0  0  0  0
   -4.4896   -6.9692   -0.7033 C   0  0  0  0  0  0  0  0  0  0  0  0
   -4.9785   -5.3576   -0.2847 S   0  0  0  0  0  0  0  0  0  0  0  0
   -3.3518   -4.8055   -0.4681 C   0  0  0  0  0  0  0  0  0  0  0  0
   -2.6782   -3.5865   -0.3539 C   0  0  0  0  0  0  0  0  0  0  0  0
   -3.0054   -2.1634    0.0303 C   0  0  0  0  0  0  0  0  0  0  0  0
   -3.5412   -2.1774    1.4504 C   0  0  0  0  0  0  0  0  0  0  0  0
   -4.8700   -2.5212    1.6658 C   0  0  0  0  0  0  0  0  0  0  0  0
   -5.3762   -2.5872    2.9489 C   0  0  0  0  0  0  0  0  0  0  0  0
   -4.5726   -2.3111    4.0480 C   0  0  0  0  0  0  0  0  0  0  0  0
   -5.1139   -2.4264    5.4441 C   0  0  0  0  0  0  0  0  0  0  0  0
   -4.9334   -3.8521    5.9690 C   0  0  0  0  0  0  0  0  0  0  0  0
   -3.2443   -1.9767    3.8264 C   0  0  0  0  0  0  0  0  0  0  0  0
   -2.7302   -1.9137    2.5439 C   0  0  0  0  0  0  0  0  0  0  0  0
   -3.9636   -1.4644   -0.9132 C   0  0  0  0  0  0  0  0  0  0  0  0
   -4.2594   -1.9759   -2.1676 C   0  0  0  0  0  0  0  0  0  0  0  0
   -5.1190   -1.2979   -3.0131 C   0  0  0  0  0  0  0  0  0  0  0  0
   -5.6951   -0.0945   -2.6313 C   0  0  0  0  0  0  0  0  0  0  0  0
   -6.5959    0.6594   -3.5670 C   0  0  0  0  0  0  0  0  0  0  0  0
   -5.7851    1.6446   -4.4111 C   0  0  0  0  0  0  0  0  0  0  0  0
   -5.3808    0.4209   -1.3799 C   0  0  0  0  0  0  0  0  0  0  0  0
   -4.5276   -0.2539   -0.5294 C   0  0  0  0  0  0  0  0  0  0  0  0
    2.8115    0.3227    2.0614 C   0  0  0  0  0  0  0  0  0  0  0  0
    3.7242   -0.1141    3.0043 C   0  0  0  0  0  0  0  0  0  0  0  0
    7.0881   -1.6143    2.5009 H   0  0  0  0  0  0  0  0  0  0  0  0
    7.3111   -2.0609    4.1963 H   0  0  0  0  0  0  0  0  0  0  0  0
    5.7782   -2.3974    3.3837 H   0  0  0  0  0  0  0  0  0  0  0  0
    6.8994    0.3840    3.9804 H   0  0  0  0  0  0  0  0  0  0  0  0
    5.5907   -0.4025    4.8752 H   0  0  0  0  0  0  0  0  0  0  0  0
    6.5298    1.2163    1.7015 H   0  0  0  0  0  0  0  0  0  0  0  0
    4.9183    1.9829    0.0193 H   0  0  0  0  0  0  0  0  0  0  0  0
    2.2528    3.3972   -2.1520 H   0  0  0  0  0  0  0  0  0  0  0  0
    3.0919    3.0409   -4.4233 H   0  0  0  0  0  0  0  0  0  0  0  0
    3.7271    1.4341   -6.1640 H   0  0  0  0  0  0  0  0  0  0  0  0
    4.1916   -0.2188   -5.7349 H   0  0  0  0  0  0  0  0  0  0  0  0
    6.1651    1.0893   -6.4978 H   0  0  0  0  0  0  0  0  0  0  0  0
    6.3428    0.6289   -4.8009 H   0  0  0  0  0  0  0  0  0  0  0  0
    5.8803    2.2775   -5.2211 H   0  0  0  0  0  0  0  0  0  0  0  0
    4.2535   -0.9284   -3.3810 H   0  0  0  0  0  0  0  0  0  0  0  0
    3.4346   -0.5679   -1.0977 H   0  0  0  0  0  0  0  0  0  0  0  0
    1.1281    7.5788    2.3805 H   0  0  0  0  0  0  0  0  0  0  0  0
    2.5195    8.5167    1.8091 H   0  0  0  0  0  0  0  0  0  0  0  0
    0.4226    9.2533    0.6863 H   0  0  0  0  0  0  0  0  0  0  0  0
    1.5345    8.5466   -0.4912 H   0  0  0  0  0  0  0  0  0  0  0  0
    0.1523    7.6136    0.0906 H   0  0  0  0  0  0  0  0  0  0  0  0
    4.5295    7.1390    0.8998 H   0  0  0  0  0  0  0  0  0  0  0  0
   -1.5753   -8.4945   -0.7792 H   0  0  0  0  0  0  0  0  0  0  0  0
   -3.1425   -9.2142   -1.1893 H   0  0  0  0  0  0  0  0  0  0  0  0
   -1.4241   -7.4992   -3.0545 H   0  0  0  0  0  0  0  0  0  0  0  0
   -2.9880   -8.2041   -3.4752 H   0  0  0  0  0  0  0  0  0  0  0  0
   -1.6046   -9.2530   -3.1460 H   0  0  0  0  0  0  0  0  0  0  0  0
   -5.2359   -7.7387   -0.7209 H   0  0  0  0  0  0  0  0  0  0  0  0
   -5.5100   -2.7338    0.8217 H   0  0  0  0  0  0  0  0  0  0  0  0
   -6.4123   -2.8552    3.0987 H   0  0  0  0  0  0  0  0  0  0  0  0
   -4.5903   -1.7310    6.1034 H   0  0  0  0  0  0  0  0  0  0  0  0
   -6.1756   -2.1717    5.4519 H   0  0  0  0  0  0  0  0  0  0  0  0
   -3.8791   -4.1197    5.9807 H   0  0  0  0  0  0  0  0  0  0  0  0
   -5.3259   -3.9396    6.9795 H   0  0  0  0  0  0  0  0  0  0  0  0
   -5.4574   -4.5588    5.3293 H   0  0  0  0  0  0  0  0  0  0  0  0
   -2.6006   -1.7605    4.6675 H   0  0  0  0  0  0  0  0  0  0  0  0
   -1.6914   -1.6562    2.3996 H   0  0  0  0  0  0  0  0  0  0  0  0
   -3.8221   -2.9097   -2.4889 H   0  0  0  0  0  0  0  0  0  0  0  0
   -5.3471   -1.7148   -3.9839 H   0  0  0  0  0  0  0  0  0  0  0  0
   -7.1134   -0.0397   -4.2271 H   0  0  0  0  0  0  0  0  0  0  0  0
   -7.3465    1.2089   -2.9949 H   0  0  0  0  0  0  0  0  0  0  0  0
   -5.0388    1.1139   -4.9983 H   0  0  0  0  0  0  0  0  0  0  0  0
   -6.4362    2.1923   -5.0887 H   0  0  0  0  0  0  0  0  0  0  0  0
   -5.2709    2.3571   -3.7700 H   0  0  0  0  0  0  0  0  0  0  0  0
   -5.8131    1.3599   -1.0650 H   0  0  0  0  0  0  0  0  0  0  0  0
   -4.3013    0.1559    0.4444 H   0  0  0  0  0  0  0  0  0  0  0  0
    1.7668    0.0750    2.1777 H   0  0  0  0  0  0  0  0  0  0  0  0
    3.3803   -0.7025    3.8433 H   0  0  0  0  0  0  0  0  0  0  0  0
  1  2  1  0  0  0  0
  2  3  1  0  0  0  0
  3  4  2  0  0  0  0
  4  5  1  0  0  0  0
  5  6  2  0  0  0  0
  6  7  1  0  0  0  0
  7  8  1  0  0  0  0
  8  9  2  0  0  0  0
  9 10  1  0  0  0  0
 10 11  2  0  0  0  0
 11 12  1  0  0  0  0
 12 13  1  0  0  0  0
 11 14  1  0  0  0  0
 14 15  2  0  0  0  0
  7 16  1  0  0  0  0
 16 17  2  0  0  0  0
 17 18  1  0  0  0  0
 18 19  1  0  0  0  0
 19 20  1  0  0  0  0
 20 21  1  0  0  0  0
 21 22  1  0  0  0  0
 20 23  2  0  0  0  0
 23 24  1  0  0  0  0
 24 25  1  0  0  0  0
 17 26  1  0  0  0  0
 26 27  1  0  0  0  0
 27 28  1  0  0  0  0
 28 29  1  0  0  0  0
 29 30  2  0  0  0  0
 30 31  1  0  0  0  0
 31 32  1  0  0  0  0
 32 33  1  0  0  0  0
 30 34  1  0  0  0  0
 34 35  1  0  0  0  0
 35 36  1  0  0  0  0
 36 37  1  0  0  0  0
 37 38  1  0  0  0  0
 38 39  1  0  0  0  0
 37 40  2  0  0  0  0
 40 41  1  0  0  0  0
 41 42  1  0  0  0  0
 42 43  1  0  0  0  0
 43 44  1  0  0  0  0
 44 45  1  0  0  0  0
 45 46  2  0  0  0  0
 46 47  1  0  0  0  0
 47 48  2  0  0  0  0
 48 49  1  0  0  0  0
 49 50  1  0  0  0  0
 48 51  1  0  0  0  0
 51 52  2  0  0  0  0
 44 53  1  0  0  0  0
 53 54  2  0  0  0  0
 54 55  1  0  0  0  0
 55 56  2  0  0  0  0
 56 57  1  0  0  0  0
 57 58  1  0  0  0  0
 56 59  1  0  0  0  0
 59 60  2  0  0  0  0
  6 61  1  0  0  0  0
 61 62  2  0  0  0  0
 62  3  1  0  0  0  0
 33  7  1  0  0  0  0
 43 34  2  0  0  0  0
 52 45  1  0  0  0  0
 60 53  1  0  0  0  0
 15  8  1  0  0  0  0
 25 16  1  0  0  0  0
 33 26  2  0  0  0  0
 42 36  2  0  0  0  0
 25 19  2  0  0  0  0
 32 28  2  0  0  0  0
 44 29  1  0  0  0  0
  1 63  1  0  0  0  0
  1 64  1  0  0  0  0
  1 65  1  0  0  0  0
  2 66  1  0  0  0  0
  2 67  1  0  0  0  0
  4 68  1  0  0  0  0
  5 69  1  0  0  0  0
  9 70  1  0  0  0  0
 10 71  1  0  0  0  0
 12 72  1  0  0  0  0
 12 73  1  0  0  0  0
 13 74  1  0  0  0  0
 13 75  1  0  0  0  0
 13 76  1  0  0  0  0
 14 77  1  0  0  0  0
 15 78  1  0  0  0  0
 21 79  1  0  0  0  0
 21 80  1  0  0  0  0
 22 81  1  0  0  0  0
 22 82  1  0  0  0  0
 22 83  1  0  0  0  0
 23 84  1  0  0  0  0
 38 85  1  0  0  0  0
 38 86  1  0  0  0  0
 39 87  1  0  0  0  0
 39 88  1  0  0  0  0
 39 89  1  0  0  0  0
 40 90  1  0  0  0  0
 46 91  1  0  0  0  0
 47 92  1  0  0  0  0
 49 93  1  0  0  0  0
 49 94  1  0  0  0  0
 50 95  1  0  0  0  0
 50 96  1  0  0  0  0
 50 97  1  0  0  0  0
 51 98  1  0  0  0  0
 52 99  1  0  0  0  0
 54100  1  0  0  0  0
 55101  1  0  0  0  0
 57102  1  0  0  0  0
 57103  1  0  0  0  0
 58104  1  0  0  0  0
 58105  1  0  0  0  0
 58106  1  0  0  0  0
 59107  1  0  0  0  0
 60108  1  0  0  0  0
 61109  1  0  0  0  0
 62110  1  0  0  0  0
M  END
