
  xtb     01172214283D
 energy: -195.697597167310 gnorm: 0.000275006439 xtb: 6.4.1 (unknown)
135148  0     0  0            999 V2000
    4.9571    7.1265    4.3106 C   0  0  0  0  0  0  0  0  0  0  0  0
    4.5818    7.1419    2.8275 C   0  0  0  0  0  0  0  0  0  0  0  0
    4.5478    5.7438    2.2799 C   0  0  0  0  0  0  0  0  0  0  0  0
    5.7001    5.1493    1.7809 C   0  0  0  0  0  0  0  0  0  0  0  0
    5.6807    3.8507    1.3114 C   0  0  0  0  0  0  0  0  0  0  0  0
    4.5034    3.1115    1.3229 C   0  0  0  0  0  0  0  0  0  0  0  0
    4.5268    1.6714    0.8515 C   0  0  0  0  0  0  0  0  0  0  0  0
    5.3197    1.5028   -0.4298 C   0  0  0  0  0  0  0  0  0  0  0  0
    6.0798    0.3643   -0.6581 C   0  0  0  0  0  0  0  0  0  0  0  0
    6.7568    0.1992   -1.8525 C   0  0  0  0  0  0  0  0  0  0  0  0
    6.6882    1.1607   -2.8512 C   0  0  0  0  0  0  0  0  0  0  0  0
    7.3861    0.9575   -4.1654 C   0  0  0  0  0  0  0  0  0  0  0  0
    6.4663    0.2342   -5.1513 C   0  0  0  0  0  0  0  0  0  0  0  0
    5.9161    2.2926   -2.6236 C   0  0  0  0  0  0  0  0  0  0  0  0
    5.2393    2.4629   -1.4312 C   0  0  0  0  0  0  0  0  0  0  0  0
    3.1479    1.0687    0.6233 C   0  0  0  0  0  0  0  0  0  0  0  0
    2.2185    1.4132   -0.3309 C   0  0  0  0  0  0  0  0  0  0  0  0
    1.0360    0.6801   -0.3597 C   0  0  0  0  0  0  0  0  0  0  0  0
    0.7924   -0.3774    0.5425 C   0  0  0  0  0  0  0  0  0  0  0  0
    1.7215   -0.7215    1.4971 C   0  0  0  0  0  0  0  0  0  0  0  0
    2.9038    0.0099    1.5258 C   0  0  0  0  0  0  0  0  0  0  0  0
    4.0667   -0.0996    2.3573 C   0  0  0  0  0  0  0  0  0  0  0  0
    4.5731   -1.0757    3.6799 S   0  0  0  0  0  0  0  0  0  0  0  0
    6.0770   -0.2234    3.7335 C   0  0  0  0  0  0  0  0  0  0  0  0
    6.1804    0.7538    2.7894 C   0  0  0  0  0  0  0  0  0  0  0  0
    5.0245    0.8214    1.9939 C   0  0  0  0  0  0  0  0  0  0  0  0
   -0.5686   -1.0152    0.2829 C   0  0  0  0  0  0  0  0  0  0  0  0
   -1.3985   -0.8104    1.5346 C   0  0  0  0  0  0  0  0  0  0  0  0
   -1.2894   -1.6863    2.6084 C   0  0  0  0  0  0  0  0  0  0  0  0
   -2.0015   -1.4665    3.7717 C   0  0  0  0  0  0  0  0  0  0  0  0
   -2.8281   -0.3590    3.9060 C   0  0  0  0  0  0  0  0  0  0  0  0
   -3.5588   -0.0976    5.1916 C   0  0  0  0  0  0  0  0  0  0  0  0
   -2.6655    0.6719    6.1667 C   0  0  0  0  0  0  0  0  0  0  0  0
   -2.9107    0.5296    2.8444 C   0  0  0  0  0  0  0  0  0  0  0  0
   -2.2056    0.3097    1.6763 C   0  0  0  0  0  0  0  0  0  0  0  0
   -0.4274   -2.4620   -0.1520 C   0  0  0  0  0  0  0  0  0  0  0  0
   -1.3953   -3.4120    0.1398 C   0  0  0  0  0  0  0  0  0  0  0  0
   -1.2731   -4.7095   -0.3196 C   0  0  0  0  0  0  0  0  0  0  0  0
   -0.1834   -5.0956   -1.0864 C   0  0  0  0  0  0  0  0  0  0  0  0
   -0.0335   -6.5168   -1.5471 C   0  0  0  0  0  0  0  0  0  0  0  0
    0.7122   -7.3460   -0.4996 C   0  0  0  0  0  0  0  0  0  0  0  0
    0.7840   -4.1435   -1.3786 C   0  0  0  0  0  0  0  0  0  0  0  0
    0.6628   -2.8439   -0.9251 C   0  0  0  0  0  0  0  0  0  0  0  0
   -1.0549   -0.1948   -0.8914 C   0  0  0  0  0  0  0  0  0  0  0  0
   -0.1043    0.7634   -1.2172 C   0  0  0  0  0  0  0  0  0  0  0  0
   -0.5448    1.7726   -2.5490 S   0  0  0  0  0  0  0  0  0  0  0  0
   -2.0241    0.8948   -2.6748 C   0  0  0  0  0  0  0  0  0  0  0  0
   -2.1633   -0.1302   -1.7372 C   0  0  0  0  0  0  0  0  0  0  0  0
   -3.4870   -0.8437   -1.9355 C   0  0  0  0  0  0  0  0  0  0  0  0
   -4.3318   -0.7239   -0.6814 C   0  0  0  0  0  0  0  0  0  0  0  0
   -4.8805    0.5109   -0.3551 C   0  0  0  0  0  0  0  0  0  0  0  0
   -5.6327    0.6682    0.7923 C   0  0  0  0  0  0  0  0  0  0  0  0
   -5.8451   -0.3973    1.6566 C   0  0  0  0  0  0  0  0  0  0  0  0
   -6.7005   -0.2413    2.8803 C   0  0  0  0  0  0  0  0  0  0  0  0
   -8.1584   -0.5778    2.5603 C   0  0  0  0  0  0  0  0  0  0  0  0
   -5.2894   -1.6259    1.3320 C   0  0  0  0  0  0  0  0  0  0  0  0
   -4.5460   -1.7903    0.1782 C   0  0  0  0  0  0  0  0  0  0  0  0
   -3.3324   -2.2534   -2.4737 C   0  0  0  0  0  0  0  0  0  0  0  0
   -2.1255   -2.6998   -2.9922 C   0  0  0  0  0  0  0  0  0  0  0  0
   -2.0232   -3.9605   -3.5497 C   0  0  0  0  0  0  0  0  0  0  0  0
   -3.1205   -4.8066   -3.6096 C   0  0  0  0  0  0  0  0  0  0  0  0
   -3.0177   -6.1592   -4.2542 C   0  0  0  0  0  0  0  0  0  0  0  0
   -3.3832   -6.0730   -5.7374 C   0  0  0  0  0  0  0  0  0  0  0  0
   -4.3337   -4.3463   -3.1141 C   0  0  0  0  0  0  0  0  0  0  0  0
   -4.4431   -3.0849   -2.5621 C   0  0  0  0  0  0  0  0  0  0  0  0
   -4.0687   -0.0306   -3.0743 C   0  0  0  0  0  0  0  0  0  0  0  0
   -3.1820    0.9488   -3.4918 C   0  0  0  0  0  0  0  0  0  0  0  0
   -3.7603    1.9085   -4.8132 S   0  0  0  0  0  0  0  0  0  0  0  0
   -5.2336    0.9838   -4.8134 C   0  0  0  0  0  0  0  0  0  0  0  0
   -6.4133    1.0327   -5.5792 C   0  0  0  0  0  0  0  0  0  0  0  0
   -7.3001    0.0863   -5.1770 C   0  0  0  0  0  0  0  0  0  0  0  0
   -6.7286   -0.8899   -3.8628 S   0  0  0  0  0  0  0  0  0  0  0  0
   -5.2417   -0.0120   -3.8327 C   0  0  0  0  0  0  0  0  0  0  0  0
    3.3540    3.6949    1.8357 C   0  0  0  0  0  0  0  0  0  0  0  0
    3.3790    4.9962    2.3047 C   0  0  0  0  0  0  0  0  0  0  0  0
    4.2321    6.5466    4.8774 H   0  0  0  0  0  0  0  0  0  0  0  0
    4.9817    8.1384    4.7088 H   0  0  0  0  0  0  0  0  0  0  0  0
    5.9371    6.6747    4.4479 H   0  0  0  0  0  0  0  0  0  0  0  0
    3.6025    7.6101    2.7090 H   0  0  0  0  0  0  0  0  0  0  0  0
    5.3140    7.7371    2.2777 H   0  0  0  0  0  0  0  0  0  0  0  0
    6.6230    5.7117    1.7576 H   0  0  0  0  0  0  0  0  0  0  0  0
    6.5852    3.4068    0.9205 H   0  0  0  0  0  0  0  0  0  0  0  0
    6.1465   -0.3992    0.1033 H   0  0  0  0  0  0  0  0  0  0  0  0
    7.3494   -0.6913   -2.0094 H   0  0  0  0  0  0  0  0  0  0  0  0
    7.6745    1.9234   -4.5852 H   0  0  0  0  0  0  0  0  0  0  0  0
    8.2915    0.3653   -4.0170 H   0  0  0  0  0  0  0  0  0  0  0  0
    6.1772   -0.7368   -4.7552 H   0  0  0  0  0  0  0  0  0  0  0  0
    5.5628    0.8155   -5.3212 H   0  0  0  0  0  0  0  0  0  0  0  0
    6.9692    0.0858   -6.1043 H   0  0  0  0  0  0  0  0  0  0  0  0
    5.8457    3.0524   -3.3893 H   0  0  0  0  0  0  0  0  0  0  0  0
    4.6525    3.3561   -1.2715 H   0  0  0  0  0  0  0  0  0  0  0  0
    2.3902    2.2136   -1.0343 H   0  0  0  0  0  0  0  0  0  0  0  0
    1.5557   -1.5294    2.1926 H   0  0  0  0  0  0  0  0  0  0  0  0
    6.7998   -0.5059    4.4732 H   0  0  0  0  0  0  0  0  0  0  0  0
    7.0440    1.3839    2.6772 H   0  0  0  0  0  0  0  0  0  0  0  0
   -0.6482   -2.5525    2.5343 H   0  0  0  0  0  0  0  0  0  0  0  0
   -1.9104   -2.1662    4.5909 H   0  0  0  0  0  0  0  0  0  0  0  0
   -3.8569   -1.0439    5.6484 H   0  0  0  0  0  0  0  0  0  0  0  0
   -4.4593    0.4861    4.9924 H   0  0  0  0  0  0  0  0  0  0  0  0
   -2.3635    1.6216    5.7309 H   0  0  0  0  0  0  0  0  0  0  0  0
   -3.1944    0.8679    7.0968 H   0  0  0  0  0  0  0  0  0  0  0  0
   -1.7681    0.0995    6.3904 H   0  0  0  0  0  0  0  0  0  0  0  0
   -3.5348    1.4074    2.9296 H   0  0  0  0  0  0  0  0  0  0  0  0
   -2.2874    1.0221    0.8693 H   0  0  0  0  0  0  0  0  0  0  0  0
   -2.2470   -3.1359    0.7403 H   0  0  0  0  0  0  0  0  0  0  0  0
   -2.0422   -5.4317   -0.0841 H   0  0  0  0  0  0  0  0  0  0  0  0
    0.5215   -6.5452   -2.4873 H   0  0  0  0  0  0  0  0  0  0  0  0
   -1.0201   -6.9531   -1.7165 H   0  0  0  0  0  0  0  0  0  0  0  0
    1.7009   -6.9289   -0.3213 H   0  0  0  0  0  0  0  0  0  0  0  0
    0.8238   -8.3746   -0.8353 H   0  0  0  0  0  0  0  0  0  0  0  0
    0.1664   -7.3446    0.4412 H   0  0  0  0  0  0  0  0  0  0  0  0
    1.6423   -4.4200   -1.9751 H   0  0  0  0  0  0  0  0  0  0  0  0
    1.4246   -2.1189   -1.1750 H   0  0  0  0  0  0  0  0  0  0  0  0
   -4.7193    1.3579   -1.0072 H   0  0  0  0  0  0  0  0  0  0  0  0
   -6.0573    1.6356    1.0220 H   0  0  0  0  0  0  0  0  0  0  0  0
   -6.6423    0.7862    3.2455 H   0  0  0  0  0  0  0  0  0  0  0  0
   -6.3408   -0.9072    3.6674 H   0  0  0  0  0  0  0  0  0  0  0  0
   -8.2411   -1.6045    2.2113 H   0  0  0  0  0  0  0  0  0  0  0  0
   -8.7808   -0.4594    3.4444 H   0  0  0  0  0  0  0  0  0  0  0  0
   -8.5348    0.0789    1.7792 H   0  0  0  0  0  0  0  0  0  0  0  0
   -5.4390   -2.4692    1.9914 H   0  0  0  0  0  0  0  0  0  0  0  0
   -4.1428   -2.7614   -0.0613 H   0  0  0  0  0  0  0  0  0  0  0  0
   -1.2540   -2.0642   -2.9640 H   0  0  0  0  0  0  0  0  0  0  0  0
   -1.0723   -4.2885   -3.9438 H   0  0  0  0  0  0  0  0  0  0  0  0
   -1.9983   -6.5377   -4.1571 H   0  0  0  0  0  0  0  0  0  0  0  0
   -3.6935   -6.8593   -3.7580 H   0  0  0  0  0  0  0  0  0  0  0  0
   -3.3072   -7.0509   -6.2075 H   0  0  0  0  0  0  0  0  0  0  0  0
   -4.4009   -5.7079   -5.8555 H   0  0  0  0  0  0  0  0  0  0  0  0
   -2.7132   -5.3868   -6.2507 H   0  0  0  0  0  0  0  0  0  0  0  0
   -5.2074   -4.9806   -3.1659 H   0  0  0  0  0  0  0  0  0  0  0  0
   -5.4009   -2.7421   -2.1985 H   0  0  0  0  0  0  0  0  0  0  0  0
   -6.5903    1.7294   -6.3776 H   0  0  0  0  0  0  0  0  0  0  0  0
   -8.2758   -0.1110   -5.5739 H   0  0  0  0  0  0  0  0  0  0  0  0
    2.4323    3.1325    1.8677 H   0  0  0  0  0  0  0  0  0  0  0  0
    2.4724    5.4373    2.6947 H   0  0  0  0  0  0  0  0  0  0  0  0
  1  2  1  0  0  0  0
  2  3  1  0  0  0  0
  3  4  2  0  0  0  0
  4  5  1  0  0  0  0
  5  6  2  0  0  0  0
  6  7  1  0  0  0  0
  7  8  1  0  0  0  0
  8  9  2  0  0  0  0
  9 10  1  0  0  0  0
 10 11  2  0  0  0  0
 11 12  1  0  0  0  0
 12 13  1  0  0  0  0
 11 14  1  0  0  0  0
 14 15  2  0  0  0  0
  7 16  1  0  0  0  0
 16 17  2  0  0  0  0
 17 18  1  0  0  0  0
 18 19  2  0  0  0  0
 19 20  1  0  0  0  0
 20 21  2  0  0  0  0
 21 22  1  0  0  0  0
 22 23  1  0  0  0  0
 23 24  1  0  0  0  0
 24 25  2  0  0  0  0
 25 26  1  0  0  0  0
 19 27  1  0  0  0  0
 27 28  1  0  0  0  0
 28 29  2  0  0  0  0
 29 30  1  0  0  0  0
 30 31  2  0  0  0  0
 31 32  1  0  0  0  0
 32 33  1  0  0  0  0
 31 34  1  0  0  0  0
 34 35  2  0  0  0  0
 27 36  1  0  0  0  0
 36 37  2  0  0  0  0
 37 38  1  0  0  0  0
 38 39  2  0  0  0  0
 39 40  1  0  0  0  0
 40 41  1  0  0  0  0
 39 42  1  0  0  0  0
 42 43  2  0  0  0  0
 27 44  1  0  0  0  0
 44 45  2  0  0  0  0
 45 46  1  0  0  0  0
 46 47  1  0  0  0  0
 47 48  2  0  0  0  0
 48 49  1  0  0  0  0
 49 50  1  0  0  0  0
 50 51  2  0  0  0  0
 51 52  1  0  0  0  0
 52 53  2  0  0  0  0
 53 54  1  0  0  0  0
 54 55  1  0  0  0  0
 53 56  1  0  0  0  0
 56 57  2  0  0  0  0
 49 58  1  0  0  0  0
 58 59  2  0  0  0  0
 59 60  1  0  0  0  0
 60 61  2  0  0  0  0
 61 62  1  0  0  0  0
 62 63  1  0  0  0  0
 61 64  1  0  0  0  0
 64 65  2  0  0  0  0
 49 66  1  0  0  0  0
 66 67  2  0  0  0  0
 67 68  1  0  0  0  0
 68 69  1  0  0  0  0
 69 70  1  0  0  0  0
 70 71  2  0  0  0  0
 71 72  1  0  0  0  0
 72 73  1  0  0  0  0
  6 74  1  0  0  0  0
 74 75  2  0  0  0  0
 75  3  1  0  0  0  0
 26  7  1  0  0  0  0
 35 28  1  0  0  0  0
 43 36  1  0  0  0  0
 48 44  1  0  0  0  0
 57 50  1  0  0  0  0
 65 58  1  0  0  0  0
 73 66  1  0  0  0  0
 15  8  1  0  0  0  0
 21 16  1  0  0  0  0
 26 22  2  0  0  0  0
 67 47  1  0  0  0  0
 73 69  2  0  0  0  0
 45 18  1  0  0  0  0
  1 76  1  0  0  0  0
  1 77  1  0  0  0  0
  1 78  1  0  0  0  0
  2 79  1  0  0  0  0
  2 80  1  0  0  0  0
  4 81  1  0  0  0  0
  5 82  1  0  0  0  0
  9 83  1  0  0  0  0
 10 84  1  0  0  0  0
 12 85  1  0  0  0  0
 12 86  1  0  0  0  0
 13 87  1  0  0  0  0
 13 88  1  0  0  0  0
 13 89  1  0  0  0  0
 14 90  1  0  0  0  0
 15 91  1  0  0  0  0
 17 92  1  0  0  0  0
 20 93  1  0  0  0  0
 24 94  1  0  0  0  0
 25 95  1  0  0  0  0
 29 96  1  0  0  0  0
 30 97  1  0  0  0  0
 32 98  1  0  0  0  0
 32 99  1  0  0  0  0
 33100  1  0  0  0  0
 33101  1  0  0  0  0
 33102  1  0  0  0  0
 34103  1  0  0  0  0
 35104  1  0  0  0  0
 37105  1  0  0  0  0
 38106  1  0  0  0  0
 40107  1  0  0  0  0
 40108  1  0  0  0  0
 41109  1  0  0  0  0
 41110  1  0  0  0  0
 41111  1  0  0  0  0
 42112  1  0  0  0  0
 43113  1  0  0  0  0
 51114  1  0  0  0  0
 52115  1  0  0  0  0
 54116  1  0  0  0  0
 54117  1  0  0  0  0
 55118  1  0  0  0  0
 55119  1  0  0  0  0
 55120  1  0  0  0  0
 56121  1  0  0  0  0
 57122  1  0  0  0  0
 59123  1  0  0  0  0
 60124  1  0  0  0  0
 62125  1  0  0  0  0
 62126  1  0  0  0  0
 63127  1  0  0  0  0
 63128  1  0  0  0  0
 63129  1  0  0  0  0
 64130  1  0  0  0  0
 65131  1  0  0  0  0
 70132  1  0  0  0  0
 71133  1  0  0  0  0
 74134  1  0  0  0  0
 75135  1  0  0  0  0
M  END
