
  xtb     01172214293D
 energy: -195.689567159156 gnorm: 0.000175563240 xtb: 6.4.1 (unknown)
135148  0     0  0            999 V2000
    4.7521    7.6402    0.5277 C   0  0  0  0  0  0  0  0  0  0  0  0
    4.1205    6.9235   -0.6675 C   0  0  0  0  0  0  0  0  0  0  0  0
    4.1368    5.4371   -0.4536 C   0  0  0  0  0  0  0  0  0  0  0  0
    5.2262    4.6734   -0.8533 C   0  0  0  0  0  0  0  0  0  0  0  0
    5.2636    3.3135   -0.6149 C   0  0  0  0  0  0  0  0  0  0  0  0
    4.2069    2.6781    0.0269 C   0  0  0  0  0  0  0  0  0  0  0  0
    4.3099    1.1966    0.3364 C   0  0  0  0  0  0  0  0  0  0  0  0
    4.8443    0.4032   -0.8377 C   0  0  0  0  0  0  0  0  0  0  0  0
    5.6787   -0.6888   -0.6446 C   0  0  0  0  0  0  0  0  0  0  0  0
    6.1210   -1.4340   -1.7222 C   0  0  0  0  0  0  0  0  0  0  0  0
    5.7379   -1.1137   -3.0173 C   0  0  0  0  0  0  0  0  0  0  0  0
    6.1841   -1.9499   -4.1825 C   0  0  0  0  0  0  0  0  0  0  0  0
    5.1818   -3.0750   -4.4479 C   0  0  0  0  0  0  0  0  0  0  0  0
    4.8917   -0.0285   -3.2048 C   0  0  0  0  0  0  0  0  0  0  0  0
    4.4486    0.7203   -2.1315 C   0  0  0  0  0  0  0  0  0  0  0  0
    2.9941    0.5717    0.7777 C   0  0  0  0  0  0  0  0  0  0  0  0
    1.8634    0.3530    0.0245 C   0  0  0  0  0  0  0  0  0  0  0  0
    0.7847   -0.2556    0.6583 C   0  0  0  0  0  0  0  0  0  0  0  0
    0.8385   -0.6358    2.0180 C   0  0  0  0  0  0  0  0  0  0  0  0
    1.9706   -0.4194    2.7700 C   0  0  0  0  0  0  0  0  0  0  0  0
    3.0522    0.1784    2.1330 C   0  0  0  0  0  0  0  0  0  0  0  0
    4.3665    0.5069    2.6027 C   0  0  0  0  0  0  0  0  0  0  0  0
    5.2377    0.3746    4.0798 S   0  0  0  0  0  0  0  0  0  0  0  0
    6.6236    1.0824    3.3258 C   0  0  0  0  0  0  0  0  0  0  0  0
    6.4246    1.4022    2.0162 C   0  0  0  0  0  0  0  0  0  0  0  0
    5.1264    1.0648    1.5983 C   0  0  0  0  0  0  0  0  0  0  0  0
   -0.4763   -1.2595    2.4603 C   0  0  0  0  0  0  0  0  0  0  0  0
   -1.0524   -0.4070    3.5733 C   0  0  0  0  0  0  0  0  0  0  0  0
   -1.9175    0.6430    3.3004 C   0  0  0  0  0  0  0  0  0  0  0  0
   -2.3993    1.4392    4.3229 C   0  0  0  0  0  0  0  0  0  0  0  0
   -2.0253    1.2136    5.6404 C   0  0  0  0  0  0  0  0  0  0  0  0
   -2.5155    2.1090    6.7420 C   0  0  0  0  0  0  0  0  0  0  0  0
   -1.5900    3.3170    6.9001 C   0  0  0  0  0  0  0  0  0  0  0  0
   -1.1490    0.1698    5.9072 C   0  0  0  0  0  0  0  0  0  0  0  0
   -0.6676   -0.6308    4.8894 C   0  0  0  0  0  0  0  0  0  0  0  0
   -0.3714   -2.7202    2.8531 C   0  0  0  0  0  0  0  0  0  0  0  0
   -1.4290   -3.3201    3.5264 C   0  0  0  0  0  0  0  0  0  0  0  0
   -1.3908   -4.6657    3.8354 C   0  0  0  0  0  0  0  0  0  0  0  0
   -0.3017   -5.4489    3.4751 C   0  0  0  0  0  0  0  0  0  0  0  0
   -0.2424   -6.9020    3.8499 C   0  0  0  0  0  0  0  0  0  0  0  0
    0.4227   -7.0755    5.2168 C   0  0  0  0  0  0  0  0  0  0  0  0
    0.7485   -4.8459    2.7968 C   0  0  0  0  0  0  0  0  0  0  0  0
    0.7145   -3.4994    2.4816 C   0  0  0  0  0  0  0  0  0  0  0  0
   -1.2646   -1.1949    1.1790 C   0  0  0  0  0  0  0  0  0  0  0  0
   -0.5101   -0.6267    0.1724 C   0  0  0  0  0  0  0  0  0  0  0  0
   -1.3228   -0.5547   -1.3583 S   0  0  0  0  0  0  0  0  0  0  0  0
   -2.7091   -1.3180   -0.6414 C   0  0  0  0  0  0  0  0  0  0  0  0
   -3.9531   -1.7459   -1.1062 C   0  0  0  0  0  0  0  0  0  0  0  0
   -4.6987   -2.3347   -0.0954 C   0  0  0  0  0  0  0  0  0  0  0  0
   -3.8973   -2.3819    1.4390 S   0  0  0  0  0  0  0  0  0  0  0  0
   -2.5205   -1.5992    0.7233 C   0  0  0  0  0  0  0  0  0  0  0  0
   -5.9455   -2.7533   -0.6348 C   0  0  0  0  0  0  0  0  0  0  0  0
   -7.3652   -3.5654   -0.1089 S   0  0  0  0  0  0  0  0  0  0  0  0
   -8.0238   -3.4442   -1.7047 C   0  0  0  0  0  0  0  0  0  0  0  0
   -7.1966   -2.8164   -2.5881 C   0  0  0  0  0  0  0  0  0  0  0  0
   -6.0005   -2.4119   -1.9766 C   0  0  0  0  0  0  0  0  0  0  0  0
   -4.7246   -1.7220   -2.4058 C   0  0  0  0  0  0  0  0  0  0  0  0
   -4.9078   -0.2705   -2.8078 C   0  0  0  0  0  0  0  0  0  0  0  0
   -3.8646    0.3927   -3.4427 C   0  0  0  0  0  0  0  0  0  0  0  0
   -3.9850    1.7266   -3.7793 C   0  0  0  0  0  0  0  0  0  0  0  0
   -5.1469    2.4325   -3.4931 C   0  0  0  0  0  0  0  0  0  0  0  0
   -5.2577    3.8938   -3.8217 C   0  0  0  0  0  0  0  0  0  0  0  0
   -4.7159    4.7414   -2.6689 C   0  0  0  0  0  0  0  0  0  0  0  0
   -6.1816    1.7669   -2.8510 C   0  0  0  0  0  0  0  0  0  0  0  0
   -6.0653    0.4319   -2.5077 C   0  0  0  0  0  0  0  0  0  0  0  0
   -4.0852   -2.5264   -3.5198 C   0  0  0  0  0  0  0  0  0  0  0  0
   -4.5561   -2.3779   -4.8186 C   0  0  0  0  0  0  0  0  0  0  0  0
   -4.0152   -3.1201   -5.8500 C   0  0  0  0  0  0  0  0  0  0  0  0
   -2.9910   -4.0284   -5.6133 C   0  0  0  0  0  0  0  0  0  0  0  0
   -2.4305   -4.8633   -6.7287 C   0  0  0  0  0  0  0  0  0  0  0  0
   -3.2098   -6.1735   -6.8583 C   0  0  0  0  0  0  0  0  0  0  0  0
   -2.5320   -4.1802   -4.3126 C   0  0  0  0  0  0  0  0  0  0  0  0
   -3.0731   -3.4424   -3.2753 C   0  0  0  0  0  0  0  0  0  0  0  0
    3.1215    3.4383    0.4377 C   0  0  0  0  0  0  0  0  0  0  0  0
    3.0890    4.8000    0.1959 C   0  0  0  0  0  0  0  0  0  0  0  0
    4.7415    8.7173    0.3768 H   0  0  0  0  0  0  0  0  0  0  0  0
    5.7824    7.3175    0.6603 H   0  0  0  0  0  0  0  0  0  0  0  0
    4.2033    7.4106    1.4384 H   0  0  0  0  0  0  0  0  0  0  0  0
    3.0921    7.2690   -0.7916 H   0  0  0  0  0  0  0  0  0  0  0  0
    4.6773    7.1745   -1.5727 H   0  0  0  0  0  0  0  0  0  0  0  0
    6.0552    5.1499   -1.3577 H   0  0  0  0  0  0  0  0  0  0  0  0
    6.1173    2.7346   -0.9373 H   0  0  0  0  0  0  0  0  0  0  0  0
    5.9886   -0.9577    0.3548 H   0  0  0  0  0  0  0  0  0  0  0  0
    6.7764   -2.2770   -1.5532 H   0  0  0  0  0  0  0  0  0  0  0  0
    6.2688   -1.3261   -5.0749 H   0  0  0  0  0  0  0  0  0  0  0  0
    7.1646   -2.3831   -3.9742 H   0  0  0  0  0  0  0  0  0  0  0  0
    5.0916   -3.7146   -3.5726 H   0  0  0  0  0  0  0  0  0  0  0  0
    4.2004   -2.6622   -4.6707 H   0  0  0  0  0  0  0  0  0  0  0  0
    5.5040   -3.6820   -5.2910 H   0  0  0  0  0  0  0  0  0  0  0  0
    4.5777    0.2360   -4.2049 H   0  0  0  0  0  0  0  0  0  0  0  0
    3.7994    1.5675   -2.3007 H   0  0  0  0  0  0  0  0  0  0  0  0
    1.8053    0.6370   -1.0152 H   0  0  0  0  0  0  0  0  0  0  0  0
    2.0298   -0.7070    3.8084 H   0  0  0  0  0  0  0  0  0  0  0  0
    7.5119    1.2181    3.9105 H   0  0  0  0  0  0  0  0  0  0  0  0
    7.1763    1.8509    1.3925 H   0  0  0  0  0  0  0  0  0  0  0  0
   -2.2215    0.8414    2.2828 H   0  0  0  0  0  0  0  0  0  0  0  0
   -3.0792    2.2473    4.0923 H   0  0  0  0  0  0  0  0  0  0  0  0
   -3.5253    2.4570    6.5145 H   0  0  0  0  0  0  0  0  0  0  0  0
   -2.5486    1.5554    7.6825 H   0  0  0  0  0  0  0  0  0  0  0  0
   -1.5528    3.8882    5.9751 H   0  0  0  0  0  0  0  0  0  0  0  0
   -0.5803    2.9906    7.1397 H   0  0  0  0  0  0  0  0  0  0  0  0
   -1.9438    3.9674    7.6969 H   0  0  0  0  0  0  0  0  0  0  0  0
   -0.8421   -0.0215    6.9259 H   0  0  0  0  0  0  0  0  0  0  0  0
    0.0030   -1.4460    5.1200 H   0  0  0  0  0  0  0  0  0  0  0  0
   -2.2858   -2.7272    3.8125 H   0  0  0  0  0  0  0  0  0  0  0  0
   -2.2230   -5.1153    4.3582 H   0  0  0  0  0  0  0  0  0  0  0  0
    0.3271   -7.4551    3.1000 H   0  0  0  0  0  0  0  0  0  0  0  0
   -1.2523   -7.3157    3.8862 H   0  0  0  0  0  0  0  0  0  0  0  0
   -0.1387   -6.5418    5.9805 H   0  0  0  0  0  0  0  0  0  0  0  0
    1.4353   -6.6787    5.1974 H   0  0  0  0  0  0  0  0  0  0  0  0
    0.4666   -8.1276    5.4890 H   0  0  0  0  0  0  0  0  0  0  0  0
    1.6038   -5.4383    2.5031 H   0  0  0  0  0  0  0  0  0  0  0  0
    1.5385   -3.0546    1.9428 H   0  0  0  0  0  0  0  0  0  0  0  0
   -8.9973   -3.8530   -1.8887 H   0  0  0  0  0  0  0  0  0  0  0  0
   -7.4428   -2.6558   -3.6220 H   0  0  0  0  0  0  0  0  0  0  0  0
   -2.9561   -0.1426   -3.6779 H   0  0  0  0  0  0  0  0  0  0  0  0
   -3.1644    2.2267   -4.2739 H   0  0  0  0  0  0  0  0  0  0  0  0
   -6.3025    4.1556   -4.0012 H   0  0  0  0  0  0  0  0  0  0  0  0
   -4.6894    4.1137   -4.7278 H   0  0  0  0  0  0  0  0  0  0  0  0
   -4.7954    5.8005   -2.9035 H   0  0  0  0  0  0  0  0  0  0  0  0
   -3.6710    4.5029   -2.4837 H   0  0  0  0  0  0  0  0  0  0  0  0
   -5.2775    4.5434   -1.7586 H   0  0  0  0  0  0  0  0  0  0  0  0
   -7.0934    2.2981   -2.6162 H   0  0  0  0  0  0  0  0  0  0  0  0
   -6.8832   -0.0642   -2.0060 H   0  0  0  0  0  0  0  0  0  0  0  0
   -5.3440   -1.6667   -5.0217 H   0  0  0  0  0  0  0  0  0  0  0  0
   -4.3902   -2.9894   -6.8554 H   0  0  0  0  0  0  0  0  0  0  0  0
   -1.3802   -5.0876   -6.5313 H   0  0  0  0  0  0  0  0  0  0  0  0
   -2.4917   -4.3135   -7.6701 H   0  0  0  0  0  0  0  0  0  0  0  0
   -2.8055   -6.7801   -7.6655 H   0  0  0  0  0  0  0  0  0  0  0  0
   -4.2580   -5.9706   -7.0670 H   0  0  0  0  0  0  0  0  0  0  0  0
   -3.1502   -6.7414   -5.9325 H   0  0  0  0  0  0  0  0  0  0  0  0
   -1.7372   -4.8829   -4.1056 H   0  0  0  0  0  0  0  0  0  0  0  0
   -2.6992   -3.5822   -2.2718 H   0  0  0  0  0  0  0  0  0  0  0  0
    2.2951    2.9668    0.9492 H   0  0  0  0  0  0  0  0  0  0  0  0
    2.2330    5.3758    0.5187 H   0  0  0  0  0  0  0  0  0  0  0  0
  1  2  1  0  0  0  0
  2  3  1  0  0  0  0
  3  4  2  0  0  0  0
  4  5  1  0  0  0  0
  5  6  2  0  0  0  0
  6  7  1  0  0  0  0
  7  8  1  0  0  0  0
  8  9  2  0  0  0  0
  9 10  1  0  0  0  0
 10 11  2  0  0  0  0
 11 12  1  0  0  0  0
 12 13  1  0  0  0  0
 11 14  1  0  0  0  0
 14 15  2  0  0  0  0
  7 16  1  0  0  0  0
 16 17  2  0  0  0  0
 17 18  1  0  0  0  0
 18 19  2  0  0  0  0
 19 20  1  0  0  0  0
 20 21  2  0  0  0  0
 21 22  1  0  0  0  0
 22 23  1  0  0  0  0
 23 24  1  0  0  0  0
 24 25  2  0  0  0  0
 25 26  1  0  0  0  0
 19 27  1  0  0  0  0
 27 28  1  0  0  0  0
 28 29  2  0  0  0  0
 29 30  1  0  0  0  0
 30 31  2  0  0  0  0
 31 32  1  0  0  0  0
 32 33  1  0  0  0  0
 31 34  1  0  0  0  0
 34 35  2  0  0  0  0
 27 36  1  0  0  0  0
 36 37  2  0  0  0  0
 37 38  1  0  0  0  0
 38 39  2  0  0  0  0
 39 40  1  0  0  0  0
 40 41  1  0  0  0  0
 39 42  1  0  0  0  0
 42 43  2  0  0  0  0
 27 44  1  0  0  0  0
 44 45  2  0  0  0  0
 45 46  1  0  0  0  0
 46 47  1  0  0  0  0
 47 48  1  0  0  0  0
 48 49  2  0  0  0  0
 49 50  1  0  0  0  0
 50 51  1  0  0  0  0
 49 52  1  0  0  0  0
 52 53  1  0  0  0  0
 53 54  1  0  0  0  0
 54 55  2  0  0  0  0
 55 56  1  0  0  0  0
 56 57  1  0  0  0  0
 57 58  1  0  0  0  0
 58 59  2  0  0  0  0
 59 60  1  0  0  0  0
 60 61  2  0  0  0  0
 61 62  1  0  0  0  0
 62 63  1  0  0  0  0
 61 64  1  0  0  0  0
 64 65  2  0  0  0  0
 57 66  1  0  0  0  0
 66 67  2  0  0  0  0
 67 68  1  0  0  0  0
 68 69  2  0  0  0  0
 69 70  1  0  0  0  0
 70 71  1  0  0  0  0
 69 72  1  0  0  0  0
 72 73  2  0  0  0  0
  6 74  1  0  0  0  0
 74 75  2  0  0  0  0
 75  3  1  0  0  0  0
 26  7  1  0  0  0  0
 35 28  1  0  0  0  0
 43 36  1  0  0  0  0
 51 44  1  0  0  0  0
 56 52  2  0  0  0  0
 65 58  1  0  0  0  0
 73 66  1  0  0  0  0
 15  8  1  0  0  0  0
 21 16  1  0  0  0  0
 26 22  2  0  0  0  0
 51 47  2  0  0  0  0
 45 18  1  0  0  0  0
 57 48  1  0  0  0  0
  1 76  1  0  0  0  0
  1 77  1  0  0  0  0
  1 78  1  0  0  0  0
  2 79  1  0  0  0  0
  2 80  1  0  0  0  0
  4 81  1  0  0  0  0
  5 82  1  0  0  0  0
  9 83  1  0  0  0  0
 10 84  1  0  0  0  0
 12 85  1  0  0  0  0
 12 86  1  0  0  0  0
 13 87  1  0  0  0  0
 13 88  1  0  0  0  0
 13 89  1  0  0  0  0
 14 90  1  0  0  0  0
 15 91  1  0  0  0  0
 17 92  1  0  0  0  0
 20 93  1  0  0  0  0
 24 94  1  0  0  0  0
 25 95  1  0  0  0  0
 29 96  1  0  0  0  0
 30 97  1  0  0  0  0
 32 98  1  0  0  0  0
 32 99  1  0  0  0  0
 33100  1  0  0  0  0
 33101  1  0  0  0  0
 33102  1  0  0  0  0
 34103  1  0  0  0  0
 35104  1  0  0  0  0
 37105  1  0  0  0  0
 38106  1  0  0  0  0
 40107  1  0  0  0  0
 40108  1  0  0  0  0
 41109  1  0  0  0  0
 41110  1  0  0  0  0
 41111  1  0  0  0  0
 42112  1  0  0  0  0
 43113  1  0  0  0  0
 54114  1  0  0  0  0
 55115  1  0  0  0  0
 59116  1  0  0  0  0
 60117  1  0  0  0  0
 62118  1  0  0  0  0
 62119  1  0  0  0  0
 63120  1  0  0  0  0
 63121  1  0  0  0  0
 63122  1  0  0  0  0
 64123  1  0  0  0  0
 65124  1  0  0  0  0
 67125  1  0  0  0  0
 68126  1  0  0  0  0
 70127  1  0  0  0  0
 70128  1  0  0  0  0
 71129  1  0  0  0  0
 71130  1  0  0  0  0
 71131  1  0  0  0  0
 72132  1  0  0  0  0
 73133  1  0  0  0  0
 74134  1  0  0  0  0
 75135  1  0  0  0  0
M  END
