
  xtb     01172214293D
 energy: -24.216888683359 gnorm: 0.000609351556 xtb: 6.4.1 (unknown)
 16 16  0     0  0            999 V2000
    0.4950    0.3303   -1.3122 C   0  0  0  0  0  0  0  0  0  0  0  0
   -0.0968   -0.4265   -0.1271 C   0  0  0  0  0  0  0  0  0  0  0  0
    0.1463    0.2177    1.1070 O   0  0  0  0  0  0  0  0  0  0  0  0
    1.3863    0.1193    1.6487 C   0  0  0  0  0  0  0  0  0  0  0  0
    1.6700    0.8289    2.8518 C   0  0  0  0  0  0  0  0  0  0  0  0
    2.9326    0.6227    3.2917 C   0  0  0  0  0  0  0  0  0  0  0  0
    3.8129   -0.4341    2.2623 S   0  0  0  0  0  0  0  0  0  0  0  0
    2.4551   -0.6058    1.2131 C   0  0  0  0  0  0  0  0  0  0  0  0
    1.5786    0.3769   -1.2391 H   0  0  0  0  0  0  0  0  0  0  0  0
    0.2244   -0.1691   -2.2383 H   0  0  0  0  0  0  0  0  0  0  0  0
    0.1070    1.3457   -1.3307 H   0  0  0  0  0  0  0  0  0  0  0  0
   -1.1868   -0.4553   -0.2099 H   0  0  0  0  0  0  0  0  0  0  0  0
    0.2791   -1.4571   -0.0981 H   0  0  0  0  0  0  0  0  0  0  0  0
    0.9419    1.4514    3.3372 H   0  0  0  0  0  0  0  0  0  0  0  0
    3.4089    1.0267    4.1620 H   0  0  0  0  0  0  0  0  0  0  0  0
    2.5532   -1.2359    0.3532 H   0  0  0  0  0  0  0  0  0  0  0  0
  1  2  1  0  0  0  0
  2  3  1  0  0  0  0
  3  4  1  0  0  0  0
  4  5  1  0  0  0  0
  5  6  2  0  0  0  0
  6  7  1  0  0  0  0
  7  8  1  0  0  0  0
  8  4  2  0  0  0  0
  1  9  1  0  0  0  0
  1 10  1  0  0  0  0
  1 11  1  0  0  0  0
  2 12  1  0  0  0  0
  2 13  1  0  0  0  0
  5 14  1  0  0  0  0
  6 15  1  0  0  0  0
  8 16  1  0  0  0  0
M  END
