
  xtb     01172214303D
 energy: -54.501309729907 gnorm: 0.000917867420 xtb: 6.4.1 (unknown)
 28 30  0     0  0            999 V2000
   -1.5191   -4.3490    0.0348 C   0  0  0  0  0  0  0  0  0  0  0  0
   -0.8693   -3.2100    0.2844 C   0  0  0  0  0  0  0  0  0  0  0  0
    0.5158   -3.2093    0.8594 C   0  0  0  0  0  0  0  0  0  0  0  0
    1.1722   -4.1828    1.1408 O   0  0  0  0  0  0  0  0  0  0  0  0
    0.8848   -1.7918    1.0012 C   0  0  0  0  0  0  0  0  0  0  0  0
    2.0435   -1.2576    1.4902 C   0  0  0  0  0  0  0  0  0  0  0  0
    2.1880    0.1452    1.5459 C   0  0  0  0  0  0  0  0  0  0  0  0
    3.3614    0.7475    2.0457 C   0  0  0  0  0  0  0  0  0  0  0  0
    3.4870    2.1074    2.0974 C   0  0  0  0  0  0  0  0  0  0  0  0
    2.4269    2.9057    1.6433 C   0  0  0  0  0  0  0  0  0  0  0  0
    2.5700    4.2406    1.7031 F   0  0  0  0  0  0  0  0  0  0  0  0
    1.2688    2.3743    1.1487 C   0  0  0  0  0  0  0  0  0  0  0  0
    1.1211    0.9740    1.0886 C   0  0  0  0  0  0  0  0  0  0  0  0
   -0.0654    0.3951    0.5860 C   0  0  0  0  0  0  0  0  0  0  0  0
   -0.1862   -0.9707    0.5421 C   0  0  0  0  0  0  0  0  0  0  0  0
   -1.2812   -1.8188    0.0898 C   0  0  0  0  0  0  0  0  0  0  0  0
   -2.4726   -1.3954   -0.4225 C   0  0  0  0  0  0  0  0  0  0  0  0
   -3.5171   -2.2520   -0.8363 C   0  0  0  0  0  0  0  0  0  0  0  0
   -4.4047   -2.8901   -1.1840 N   0  0  0  0  0  0  0  0  0  0  0  0
   -2.8230   -0.0390   -0.6081 C   0  0  0  0  0  0  0  0  0  0  0  0
   -3.1606    1.0430   -0.7848 N   0  0  0  0  0  0  0  0  0  0  0  0
   -1.0225   -5.2811    0.2549 H   0  0  0  0  0  0  0  0  0  0  0  0
   -2.5125   -4.4004   -0.3734 H   0  0  0  0  0  0  0  0  0  0  0  0
    2.8394   -1.9019    1.8323 H   0  0  0  0  0  0  0  0  0  0  0  0
    4.1641    0.1128    2.3896 H   0  0  0  0  0  0  0  0  0  0  0  0
    4.3768    2.5838    2.4775 H   0  0  0  0  0  0  0  0  0  0  0  0
    0.4735    3.0186    0.8078 H   0  0  0  0  0  0  0  0  0  0  0  0
   -0.8537    1.0486    0.2484 H   0  0  0  0  0  0  0  0  0  0  0  0
  1  2  2  0  0  0  0
  2  3  1  0  0  0  0
  3  4  2  0  0  0  0
  3  5  1  0  0  0  0
  5  6  2  0  0  0  0
  6  7  1  0  0  0  0
  7  8  2  0  0  0  0
  8  9  1  0  0  0  0
  9 10  2  0  0  0  0
 10 11  1  0  0  0  0
 10 12  1  0  0  0  0
 12 13  2  0  0  0  0
 13 14  1  0  0  0  0
 14 15  2  0  0  0  0
 15 16  1  0  0  0  0
 16 17  2  0  0  0  0
 17 18  1  0  0  0  0
 18 19  3  0  0  0  0
 17 20  1  0  0  0  0
 20 21  3  0  0  0  0
 16  2  1  0  0  0  0
 15  5  1  0  0  0  0
 13  7  1  0  0  0  0
  1 22  1  0  0  0  0
  1 23  1  0  0  0  0
  6 24  1  0  0  0  0
  8 25  1  0  0  0  0
  9 26  1  0  0  0  0
 12 27  1  0  0  0  0
 14 28  1  0  0  0  0
M  END
