
  xtb     01172214303D
 energy: -130.729413092623 gnorm: 0.000325697699 xtb: 6.4.1 (unknown)
 92100  0     0  0            999 V2000
    2.7832   -3.4841    6.0843 C   0  0  0  0  0  0  0  0  0  0  0  0
    3.5631   -2.1677    6.0907 C   0  0  0  0  0  0  0  0  0  0  0  0
    3.1413   -1.3045    4.9364 C   0  0  0  0  0  0  0  0  0  0  0  0
    2.0600   -0.4408    5.0543 C   0  0  0  0  0  0  0  0  0  0  0  0
    1.6399    0.3219    3.9816 C   0  0  0  0  0  0  0  0  0  0  0  0
    2.2949    0.2419    2.7586 C   0  0  0  0  0  0  0  0  0  0  0  0
    1.7849    1.0333    1.5710 C   0  0  0  0  0  0  0  0  0  0  0  0
    1.3105    2.4173    1.9674 C   0  0  0  0  0  0  0  0  0  0  0  0
    2.0864    3.1805    2.8324 C   0  0  0  0  0  0  0  0  0  0  0  0
    1.7087    4.4661    3.1667 C   0  0  0  0  0  0  0  0  0  0  0  0
    0.5506    5.0274    2.6436 C   0  0  0  0  0  0  0  0  0  0  0  0
    0.1682    6.4424    2.9708 C   0  0  0  0  0  0  0  0  0  0  0  0
    0.8248    7.4128    1.9868 C   0  0  0  0  0  0  0  0  0  0  0  0
   -0.2140    4.2660    1.7711 C   0  0  0  0  0  0  0  0  0  0  0  0
    0.1599    2.9778    1.4324 C   0  0  0  0  0  0  0  0  0  0  0  0
    0.7266    0.1912    0.8722 C   0  0  0  0  0  0  0  0  0  0  0  0
   -0.4382   -0.3188    1.4004 C   0  0  0  0  0  0  0  0  0  0  0  0
   -1.2320   -1.0917    0.5608 C   0  0  0  0  0  0  0  0  0  0  0  0
   -0.8657   -1.3543   -0.7773 C   0  0  0  0  0  0  0  0  0  0  0  0
    0.2973   -0.8415   -1.3064 C   0  0  0  0  0  0  0  0  0  0  0  0
    1.0930   -0.0720   -0.4655 C   0  0  0  0  0  0  0  0  0  0  0  0
    2.3556    0.5739   -0.6825 C   0  0  0  0  0  0  0  0  0  0  0  0
    3.4573    0.7625   -1.9899 S   0  0  0  0  0  0  0  0  0  0  0  0
    4.5031    1.6928   -0.9744 C   0  0  0  0  0  0  0  0  0  0  0  0
    4.0299    1.8485    0.2938 C   0  0  0  0  0  0  0  0  0  0  0  0
    2.7953    1.1991    0.4630 C   0  0  0  0  0  0  0  0  0  0  0  0
   -1.9094   -2.2213   -1.4667 C   0  0  0  0  0  0  0  0  0  0  0  0
   -2.4497   -1.4612   -2.6613 C   0  0  0  0  0  0  0  0  0  0  0  0
   -1.7975   -1.5320   -3.8865 C   0  0  0  0  0  0  0  0  0  0  0  0
   -2.2647   -0.8184   -4.9736 C   0  0  0  0  0  0  0  0  0  0  0  0
   -3.3919   -0.0139   -4.8686 C   0  0  0  0  0  0  0  0  0  0  0  0
   -3.8797    0.7863   -6.0423 C   0  0  0  0  0  0  0  0  0  0  0  0
   -3.2398    2.1759   -6.0475 C   0  0  0  0  0  0  0  0  0  0  0  0
   -4.0303    0.0670   -3.6388 C   0  0  0  0  0  0  0  0  0  0  0  0
   -3.5653   -0.6435   -2.5475 C   0  0  0  0  0  0  0  0  0  0  0  0
   -1.4008   -3.5971   -1.8539 C   0  0  0  0  0  0  0  0  0  0  0  0
   -0.2475   -4.1317   -1.2977 C   0  0  0  0  0  0  0  0  0  0  0  0
    0.1584   -5.4091   -1.6427 C   0  0  0  0  0  0  0  0  0  0  0  0
   -0.5800   -6.1616   -2.5373 C   0  0  0  0  0  0  0  0  0  0  0  0
   -1.7461   -5.6479   -3.0896 C   0  0  0  0  0  0  0  0  0  0  0  0
   -2.5340   -6.4321   -4.0997 C   0  0  0  0  0  0  0  0  0  0  0  0
   -2.0988   -6.0552   -5.5173 C   0  0  0  0  0  0  0  0  0  0  0  0
   -2.1471   -4.3689   -2.7346 C   0  0  0  0  0  0  0  0  0  0  0  0
   -2.9108   -2.4029   -0.3535 C   0  0  0  0  0  0  0  0  0  0  0  0
   -4.1279   -3.0821   -0.1751 C   0  0  0  0  0  0  0  0  0  0  0  0
   -4.5998   -2.9295    1.0940 C   0  0  0  0  0  0  0  0  0  0  0  0
   -3.5736   -1.9663    2.0987 S   0  0  0  0  0  0  0  0  0  0  0  0
   -2.4821   -1.7587    0.7854 C   0  0  0  0  0  0  0  0  0  0  0  0
    3.3702   -0.6263    2.6340 C   0  0  0  0  0  0  0  0  0  0  0  0
    3.7881   -1.3862    3.7112 C   0  0  0  0  0  0  0  0  0  0  0  0
    1.7156   -3.2913    6.1633 H   0  0  0  0  0  0  0  0  0  0  0  0
    3.0864   -4.1116    6.9194 H   0  0  0  0  0  0  0  0  0  0  0  0
    2.9637   -4.0255    5.1583 H   0  0  0  0  0  0  0  0  0  0  0  0
    3.3783   -1.6450    7.0315 H   0  0  0  0  0  0  0  0  0  0  0  0
    4.6317   -2.3821    6.0229 H   0  0  0  0  0  0  0  0  0  0  0  0
    1.5408   -0.3629    5.9993 H   0  0  0  0  0  0  0  0  0  0  0  0
    0.8025    0.9949    4.0981 H   0  0  0  0  0  0  0  0  0  0  0  0
    2.9875    2.7582    3.2539 H   0  0  0  0  0  0  0  0  0  0  0  0
    2.3211    5.0430    3.8457 H   0  0  0  0  0  0  0  0  0  0  0  0
    0.4883    6.6880    3.9856 H   0  0  0  0  0  0  0  0  0  0  0  0
   -0.9166    6.5552    2.9177 H   0  0  0  0  0  0  0  0  0  0  0  0
    0.5489    8.4387    2.2201 H   0  0  0  0  0  0  0  0  0  0  0  0
    1.9079    7.3243    2.0346 H   0  0  0  0  0  0  0  0  0  0  0  0
    0.5093    7.1900    0.9699 H   0  0  0  0  0  0  0  0  0  0  0  0
   -1.1167    4.6849    1.3489 H   0  0  0  0  0  0  0  0  0  0  0  0
   -0.4498    2.4066    0.7479 H   0  0  0  0  0  0  0  0  0  0  0  0
   -0.7316   -0.1327    2.4222 H   0  0  0  0  0  0  0  0  0  0  0  0
    0.5932   -1.0307   -2.3269 H   0  0  0  0  0  0  0  0  0  0  0  0
    5.4167    2.0708   -1.3889 H   0  0  0  0  0  0  0  0  0  0  0  0
    4.5478    2.3980    1.0588 H   0  0  0  0  0  0  0  0  0  0  0  0
   -0.9269   -2.1630   -3.9945 H   0  0  0  0  0  0  0  0  0  0  0  0
   -1.7483   -0.8913   -5.9206 H   0  0  0  0  0  0  0  0  0  0  0  0
   -4.9657    0.8911   -5.9929 H   0  0  0  0  0  0  0  0  0  0  0  0
   -3.6283    0.2711   -6.9718 H   0  0  0  0  0  0  0  0  0  0  0  0
   -2.1567    2.0929   -6.1033 H   0  0  0  0  0  0  0  0  0  0  0  0
   -3.5893    2.7534   -6.9003 H   0  0  0  0  0  0  0  0  0  0  0  0
   -3.4939    2.7125   -5.1361 H   0  0  0  0  0  0  0  0  0  0  0  0
   -4.9068    0.6909   -3.5331 H   0  0  0  0  0  0  0  0  0  0  0  0
   -4.0797   -0.5650   -1.6008 H   0  0  0  0  0  0  0  0  0  0  0  0
    0.3347   -3.5522   -0.5968 H   0  0  0  0  0  0  0  0  0  0  0  0
    1.0595   -5.8180   -1.2092 H   0  0  0  0  0  0  0  0  0  0  0  0
   -0.2536   -7.1562   -2.8059 H   0  0  0  0  0  0  0  0  0  0  0  0
   -2.3779   -7.5016   -3.9453 H   0  0  0  0  0  0  0  0  0  0  0  0
   -3.5994   -6.2214   -3.9840 H   0  0  0  0  0  0  0  0  0  0  0  0
   -2.2617   -4.9938   -5.6920 H   0  0  0  0  0  0  0  0  0  0  0  0
   -1.0406   -6.2663   -5.6552 H   0  0  0  0  0  0  0  0  0  0  0  0
   -2.6649   -6.6205   -6.2542 H   0  0  0  0  0  0  0  0  0  0  0  0
   -3.0535   -3.9613   -3.1607 H   0  0  0  0  0  0  0  0  0  0  0  0
   -4.6338   -3.6504   -0.9344 H   0  0  0  0  0  0  0  0  0  0  0  0
   -5.5019   -3.3277    1.5148 H   0  0  0  0  0  0  0  0  0  0  0  0
    3.8874   -0.7092    1.6892 H   0  0  0  0  0  0  0  0  0  0  0  0
    4.6313   -2.0529    3.5966 H   0  0  0  0  0  0  0  0  0  0  0  0
  1  2  1  0  0  0  0
  2  3  1  0  0  0  0
  3  4  2  0  0  0  0
  4  5  1  0  0  0  0
  5  6  2  0  0  0  0
  6  7  1  0  0  0  0
  7  8  1  0  0  0  0
  8  9  2  0  0  0  0
  9 10  1  0  0  0  0
 10 11  2  0  0  0  0
 11 12  1  0  0  0  0
 12 13  1  0  0  0  0
 11 14  1  0  0  0  0
 14 15  2  0  0  0  0
  7 16  1  0  0  0  0
 16 17  2  0  0  0  0
 17 18  1  0  0  0  0
 18 19  2  0  0  0  0
 19 20  1  0  0  0  0
 20 21  2  0  0  0  0
 21 22  1  0  0  0  0
 22 23  1  0  0  0  0
 23 24  1  0  0  0  0
 24 25  2  0  0  0  0
 25 26  1  0  0  0  0
 19 27  1  0  0  0  0
 27 28  1  0  0  0  0
 28 29  2  0  0  0  0
 29 30  1  0  0  0  0
 30 31  2  0  0  0  0
 31 32  1  0  0  0  0
 32 33  1  0  0  0  0
 31 34  1  0  0  0  0
 34 35  2  0  0  0  0
 27 36  1  0  0  0  0
 36 37  2  0  0  0  0
 37 38  1  0  0  0  0
 38 39  2  0  0  0  0
 39 40  1  0  0  0  0
 40 41  1  0  0  0  0
 41 42  1  0  0  0  0
 40 43  2  0  0  0  0
 27 44  1  0  0  0  0
 44 45  1  0  0  0  0
 45 46  2  0  0  0  0
 46 47  1  0  0  0  0
 47 48  1  0  0  0  0
  6 49  1  0  0  0  0
 49 50  2  0  0  0  0
 50  3  1  0  0  0  0
 26  7  1  0  0  0  0
 35 28  1  0  0  0  0
 43 36  1  0  0  0  0
 48 44  2  0  0  0  0
 15  8  1  0  0  0  0
 21 16  1  0  0  0  0
 26 22  2  0  0  0  0
 48 18  1  0  0  0  0
  1 51  1  0  0  0  0
  1 52  1  0  0  0  0
  1 53  1  0  0  0  0
  2 54  1  0  0  0  0
  2 55  1  0  0  0  0
  4 56  1  0  0  0  0
  5 57  1  0  0  0  0
  9 58  1  0  0  0  0
 10 59  1  0  0  0  0
 12 60  1  0  0  0  0
 12 61  1  0  0  0  0
 13 62  1  0  0  0  0
 13 63  1  0  0  0  0
 13 64  1  0  0  0  0
 14 65  1  0  0  0  0
 15 66  1  0  0  0  0
 17 67  1  0  0  0  0
 20 68  1  0  0  0  0
 24 69  1  0  0  0  0
 25 70  1  0  0  0  0
 29 71  1  0  0  0  0
 30 72  1  0  0  0  0
 32 73  1  0  0  0  0
 32 74  1  0  0  0  0
 33 75  1  0  0  0  0
 33 76  1  0  0  0  0
 33 77  1  0  0  0  0
 34 78  1  0  0  0  0
 35 79  1  0  0  0  0
 37 80  1  0  0  0  0
 38 81  1  0  0  0  0
 39 82  1  0  0  0  0
 41 83  1  0  0  0  0
 41 84  1  0  0  0  0
 42 85  1  0  0  0  0
 42 86  1  0  0  0  0
 42 87  1  0  0  0  0
 43 88  1  0  0  0  0
 45 89  1  0  0  0  0
 46 90  1  0  0  0  0
 49 91  1  0  0  0  0
 50 92  1  0  0  0  0
M  END
