
  xtb     01172214303D
 energy: -33.149599002312 gnorm: 0.000736956252 xtb: 6.4.1 (unknown)
 13 14  0     0  0            999 V2000
   -0.9213   -2.4628    0.3283 F   0  0  0  0  0  0  0  0  0  0  0  0
    0.0277   -1.5269    0.4286 C   0  0  0  0  0  0  0  0  0  0  0  0
    0.6256   -1.2894    1.6279 C   0  0  0  0  0  0  0  0  0  0  0  0
    1.6139   -0.2865    1.6412 C   0  0  0  0  0  0  0  0  0  0  0  0
    2.3739    0.1875    2.6103 N   0  0  0  0  0  0  0  0  0  0  0  0
    3.1295    1.1282    2.0592 O   0  0  0  0  0  0  0  0  0  0  0  0
    2.9043    1.3002    0.7634 N   0  0  0  0  0  0  0  0  0  0  0  0
    1.9595    0.4384    0.4380 C   0  0  0  0  0  0  0  0  0  0  0  0
    1.3188    0.1647   -0.7857 C   0  0  0  0  0  0  0  0  0  0  0  0
    0.3694   -0.8101   -0.7612 C   0  0  0  0  0  0  0  0  0  0  0  0
   -0.2870   -1.1323   -1.8800 F   0  0  0  0  0  0  0  0  0  0  0  0
    0.3604   -1.8350    2.5170 H   0  0  0  0  0  0  0  0  0  0  0  0
    1.5679    0.6978   -1.6869 H   0  0  0  0  0  0  0  0  0  0  0  0
  1  2  1  0  0  0  0
  2  3  2  0  0  0  0
  3  4  1  0  0  0  0
  4  5  2  0  0  0  0
  5  6  1  0  0  0  0
  6  7  1  0  0  0  0
  7  8  2  0  0  0  0
  8  9  1  0  0  0  0
  9 10  2  0  0  0  0
 10 11  1  0  0  0  0
 10  2  1  0  0  0  0
  8  4  1  0  0  0  0
  3 12  1  0  0  0  0
  9 13  1  0  0  0  0
M  END
