
  xtb     01172214303D
 energy: -146.987130184264 gnorm: 0.000184287436 xtb: 6.4.1 (unknown)
 96104  0     0  0            999 V2000
    6.6765    5.7891   -2.4321 C   0  0  0  0  0  0  0  0  0  0  0  0
    6.3014    4.3156   -2.4577 C   0  0  0  0  0  0  0  0  0  0  0  0
    5.0291    4.1866   -1.8571 O   0  0  0  0  0  0  0  0  0  0  0  0
    4.4795    2.9479   -1.7361 C   0  0  0  0  0  0  0  0  0  0  0  0
    5.0583    1.7664   -2.1865 C   0  0  0  0  0  0  0  0  0  0  0  0
    4.4018    0.5626   -2.0015 C   0  0  0  0  0  0  0  0  0  0  0  0
    3.1642    0.5030   -1.3776 C   0  0  0  0  0  0  0  0  0  0  0  0
    2.5212   -0.8490   -1.1314 C   0  0  0  0  0  0  0  0  0  0  0  0
    2.5998   -1.7433   -2.3506 C   0  0  0  0  0  0  0  0  0  0  0  0
    2.8011   -3.1133   -2.2332 C   0  0  0  0  0  0  0  0  0  0  0  0
    2.8145   -3.9207   -3.3502 C   0  0  0  0  0  0  0  0  0  0  0  0
    2.6144   -3.3836   -4.6227 C   0  0  0  0  0  0  0  0  0  0  0  0
    2.6287   -4.2822   -5.6467 O   0  0  0  0  0  0  0  0  0  0  0  0
    2.4736   -3.8357   -6.9775 C   0  0  0  0  0  0  0  0  0  0  0  0
    3.7499   -3.2232   -7.5489 C   0  0  0  0  0  0  0  0  0  0  0  0
    2.4032   -2.0146   -4.7434 C   0  0  0  0  0  0  0  0  0  0  0  0
    2.3958   -1.2128   -3.6157 C   0  0  0  0  0  0  0  0  0  0  0  0
    1.0665   -0.7628   -0.6911 C   0  0  0  0  0  0  0  0  0  0  0  0
   -0.0252   -0.3780   -1.4363 C   0  0  0  0  0  0  0  0  0  0  0  0
   -1.2664   -0.4150   -0.8115 C   0  0  0  0  0  0  0  0  0  0  0  0
   -1.4122   -0.8186    0.5333 C   0  0  0  0  0  0  0  0  0  0  0  0
   -0.3204   -1.2034    1.2787 C   0  0  0  0  0  0  0  0  0  0  0  0
    0.9181   -1.1854    0.6477 C   0  0  0  0  0  0  0  0  0  0  0  0
    2.2226   -1.5669    1.1070 C   0  0  0  0  0  0  0  0  0  0  0  0
    2.9099   -2.1673    2.5643 S   0  0  0  0  0  0  0  0  0  0  0  0
    4.4664   -2.2107    1.8124 C   0  0  0  0  0  0  0  0  0  0  0  0
    4.4549   -1.7866    0.5176 C   0  0  0  0  0  0  0  0  0  0  0  0
    3.1608   -1.4220    0.1094 C   0  0  0  0  0  0  0  0  0  0  0  0
   -2.8696   -0.7493    0.9676 C   0  0  0  0  0  0  0  0  0  0  0  0
   -3.4602   -2.0926    1.3470 C   0  0  0  0  0  0  0  0  0  0  0  0
   -2.8600   -3.2901    0.9776 C   0  0  0  0  0  0  0  0  0  0  0  0
   -3.4414   -4.4967    1.3042 C   0  0  0  0  0  0  0  0  0  0  0  0
   -4.6482   -4.5443    2.0028 C   0  0  0  0  0  0  0  0  0  0  0  0
   -5.1287   -5.7937    2.2578 O   0  0  0  0  0  0  0  0  0  0  0  0
   -6.2827   -5.9541    3.0557 C   0  0  0  0  0  0  0  0  0  0  0  0
   -6.0059   -5.7442    4.5420 C   0  0  0  0  0  0  0  0  0  0  0  0
   -5.2631   -3.3476    2.3545 C   0  0  0  0  0  0  0  0  0  0  0  0
   -4.6713   -2.1422    2.0218 C   0  0  0  0  0  0  0  0  0  0  0  0
   -2.9775    0.2566    2.0978 C   0  0  0  0  0  0  0  0  0  0  0  0
   -3.2365    1.5943    1.8486 C   0  0  0  0  0  0  0  0  0  0  0  0
   -3.3054    2.5197    2.8768 C   0  0  0  0  0  0  0  0  0  0  0  0
   -3.1022    2.1173    4.1911 C   0  0  0  0  0  0  0  0  0  0  0  0
   -3.1314    2.9251    5.2879 O   0  0  0  0  0  0  0  0  0  0  0  0
   -3.4987    4.2821    5.1523 C   0  0  0  0  0  0  0  0  0  0  0  0
   -5.0033    4.4709    4.9775 C   0  0  0  0  0  0  0  0  0  0  0  0
   -2.8210    0.7731    4.4436 C   0  0  0  0  0  0  0  0  0  0  0  0
   -2.7572   -0.1391    3.4138 C   0  0  0  0  0  0  0  0  0  0  0  0
   -3.5256   -0.2844   -0.3089 C   0  0  0  0  0  0  0  0  0  0  0  0
   -4.8336   -0.0162   -0.7466 C   0  0  0  0  0  0  0  0  0  0  0  0
   -4.8515    0.3644   -2.0547 C   0  0  0  0  0  0  0  0  0  0  0  0
   -3.2827    0.3989   -2.7821 S   0  0  0  0  0  0  0  0  0  0  0  0
   -2.5817   -0.1082   -1.2956 C   0  0  0  0  0  0  0  0  0  0  0  0
    2.5930    1.6853   -0.9231 C   0  0  0  0  0  0  0  0  0  0  0  0
    3.2373    2.8907   -1.1037 C   0  0  0  0  0  0  0  0  0  0  0  0
    7.6537    5.9309   -2.8847 H   0  0  0  0  0  0  0  0  0  0  0  0
    6.7018    6.1462   -1.4062 H   0  0  0  0  0  0  0  0  0  0  0  0
    5.9396    6.3683   -2.9816 H   0  0  0  0  0  0  0  0  0  0  0  0
    6.2697    3.9505   -3.4943 H   0  0  0  0  0  0  0  0  0  0  0  0
    7.0436    3.7260   -1.9010 H   0  0  0  0  0  0  0  0  0  0  0  0
    6.0185    1.7677   -2.6785 H   0  0  0  0  0  0  0  0  0  0  0  0
    4.8626   -0.3474   -2.3580 H   0  0  0  0  0  0  0  0  0  0  0  0
    2.9507   -3.5529   -1.2582 H   0  0  0  0  0  0  0  0  0  0  0  0
    2.9731   -4.9842   -3.2642 H   0  0  0  0  0  0  0  0  0  0  0  0
    1.6347   -3.1329   -7.0551 H   0  0  0  0  0  0  0  0  0  0  0  0
    2.2158   -4.7391   -7.5380 H   0  0  0  0  0  0  0  0  0  0  0  0
    4.0432   -2.3399   -6.9871 H   0  0  0  0  0  0  0  0  0  0  0  0
    3.5895   -2.9451   -8.5871 H   0  0  0  0  0  0  0  0  0  0  0  0
    4.5598   -3.9465   -7.4974 H   0  0  0  0  0  0  0  0  0  0  0  0
    2.2369   -1.5538   -5.7045 H   0  0  0  0  0  0  0  0  0  0  0  0
    2.2394   -0.1499   -3.7308 H   0  0  0  0  0  0  0  0  0  0  0  0
    0.0673   -0.0649   -2.4648 H   0  0  0  0  0  0  0  0  0  0  0  0
   -0.4138   -1.5216    2.3056 H   0  0  0  0  0  0  0  0  0  0  0  0
    5.3039   -2.5540    2.3870 H   0  0  0  0  0  0  0  0  0  0  0  0
    5.3315   -1.7464   -0.1030 H   0  0  0  0  0  0  0  0  0  0  0  0
   -1.9279   -3.2813    0.4328 H   0  0  0  0  0  0  0  0  0  0  0  0
   -2.9761   -5.4287    1.0244 H   0  0  0  0  0  0  0  0  0  0  0  0
   -6.5910   -6.9887    2.8794 H   0  0  0  0  0  0  0  0  0  0  0  0
   -7.0884   -5.2933    2.7116 H   0  0  0  0  0  0  0  0  0  0  0  0
   -6.9111   -5.9294    5.1139 H   0  0  0  0  0  0  0  0  0  0  0  0
   -5.6669   -4.7291    4.7343 H   0  0  0  0  0  0  0  0  0  0  0  0
   -5.2315   -6.4321    4.8722 H   0  0  0  0  0  0  0  0  0  0  0  0
   -6.2036   -3.3328    2.8826 H   0  0  0  0  0  0  0  0  0  0  0  0
   -5.1603   -1.2220    2.3075 H   0  0  0  0  0  0  0  0  0  0  0  0
   -3.3952    1.9318    0.8349 H   0  0  0  0  0  0  0  0  0  0  0  0
   -3.5137    3.5489    2.6295 H   0  0  0  0  0  0  0  0  0  0  0  0
   -3.1748    4.7447    6.0891 H   0  0  0  0  0  0  0  0  0  0  0  0
   -2.9479    4.7533    4.3287 H   0  0  0  0  0  0  0  0  0  0  0  0
   -5.5296    4.0268    5.8187 H   0  0  0  0  0  0  0  0  0  0  0  0
   -5.3513    3.9934    4.0648 H   0  0  0  0  0  0  0  0  0  0  0  0
   -5.2375    5.5311    4.9335 H   0  0  0  0  0  0  0  0  0  0  0  0
   -2.6543    0.4698    5.4653 H   0  0  0  0  0  0  0  0  0  0  0  0
   -2.5478   -1.1754    3.6339 H   0  0  0  0  0  0  0  0  0  0  0  0
   -5.7154   -0.0969   -0.1373 H   0  0  0  0  0  0  0  0  0  0  0  0
   -5.6999    0.6316   -2.6532 H   0  0  0  0  0  0  0  0  0  0  0  0
    1.6362    1.6646   -0.4231 H   0  0  0  0  0  0  0  0  0  0  0  0
    2.7973    3.8120   -0.7560 H   0  0  0  0  0  0  0  0  0  0  0  0
  1  2  1  0  0  0  0
  2  3  1  0  0  0  0
  3  4  1  0  0  0  0
  4  5  2  0  0  0  0
  5  6  1  0  0  0  0
  6  7  2  0  0  0  0
  7  8  1  0  0  0  0
  8  9  1  0  0  0  0
  9 10  2  0  0  0  0
 10 11  1  0  0  0  0
 11 12  2  0  0  0  0
 12 13  1  0  0  0  0
 13 14  1  0  0  0  0
 14 15  1  0  0  0  0
 12 16  1  0  0  0  0
 16 17  2  0  0  0  0
  8 18  1  0  0  0  0
 18 19  2  0  0  0  0
 19 20  1  0  0  0  0
 20 21  2  0  0  0  0
 21 22  1  0  0  0  0
 22 23  2  0  0  0  0
 23 24  1  0  0  0  0
 24 25  1  0  0  0  0
 25 26  1  0  0  0  0
 26 27  2  0  0  0  0
 27 28  1  0  0  0  0
 21 29  1  0  0  0  0
 29 30  1  0  0  0  0
 30 31  2  0  0  0  0
 31 32  1  0  0  0  0
 32 33  2  0  0  0  0
 33 34  1  0  0  0  0
 34 35  1  0  0  0  0
 35 36  1  0  0  0  0
 33 37  1  0  0  0  0
 37 38  2  0  0  0  0
 29 39  1  0  0  0  0
 39 40  2  0  0  0  0
 40 41  1  0  0  0  0
 41 42  2  0  0  0  0
 42 43  1  0  0  0  0
 43 44  1  0  0  0  0
 44 45  1  0  0  0  0
 42 46  1  0  0  0  0
 46 47  2  0  0  0  0
 29 48  1  0  0  0  0
 48 49  1  0  0  0  0
 49 50  2  0  0  0  0
 50 51  1  0  0  0  0
 51 52  1  0  0  0  0
  7 53  1  0  0  0  0
 53 54  2  0  0  0  0
 54  4  1  0  0  0  0
 28  8  1  0  0  0  0
 38 30  1  0  0  0  0
 47 39  1  0  0  0  0
 52 48  2  0  0  0  0
 17  9  1  0  0  0  0
 23 18  1  0  0  0  0
 28 24  2  0  0  0  0
 52 20  1  0  0  0  0
  1 55  1  0  0  0  0
  1 56  1  0  0  0  0
  1 57  1  0  0  0  0
  2 58  1  0  0  0  0
  2 59  1  0  0  0  0
  5 60  1  0  0  0  0
  6 61  1  0  0  0  0
 10 62  1  0  0  0  0
 11 63  1  0  0  0  0
 14 64  1  0  0  0  0
 14 65  1  0  0  0  0
 15 66  1  0  0  0  0
 15 67  1  0  0  0  0
 15 68  1  0  0  0  0
 16 69  1  0  0  0  0
 17 70  1  0  0  0  0
 19 71  1  0  0  0  0
 22 72  1  0  0  0  0
 26 73  1  0  0  0  0
 27 74  1  0  0  0  0
 31 75  1  0  0  0  0
 32 76  1  0  0  0  0
 35 77  1  0  0  0  0
 35 78  1  0  0  0  0
 36 79  1  0  0  0  0
 36 80  1  0  0  0  0
 36 81  1  0  0  0  0
 37 82  1  0  0  0  0
 38 83  1  0  0  0  0
 40 84  1  0  0  0  0
 41 85  1  0  0  0  0
 44 86  1  0  0  0  0
 44 87  1  0  0  0  0
 45 88  1  0  0  0  0
 45 89  1  0  0  0  0
 45 90  1  0  0  0  0
 46 91  1  0  0  0  0
 47 92  1  0  0  0  0
 49 93  1  0  0  0  0
 50 94  1  0  0  0  0
 53 95  1  0  0  0  0
 54 96  1  0  0  0  0
M  END
