
  xtb     01172214303D
 energy: -102.649487109689 gnorm: 0.000286814349 xtb: 6.4.1 (unknown)
 61 69  0     0  0            999 V2000
    7.0238    2.2417    3.6934 C   0  0  0  0  0  0  0  0  0  0  0  0
    7.1511    2.0440    2.1829 C   0  0  0  0  0  0  0  0  0  0  0  0
    6.2720    0.9308    1.7123 C   0  0  0  0  0  0  0  0  0  0  0  0
    6.7027   -0.2919    1.3047 C   0  0  0  0  0  0  0  0  0  0  0  0
    5.4285   -1.3709    0.8350 S   0  0  0  0  0  0  0  0  0  0  0  0
    4.2487   -0.1543    1.1924 C   0  0  0  0  0  0  0  0  0  0  0  0
    4.8588    1.0087    1.6529 C   0  0  0  0  0  0  0  0  0  0  0  0
    3.7240    2.2832    2.0253 S   0  0  0  0  0  0  0  0  0  0  0  0
    2.4306    1.2380    1.5452 C   0  0  0  0  0  0  0  0  0  0  0  0
    1.0292    1.2545    1.4458 C   0  0  0  0  0  0  0  0  0  0  0  0
    0.1085    2.2558    1.8168 C   0  0  0  0  0  0  0  0  0  0  0  0
    0.3479    3.4431    2.3525 N   0  0  0  0  0  0  0  0  0  0  0  0
   -1.0733    4.1745    2.6224 S   0  0  0  0  0  0  0  0  0  0  0  0
   -2.0447    3.0060    2.0619 N   0  0  0  0  0  0  0  0  0  0  0  0
   -1.2902    2.0015    1.6448 C   0  0  0  0  0  0  0  0  0  0  0  0
   -1.6837    0.7961    1.0279 C   0  0  0  0  0  0  0  0  0  0  0  0
   -2.9506    0.3786    0.5992 C   0  0  0  0  0  0  0  0  0  0  0  0
   -4.5595    0.9998    0.6847 S   0  0  0  0  0  0  0  0  0  0  0  0
   -5.0703   -0.3765   -0.2413 C   0  0  0  0  0  0  0  0  0  0  0  0
   -6.2655   -0.8597   -0.7801 C   0  0  0  0  0  0  0  0  0  0  0  0
   -7.9490   -0.4986   -0.8845 S   0  0  0  0  0  0  0  0  0  0  0  0
   -8.1945   -1.9267   -1.8403 C   0  0  0  0  0  0  0  0  0  0  0  0
   -7.0646   -2.6454   -2.0740 C   0  0  0  0  0  0  0  0  0  0  0  0
   -5.9472   -2.0364   -1.4658 C   0  0  0  0  0  0  0  0  0  0  0  0
   -4.5999   -2.2833   -1.3790 N   0  0  0  0  0  0  0  0  0  0  0  0
   -4.0160   -3.4591   -1.9714 C   0  0  0  0  0  0  0  0  0  0  0  0
   -3.8896   -4.6052   -0.9664 C   0  0  0  0  0  0  0  0  0  0  0  0
   -4.0446   -1.2781   -0.6047 C   0  0  0  0  0  0  0  0  0  0  0  0
   -2.8012   -0.8294   -0.0877 C   0  0  0  0  0  0  0  0  0  0  0  0
   -1.4705   -1.1911   -0.0342 N   0  0  0  0  0  0  0  0  0  0  0  0
   -0.9505   -2.3006   -0.7868 C   0  0  0  0  0  0  0  0  0  0  0  0
   -0.2821   -1.8431   -2.0829 C   0  0  0  0  0  0  0  0  0  0  0  0
   -0.7567   -0.2007    0.6269 C   0  0  0  0  0  0  0  0  0  0  0  0
    0.6264   -0.0067    0.9214 C   0  0  0  0  0  0  0  0  0  0  0  0
    1.7736   -0.7766    0.7442 N   0  0  0  0  0  0  0  0  0  0  0  0
    1.9581   -2.2079    0.6547 C   0  0  0  0  0  0  0  0  0  0  0  0
    1.3514   -2.9271    1.8588 C   0  0  0  0  0  0  0  0  0  0  0  0
    2.8519   -0.0187    1.1245 C   0  0  0  0  0  0  0  0  0  0  0  0
    7.6624    3.0585    4.0201 H   0  0  0  0  0  0  0  0  0  0  0  0
    5.9961    2.4783    3.9573 H   0  0  0  0  0  0  0  0  0  0  0  0
    7.3188    1.3369    4.2205 H   0  0  0  0  0  0  0  0  0  0  0  0
    6.8549    2.9648    1.6749 H   0  0  0  0  0  0  0  0  0  0  0  0
    8.1878    1.8219    1.9235 H   0  0  0  0  0  0  0  0  0  0  0  0
    7.7127   -0.6451    1.2397 H   0  0  0  0  0  0  0  0  0  0  0  0
   -9.1878   -2.1490   -2.1756 H   0  0  0  0  0  0  0  0  0  0  0  0
   -7.0505   -3.5561   -2.6454 H   0  0  0  0  0  0  0  0  0  0  0  0
   -4.6775   -3.7668   -2.7854 H   0  0  0  0  0  0  0  0  0  0  0  0
   -3.0503   -3.2124   -2.4208 H   0  0  0  0  0  0  0  0  0  0  0  0
   -4.8770   -4.8999   -0.6194 H   0  0  0  0  0  0  0  0  0  0  0  0
   -3.4117   -5.4632   -1.4322 H   0  0  0  0  0  0  0  0  0  0  0  0
   -3.3054   -4.3033   -0.0997 H   0  0  0  0  0  0  0  0  0  0  0  0
   -1.7897   -2.9512   -1.0135 H   0  0  0  0  0  0  0  0  0  0  0  0
   -0.2676   -2.8796   -0.1692 H   0  0  0  0  0  0  0  0  0  0  0  0
    0.5321   -1.1531   -1.8743 H   0  0  0  0  0  0  0  0  0  0  0  0
    0.1108   -2.6984   -2.6277 H   0  0  0  0  0  0  0  0  0  0  0  0
   -1.0049   -1.3290   -2.7132 H   0  0  0  0  0  0  0  0  0  0  0  0
    3.0373   -2.3789    0.6479 H   0  0  0  0  0  0  0  0  0  0  0  0
    1.5769   -2.5954   -0.2904 H   0  0  0  0  0  0  0  0  0  0  0  0
    1.8633   -2.6178    2.7671 H   0  0  0  0  0  0  0  0  0  0  0  0
    1.4624   -4.0027    1.7478 H   0  0  0  0  0  0  0  0  0  0  0  0
    0.2960   -2.6878    1.9720 H   0  0  0  0  0  0  0  0  0  0  0  0
  1  2  1  0  0  0  0
  2  3  1  0  0  0  0
  3  4  2  0  0  0  0
  4  5  1  0  0  0  0
  5  6  1  0  0  0  0
  6  7  2  0  0  0  0
  7  8  1  0  0  0  0
  8  9  1  0  0  0  0
  9 10  1  0  0  0  0
 10 11  1  0  0  0  0
 11 12  2  0  0  0  0
 12 13  1  0  0  0  0
 13 14  1  0  0  0  0
 14 15  2  0  0  0  0
 15 16  1  0  0  0  0
 16 17  1  0  0  0  0
 17 18  1  0  0  0  0
 18 19  1  0  0  0  0
 19 20  1  0  0  0  0
 20 21  1  0  0  0  0
 21 22  1  0  0  0  0
 22 23  2  0  0  0  0
 23 24  1  0  0  0  0
 24 25  1  0  0  0  0
 25 26  1  0  0  0  0
 26 27  1  0  0  0  0
 25 28  1  0  0  0  0
 28 29  1  0  0  0  0
 29 30  1  0  0  0  0
 30 31  1  0  0  0  0
 31 32  1  0  0  0  0
 30 33  1  0  0  0  0
 33 34  1  0  0  0  0
 34 35  1  0  0  0  0
 35 36  1  0  0  0  0
 36 37  1  0  0  0  0
 35 38  1  0  0  0  0
  7  3  1  0  0  0  0
 38  9  2  0  0  0  0
 38  6  1  0  0  0  0
 34 10  2  0  0  0  0
 15 11  1  0  0  0  0
 33 16  2  0  0  0  0
 29 17  2  0  0  0  0
 28 19  2  0  0  0  0
 24 20  2  0  0  0  0
  1 39  1  0  0  0  0
  1 40  1  0  0  0  0
  1 41  1  0  0  0  0
  2 42  1  0  0  0  0
  2 43  1  0  0  0  0
  4 44  1  0  0  0  0
 22 45  1  0  0  0  0
 23 46  1  0  0  0  0
 26 47  1  0  0  0  0
 26 48  1  0  0  0  0
 27 49  1  0  0  0  0
 27 50  1  0  0  0  0
 27 51  1  0  0  0  0
 31 52  1  0  0  0  0
 31 53  1  0  0  0  0
 32 54  1  0  0  0  0
 32 55  1  0  0  0  0
 32 56  1  0  0  0  0
 36 57  1  0  0  0  0
 36 58  1  0  0  0  0
 37 59  1  0  0  0  0
 37 60  1  0  0  0  0
 37 61  1  0  0  0  0
M  END
