
  xtb     01172214303D
 energy: -101.437183095256 gnorm: 0.000342979441 xtb: 6.4.1 (unknown)
 64 71  0     0  0            999 V2000
    6.4968   -0.3566    6.0180 C   0  0  0  0  0  0  0  0  0  0  0  0
    6.7361    0.3765    4.6959 C   0  0  0  0  0  0  0  0  0  0  0  0
    5.4601    0.5772    3.9545 C   0  0  0  0  0  0  0  0  0  0  0  0
    4.6969    1.6996    3.8763 C   0  0  0  0  0  0  0  0  0  0  0  0
    3.5213    1.4991    3.1252 C   0  0  0  0  0  0  0  0  0  0  0  0
    2.1889    2.5365    2.6822 S   0  0  0  0  0  0  0  0  0  0  0  0
    1.4640    1.2087    1.8337 C   0  0  0  0  0  0  0  0  0  0  0  0
    0.3303    0.9343    1.0468 C   0  0  0  0  0  0  0  0  0  0  0  0
   -0.7120    1.7444    0.5563 C   0  0  0  0  0  0  0  0  0  0  0  0
   -0.9930    3.0413    0.7003 N   0  0  0  0  0  0  0  0  0  0  0  0
   -2.0620    3.2193   -0.0369 N   0  0  0  0  0  0  0  0  0  0  0  0
   -2.6659    4.5113   -0.1855 C   0  0  0  0  0  0  0  0  0  0  0  0
   -1.9242    5.3349   -1.2344 C   0  0  0  0  0  0  0  0  0  0  0  0
   -2.5263    2.1652   -0.6633 N   0  0  0  0  0  0  0  0  0  0  0  0
   -1.6907    1.1851   -0.3117 C   0  0  0  0  0  0  0  0  0  0  0  0
   -1.6846   -0.1999   -0.5683 C   0  0  0  0  0  0  0  0  0  0  0  0
   -2.6005   -1.0514   -1.2081 C   0  0  0  0  0  0  0  0  0  0  0  0
   -4.0917   -0.9460   -2.0841 S   0  0  0  0  0  0  0  0  0  0  0  0
   -4.1556   -2.6889   -2.1406 C   0  0  0  0  0  0  0  0  0  0  0  0
   -5.0910   -3.5957   -2.6951 C   0  0  0  0  0  0  0  0  0  0  0  0
   -6.3452   -3.1764   -3.3915 C   0  0  0  0  0  0  0  0  0  0  0  0
   -7.3774   -2.6613   -2.3881 C   0  0  0  0  0  0  0  0  0  0  0  0
   -4.7045   -4.8792   -2.4709 C   0  0  0  0  0  0  0  0  0  0  0  0
   -3.2114   -5.0254   -1.6010 S   0  0  0  0  0  0  0  0  0  0  0  0
   -3.0723   -3.3010   -1.5164 C   0  0  0  0  0  0  0  0  0  0  0  0
   -2.1709   -2.3602   -0.9901 C   0  0  0  0  0  0  0  0  0  0  0  0
   -1.0051   -2.3538   -0.2696 N   0  0  0  0  0  0  0  0  0  0  0  0
   -0.5455   -3.5599    0.3790 C   0  0  0  0  0  0  0  0  0  0  0  0
    0.1481   -4.5113   -0.5975 C   0  0  0  0  0  0  0  0  0  0  0  0
   -0.6767   -1.0321   -0.0098 C   0  0  0  0  0  0  0  0  0  0  0  0
    0.4059   -0.4376    0.6872 C   0  0  0  0  0  0  0  0  0  0  0  0
    1.5813   -0.9722    1.2082 N   0  0  0  0  0  0  0  0  0  0  0  0
    2.4103   -2.0156    0.6449 C   0  0  0  0  0  0  0  0  0  0  0  0
    3.3137   -1.4673   -0.4604 C   0  0  0  0  0  0  0  0  0  0  0  0
    2.2108    0.0349    1.8985 C   0  0  0  0  0  0  0  0  0  0  0  0
    3.3942    0.2033    2.6330 C   0  0  0  0  0  0  0  0  0  0  0  0
    4.7422   -0.7734    3.1033 S   0  0  0  0  0  0  0  0  0  0  0  0
    5.8187    0.2145    6.6479 H   0  0  0  0  0  0  0  0  0  0  0  0
    7.4351   -0.4938    6.5494 H   0  0  0  0  0  0  0  0  0  0  0  0
    6.0556   -1.3334    5.8324 H   0  0  0  0  0  0  0  0  0  0  0  0
    7.1857    1.3519    4.8930 H   0  0  0  0  0  0  0  0  0  0  0  0
    7.4301   -0.2052    4.0842 H   0  0  0  0  0  0  0  0  0  0  0  0
    4.9650    2.6352    4.3321 H   0  0  0  0  0  0  0  0  0  0  0  0
   -2.6266    5.0118    0.7846 H   0  0  0  0  0  0  0  0  0  0  0  0
   -3.7032    4.3494   -0.4838 H   0  0  0  0  0  0  0  0  0  0  0  0
   -1.9591    4.8336   -2.1986 H   0  0  0  0  0  0  0  0  0  0  0  0
   -2.3840    6.3145   -1.3305 H   0  0  0  0  0  0  0  0  0  0  0  0
   -0.8851    5.4600   -0.9397 H   0  0  0  0  0  0  0  0  0  0  0  0
   -6.1056   -2.3801   -4.1000 H   0  0  0  0  0  0  0  0  0  0  0  0
   -6.7556   -4.0232   -3.9443 H   0  0  0  0  0  0  0  0  0  0  0  0
   -7.6305   -3.4398   -1.6715 H   0  0  0  0  0  0  0  0  0  0  0  0
   -8.2840   -2.3552   -2.9042 H   0  0  0  0  0  0  0  0  0  0  0  0
   -6.9810   -1.8062   -1.8461 H   0  0  0  0  0  0  0  0  0  0  0  0
   -5.2062   -5.7786   -2.7681 H   0  0  0  0  0  0  0  0  0  0  0  0
    0.1025   -3.2868    1.2131 H   0  0  0  0  0  0  0  0  0  0  0  0
   -1.4209   -4.0716    0.7967 H   0  0  0  0  0  0  0  0  0  0  0  0
    0.9136   -4.0010   -1.1782 H   0  0  0  0  0  0  0  0  0  0  0  0
    0.6058   -5.3320   -0.0519 H   0  0  0  0  0  0  0  0  0  0  0  0
   -0.5768   -4.9239   -1.2935 H   0  0  0  0  0  0  0  0  0  0  0  0
    3.0224   -2.4238    1.4553 H   0  0  0  0  0  0  0  0  0  0  0  0
    1.7941   -2.8062    0.2350 H   0  0  0  0  0  0  0  0  0  0  0  0
    3.9214   -2.2688   -0.8716 H   0  0  0  0  0  0  0  0  0  0  0  0
    3.9736   -0.6965   -0.0703 H   0  0  0  0  0  0  0  0  0  0  0  0
    2.7112   -1.0366   -1.2577 H   0  0  0  0  0  0  0  0  0  0  0  0
  1  2  1  0  0  0  0
  2  3  1  0  0  0  0
  3  4  2  0  0  0  0
  4  5  1  0  0  0  0
  5  6  1  0  0  0  0
  6  7  1  0  0  0  0
  7  8  1  0  0  0  0
  8  9  1  0  0  0  0
  9 10  2  0  0  0  0
 10 11  1  0  0  0  0
 11 12  1  0  0  0  0
 12 13  1  0  0  0  0
 11 14  1  0  0  0  0
 14 15  2  0  0  0  0
 15 16  1  0  0  0  0
 16 17  1  0  0  0  0
 17 18  1  0  0  0  0
 18 19  1  0  0  0  0
 19 20  1  0  0  0  0
 20 21  1  0  0  0  0
 21 22  1  0  0  0  0
 20 23  2  0  0  0  0
 23 24  1  0  0  0  0
 24 25  1  0  0  0  0
 25 26  1  0  0  0  0
 26 27  1  0  0  0  0
 27 28  1  0  0  0  0
 28 29  1  0  0  0  0
 27 30  1  0  0  0  0
 30 31  1  0  0  0  0
 31 32  1  0  0  0  0
 32 33  1  0  0  0  0
 33 34  1  0  0  0  0
 32 35  1  0  0  0  0
 35 36  1  0  0  0  0
 36 37  1  0  0  0  0
 37  3  1  0  0  0  0
 36  5  2  0  0  0  0
 35  7  2  0  0  0  0
 31  8  2  0  0  0  0
 15  9  1  0  0  0  0
 30 16  2  0  0  0  0
 26 17  2  0  0  0  0
 25 19  2  0  0  0  0
  1 38  1  0  0  0  0
  1 39  1  0  0  0  0
  1 40  1  0  0  0  0
  2 41  1  0  0  0  0
  2 42  1  0  0  0  0
  4 43  1  0  0  0  0
 12 44  1  0  0  0  0
 12 45  1  0  0  0  0
 13 46  1  0  0  0  0
 13 47  1  0  0  0  0
 13 48  1  0  0  0  0
 21 49  1  0  0  0  0
 21 50  1  0  0  0  0
 22 51  1  0  0  0  0
 22 52  1  0  0  0  0
 22 53  1  0  0  0  0
 23 54  1  0  0  0  0
 28 55  1  0  0  0  0
 28 56  1  0  0  0  0
 29 57  1  0  0  0  0
 29 58  1  0  0  0  0
 29 59  1  0  0  0  0
 33 60  1  0  0  0  0
 33 61  1  0  0  0  0
 34 62  1  0  0  0  0
 34 63  1  0  0  0  0
 34 64  1  0  0  0  0
M  END
