
  xtb     01172214313D
 energy: -100.476441269076 gnorm: 0.000148530731 xtb: 6.4.1 (unknown)
 68 73  0     0  0            999 V2000
    5.9090   -2.3699    3.5826 C   0  0  0  0  0  0  0  0  0  0  0  0
    4.9753   -1.4231    2.8913 C   0  0  0  0  0  0  0  0  0  0  0  0
    5.3959   -0.6635    1.8066 C   0  0  0  0  0  0  0  0  0  0  0  0
    4.5317    0.1923    1.1538 C   0  0  0  0  0  0  0  0  0  0  0  0
    3.2130    0.3188    1.5837 C   0  0  0  0  0  0  0  0  0  0  0  0
    2.3210    1.1768    0.9279 N   0  0  0  0  0  0  0  0  0  0  0  0
    2.7404    2.4074    0.4122 C   0  0  0  0  0  0  0  0  0  0  0  0
    3.7314    3.1467    1.0570 C   0  0  0  0  0  0  0  0  0  0  0  0
    4.1537    4.3510    0.5329 C   0  0  0  0  0  0  0  0  0  0  0  0
    3.6013    4.8626   -0.6366 C   0  0  0  0  0  0  0  0  0  0  0  0
    4.0773    6.1710   -1.1914 C   0  0  0  0  0  0  0  0  0  0  0  0
    2.6068    4.1274   -1.2669 C   0  0  0  0  0  0  0  0  0  0  0  0
    2.1809    2.9162   -0.7576 C   0  0  0  0  0  0  0  0  0  0  0  0
    0.9959    0.7794    0.7966 C   0  0  0  0  0  0  0  0  0  0  0  0
   -0.0929    1.5936    0.9348 C   0  0  0  0  0  0  0  0  0  0  0  0
   -1.6066    0.7954    0.6638 S   0  0  0  0  0  0  0  0  0  0  0  0
   -0.7831   -0.6996    0.3768 C   0  0  0  0  0  0  0  0  0  0  0  0
   -1.1856   -2.0243    0.0409 C   0  0  0  0  0  0  0  0  0  0  0  0
   -2.5016   -2.4311   -0.1059 N   0  0  0  0  0  0  0  0  0  0  0  0
   -2.8732   -3.7578    0.1497 C   0  0  0  0  0  0  0  0  0  0  0  0
   -3.8161   -4.3874   -0.6600 C   0  0  0  0  0  0  0  0  0  0  0  0
   -4.1861   -5.6946   -0.4135 C   0  0  0  0  0  0  0  0  0  0  0  0
   -3.6279   -6.4141    0.6354 C   0  0  0  0  0  0  0  0  0  0  0  0
   -4.0370   -7.8301    0.9063 C   0  0  0  0  0  0  0  0  0  0  0  0
   -2.6919   -5.7779    1.4427 C   0  0  0  0  0  0  0  0  0  0  0  0
   -2.3188   -4.4693    1.2114 C   0  0  0  0  0  0  0  0  0  0  0  0
   -3.4572   -1.5170   -0.5755 C   0  0  0  0  0  0  0  0  0  0  0  0
   -4.7345   -1.4938   -0.0198 C   0  0  0  0  0  0  0  0  0  0  0  0
   -5.6683   -0.5816   -0.4652 C   0  0  0  0  0  0  0  0  0  0  0  0
   -5.3595    0.3341   -1.4654 C   0  0  0  0  0  0  0  0  0  0  0  0
   -6.3698    1.3466   -1.9118 C   0  0  0  0  0  0  0  0  0  0  0  0
   -4.0877    0.2987   -2.0206 C   0  0  0  0  0  0  0  0  0  0  0  0
   -3.1464   -0.6165   -1.5906 C   0  0  0  0  0  0  0  0  0  0  0  0
   -0.0888   -2.8294   -0.1047 C   0  0  0  0  0  0  0  0  0  0  0  0
    1.4210   -2.0321    0.1905 S   0  0  0  0  0  0  0  0  0  0  0  0
    0.5879   -0.5476    0.4843 C   0  0  0  0  0  0  0  0  0  0  0  0
    2.7849   -0.4378    2.6729 C   0  0  0  0  0  0  0  0  0  0  0  0
    3.6562   -1.2982    3.3092 C   0  0  0  0  0  0  0  0  0  0  0  0
    5.7619   -3.3823    3.2046 H   0  0  0  0  0  0  0  0  0  0  0  0
    5.7222   -2.3832    4.6545 H   0  0  0  0  0  0  0  0  0  0  0  0
    6.9453   -2.0908    3.4085 H   0  0  0  0  0  0  0  0  0  0  0  0
    6.4160   -0.7488    1.4601 H   0  0  0  0  0  0  0  0  0  0  0  0
    4.8720    0.7664    0.3048 H   0  0  0  0  0  0  0  0  0  0  0  0
    4.1661    2.7697    1.9710 H   0  0  0  0  0  0  0  0  0  0  0  0
    4.9238    4.9107    1.0446 H   0  0  0  0  0  0  0  0  0  0  0  0
    3.9340    6.9688   -0.4634 H   0  0  0  0  0  0  0  0  0  0  0  0
    5.1408    6.1208   -1.4233 H   0  0  0  0  0  0  0  0  0  0  0  0
    3.5370    6.4280   -2.0990 H   0  0  0  0  0  0  0  0  0  0  0  0
    2.1623    4.5011   -2.1784 H   0  0  0  0  0  0  0  0  0  0  0  0
    1.4154    2.3539   -1.2714 H   0  0  0  0  0  0  0  0  0  0  0  0
   -0.0903    2.6431    1.1516 H   0  0  0  0  0  0  0  0  0  0  0  0
   -4.2527   -3.8458   -1.4864 H   0  0  0  0  0  0  0  0  0  0  0  0
   -4.9149   -6.1675   -1.0563 H   0  0  0  0  0  0  0  0  0  0  0  0
   -4.4466   -8.2932    0.0118 H   0  0  0  0  0  0  0  0  0  0  0  0
   -3.1894   -8.4182    1.2518 H   0  0  0  0  0  0  0  0  0  0  0  0
   -4.8024   -7.8575    1.6829 H   0  0  0  0  0  0  0  0  0  0  0  0
   -2.2516   -6.3151    2.2707 H   0  0  0  0  0  0  0  0  0  0  0  0
   -1.5972   -3.9901    1.8562 H   0  0  0  0  0  0  0  0  0  0  0  0
   -4.9843   -2.1940    0.7638 H   0  0  0  0  0  0  0  0  0  0  0  0
   -6.6536   -0.5721   -0.0214 H   0  0  0  0  0  0  0  0  0  0  0  0
   -7.3735    0.9272   -1.8942 H   0  0  0  0  0  0  0  0  0  0  0  0
   -6.1508    1.6980   -2.9172 H   0  0  0  0  0  0  0  0  0  0  0  0
   -6.3543    2.2070   -1.2416 H   0  0  0  0  0  0  0  0  0  0  0  0
   -3.8291    0.9934   -2.8068 H   0  0  0  0  0  0  0  0  0  0  0  0
   -2.1668   -0.6418   -2.0454 H   0  0  0  0  0  0  0  0  0  0  0  0
   -0.0818   -3.8723   -0.3507 H   0  0  0  0  0  0  0  0  0  0  0  0
    1.7672   -0.3408    3.0225 H   0  0  0  0  0  0  0  0  0  0  0  0
    3.3078   -1.8768    4.1529 H   0  0  0  0  0  0  0  0  0  0  0  0
  1  2  1  0  0  0  0
  2  3  2  0  0  0  0
  3  4  1  0  0  0  0
  4  5  2  0  0  0  0
  5  6  1  0  0  0  0
  6  7  1  0  0  0  0
  7  8  2  0  0  0  0
  8  9  1  0  0  0  0
  9 10  2  0  0  0  0
 10 11  1  0  0  0  0
 10 12  1  0  0  0  0
 12 13  2  0  0  0  0
  6 14  1  0  0  0  0
 14 15  2  0  0  0  0
 15 16  1  0  0  0  0
 16 17  1  0  0  0  0
 17 18  1  0  0  0  0
 18 19  1  0  0  0  0
 19 20  1  0  0  0  0
 20 21  2  0  0  0  0
 21 22  1  0  0  0  0
 22 23  2  0  0  0  0
 23 24  1  0  0  0  0
 23 25  1  0  0  0  0
 25 26  2  0  0  0  0
 19 27  1  0  0  0  0
 27 28  2  0  0  0  0
 28 29  1  0  0  0  0
 29 30  2  0  0  0  0
 30 31  1  0  0  0  0
 30 32  1  0  0  0  0
 32 33  2  0  0  0  0
 18 34  2  0  0  0  0
 34 35  1  0  0  0  0
 35 36  1  0  0  0  0
  5 37  1  0  0  0  0
 37 38  2  0  0  0  0
 38  2  1  0  0  0  0
 13  7  1  0  0  0  0
 36 14  1  0  0  0  0
 36 17  2  0  0  0  0
 26 20  1  0  0  0  0
 33 27  1  0  0  0  0
  1 39  1  0  0  0  0
  1 40  1  0  0  0  0
  1 41  1  0  0  0  0
  3 42  1  0  0  0  0
  4 43  1  0  0  0  0
  8 44  1  0  0  0  0
  9 45  1  0  0  0  0
 11 46  1  0  0  0  0
 11 47  1  0  0  0  0
 11 48  1  0  0  0  0
 12 49  1  0  0  0  0
 13 50  1  0  0  0  0
 15 51  1  0  0  0  0
 21 52  1  0  0  0  0
 22 53  1  0  0  0  0
 24 54  1  0  0  0  0
 24 55  1  0  0  0  0
 24 56  1  0  0  0  0
 25 57  1  0  0  0  0
 26 58  1  0  0  0  0
 28 59  1  0  0  0  0
 29 60  1  0  0  0  0
 31 61  1  0  0  0  0
 31 62  1  0  0  0  0
 31 63  1  0  0  0  0
 32 64  1  0  0  0  0
 33 65  1  0  0  0  0
 34 66  1  0  0  0  0
 37 67  1  0  0  0  0
 38 68  1  0  0  0  0
M  END
