
  xtb     01172214333D
 energy: -50.100726576891 gnorm: 0.000584257949 xtb: 6.4.1 (unknown)
 20 23  0     0  0            999 V2000
   -0.6130   -0.8564    3.2753 F   0  0  0  0  0  0  0  0  0  0  0  0
    0.1938   -1.0359    2.2212 C   0  0  0  0  0  0  0  0  0  0  0  0
    0.9957   -2.1359    2.1993 C   0  0  0  0  0  0  0  0  0  0  0  0
    1.8359   -2.3064    1.0833 C   0  0  0  0  0  0  0  0  0  0  0  0
    2.6893   -3.3032    0.8665 N   0  0  0  0  0  0  0  0  0  0  0  0
    3.4215   -3.0572   -0.5452 S   0  0  0  0  0  0  0  0  0  0  0  0
    2.6969   -1.6832   -0.9486 N   0  0  0  0  0  0  0  0  0  0  0  0
    1.8405   -1.3480    0.0093 C   0  0  0  0  0  0  0  0  0  0  0  0
    0.9933   -0.2072    0.0561 C   0  0  0  0  0  0  0  0  0  0  0  0
    0.9622    0.7688   -0.9819 C   0  0  0  0  0  0  0  0  0  0  0  0
    1.7690    0.5893   -2.0360 F   0  0  0  0  0  0  0  0  0  0  0  0
    0.1604    1.8687   -0.9600 C   0  0  0  0  0  0  0  0  0  0  0  0
   -0.6799    2.0393    0.1560 C   0  0  0  0  0  0  0  0  0  0  0  0
   -1.5333    3.0360    0.3729 N   0  0  0  0  0  0  0  0  0  0  0  0
   -2.2654    2.7901    1.7846 S   0  0  0  0  0  0  0  0  0  0  0  0
   -1.5409    1.4161    2.1879 N   0  0  0  0  0  0  0  0  0  0  0  0
   -0.6845    1.0809    1.2301 C   0  0  0  0  0  0  0  0  0  0  0  0
    0.1627   -0.0599    1.1832 C   0  0  0  0  0  0  0  0  0  0  0  0
    0.9919   -2.8526    3.0031 H   0  0  0  0  0  0  0  0  0  0  0  0
    0.1642    2.5855   -1.7637 H   0  0  0  0  0  0  0  0  0  0  0  0
  1  2  1  0  0  0  0
  2  3  2  0  0  0  0
  3  4  1  0  0  0  0
  4  5  2  0  0  0  0
  5  6  1  0  0  0  0
  6  7  1  0  0  0  0
  7  8  2  0  0  0  0
  8  9  1  0  0  0  0
  9 10  1  0  0  0  0
 10 11  1  0  0  0  0
 10 12  2  0  0  0  0
 12 13  1  0  0  0  0
 13 14  2  0  0  0  0
 14 15  1  0  0  0  0
 15 16  1  0  0  0  0
 16 17  2  0  0  0  0
 17 18  1  0  0  0  0
 18  2  1  0  0  0  0
  8  4  1  0  0  0  0
 18  9  2  0  0  0  0
 17 13  1  0  0  0  0
  3 19  1  0  0  0  0
 12 20  1  0  0  0  0
M  END
