
  xtb     01172214333D
 energy: -30.509301042437 gnorm: 0.000555389561 xtb: 6.4.1 (unknown)
 19 19  0     0  0            999 V2000
   -0.4633    1.4580    2.7858 C   0  0  0  0  0  0  0  0  0  0  0  0
    0.0559    0.0361    2.9794 C   0  0  0  0  0  0  0  0  0  0  0  0
   -0.1329   -0.7723    1.8345 O   0  0  0  0  0  0  0  0  0  0  0  0
    0.6831   -0.6311    0.7571 C   0  0  0  0  0  0  0  0  0  0  0  0
    1.8095    0.1842    0.6912 C   0  0  0  0  0  0  0  0  0  0  0  0
    2.5761    0.2215   -0.4618 C   0  0  0  0  0  0  0  0  0  0  0  0
    2.2120   -0.5527   -1.5442 C   0  0  0  0  0  0  0  0  0  0  0  0
    2.9620   -0.5100   -2.6695 F   0  0  0  0  0  0  0  0  0  0  0  0
    1.0962   -1.3713   -1.5049 C   0  0  0  0  0  0  0  0  0  0  0  0
    0.3383   -1.4061   -0.3545 C   0  0  0  0  0  0  0  0  0  0  0  0
   -0.3632    2.0143    3.7138 H   0  0  0  0  0  0  0  0  0  0  0  0
    0.0891    1.9725    2.0033 H   0  0  0  0  0  0  0  0  0  0  0  0
   -1.5125    1.4293    2.5022 H   0  0  0  0  0  0  0  0  0  0  0  0
   -0.5220   -0.4653    3.7607 H   0  0  0  0  0  0  0  0  0  0  0  0
    1.1102    0.0410    3.2821 H   0  0  0  0  0  0  0  0  0  0  0  0
    2.1102    0.7943    1.5278 H   0  0  0  0  0  0  0  0  0  0  0  0
    3.4514    0.8490   -0.5209 H   0  0  0  0  0  0  0  0  0  0  0  0
    0.8344   -1.9663   -2.3651 H   0  0  0  0  0  0  0  0  0  0  0  0
   -0.5359   -2.0333   -0.2858 H   0  0  0  0  0  0  0  0  0  0  0  0
  1  2  1  0  0  0  0
  2  3  1  0  0  0  0
  3  4  1  0  0  0  0
  4  5  2  0  0  0  0
  5  6  1  0  0  0  0
  6  7  2  0  0  0  0
  7  8  1  0  0  0  0
  7  9  1  0  0  0  0
  9 10  2  0  0  0  0
 10  4  1  0  0  0  0
  1 11  1  0  0  0  0
  1 12  1  0  0  0  0
  1 13  1  0  0  0  0
  2 14  1  0  0  0  0
  2 15  1  0  0  0  0
  5 16  1  0  0  0  0
  6 17  1  0  0  0  0
  9 18  1  0  0  0  0
 10 19  1  0  0  0  0
M  END
