
  xtb     01172214333D
 energy: -87.793899618113 gnorm: 0.000561637913 xtb: 6.4.1 (unknown)
 56 61  0     0  0            999 V2000
    4.0165   -0.5585    5.6609 C   0  0  0  0  0  0  0  0  0  0  0  0
    4.5929    0.3844    4.8261 C   0  0  0  0  0  0  0  0  0  0  0  0
    4.0981    0.5893    3.5527 C   0  0  0  0  0  0  0  0  0  0  0  0
    3.0161   -0.1592    3.0915 C   0  0  0  0  0  0  0  0  0  0  0  0
    2.5160    0.0408    1.8002 N   0  0  0  0  0  0  0  0  0  0  0  0
    3.3650    0.3655    0.7346 C   0  0  0  0  0  0  0  0  0  0  0  0
    4.6333   -0.2043    0.6386 C   0  0  0  0  0  0  0  0  0  0  0  0
    5.4555    0.1107   -0.4250 C   0  0  0  0  0  0  0  0  0  0  0  0
    5.0268    0.9854   -1.4101 C   0  0  0  0  0  0  0  0  0  0  0  0
    3.7664    1.5508   -1.3205 C   0  0  0  0  0  0  0  0  0  0  0  0
    2.9402    1.2502   -0.2550 C   0  0  0  0  0  0  0  0  0  0  0  0
    1.1527   -0.0705    1.5556 C   0  0  0  0  0  0  0  0  0  0  0  0
    0.1609    0.3411    2.4017 C   0  0  0  0  0  0  0  0  0  0  0  0
   -1.4396    0.0265    1.8184 S   0  0  0  0  0  0  0  0  0  0  0  0
   -0.7874   -0.6592    0.3708 C   0  0  0  0  0  0  0  0  0  0  0  0
   -1.3443   -1.2754   -0.7848 C   0  0  0  0  0  0  0  0  0  0  0  0
   -2.7073   -1.4256   -1.0095 N   0  0  0  0  0  0  0  0  0  0  0  0
   -3.5685   -0.3876   -0.6315 C   0  0  0  0  0  0  0  0  0  0  0  0
   -3.1640    0.9400   -0.7589 C   0  0  0  0  0  0  0  0  0  0  0  0
   -4.0026    1.9636   -0.3624 C   0  0  0  0  0  0  0  0  0  0  0  0
   -5.2553    1.6817    0.1547 C   0  0  0  0  0  0  0  0  0  0  0  0
   -5.6637    0.3634    0.2771 C   0  0  0  0  0  0  0  0  0  0  0  0
   -4.8290   -0.6672   -0.1066 C   0  0  0  0  0  0  0  0  0  0  0  0
   -3.1955   -2.5892   -1.6139 C   0  0  0  0  0  0  0  0  0  0  0  0
   -4.2853   -2.5292   -2.4813 C   0  0  0  0  0  0  0  0  0  0  0  0
   -4.7688   -3.6811   -3.0708 C   0  0  0  0  0  0  0  0  0  0  0  0
   -4.1735   -4.9051   -2.8147 C   0  0  0  0  0  0  0  0  0  0  0  0
   -3.0878   -4.9687   -1.9570 C   0  0  0  0  0  0  0  0  0  0  0  0
   -2.6014   -3.8239   -1.3570 C   0  0  0  0  0  0  0  0  0  0  0  0
   -0.3523   -1.6976   -1.6255 C   0  0  0  0  0  0  0  0  0  0  0  0
    1.2482   -1.3915   -1.0379 S   0  0  0  0  0  0  0  0  0  0  0  0
    0.5955   -0.6430    0.3779 C   0  0  0  0  0  0  0  0  0  0  0  0
    2.4413   -1.1092    3.9345 C   0  0  0  0  0  0  0  0  0  0  0  0
    2.9387   -1.3015    5.2084 C   0  0  0  0  0  0  0  0  0  0  0  0
    4.4041   -0.7134    6.6562 H   0  0  0  0  0  0  0  0  0  0  0  0
    5.4305    0.9723    5.1714 H   0  0  0  0  0  0  0  0  0  0  0  0
    4.5440    1.3321    2.9078 H   0  0  0  0  0  0  0  0  0  0  0  0
    4.9636   -0.8965    1.3988 H   0  0  0  0  0  0  0  0  0  0  0  0
    6.4356   -0.3384   -0.4902 H   0  0  0  0  0  0  0  0  0  0  0  0
    5.6716    1.2243   -2.2420 H   0  0  0  0  0  0  0  0  0  0  0  0
    3.4252    2.2377   -2.0807 H   0  0  0  0  0  0  0  0  0  0  0  0
    1.9634    1.7056   -0.1791 H   0  0  0  0  0  0  0  0  0  0  0  0
    0.2819    0.7949    3.3651 H   0  0  0  0  0  0  0  0  0  0  0  0
   -2.1934    1.1635   -1.1774 H   0  0  0  0  0  0  0  0  0  0  0  0
   -3.6772    2.9881   -0.4664 H   0  0  0  0  0  0  0  0  0  0  0  0
   -5.9099    2.4835    0.4606 H   0  0  0  0  0  0  0  0  0  0  0  0
   -6.6377    0.1350    0.6841 H   0  0  0  0  0  0  0  0  0  0  0  0
   -5.1433   -1.6947    0.0015 H   0  0  0  0  0  0  0  0  0  0  0  0
   -4.7460   -1.5752   -2.6908 H   0  0  0  0  0  0  0  0  0  0  0  0
   -5.6127   -3.6203   -3.7421 H   0  0  0  0  0  0  0  0  0  0  0  0
   -4.5524   -5.8025   -3.2795 H   0  0  0  0  0  0  0  0  0  0  0  0
   -2.6198   -5.9189   -1.7456 H   0  0  0  0  0  0  0  0  0  0  0  0
   -1.7624   -3.8805   -0.6797 H   0  0  0  0  0  0  0  0  0  0  0  0
   -0.4728   -2.2052   -2.5617 H   0  0  0  0  0  0  0  0  0  0  0  0
    1.6085   -1.6994    3.5822 H   0  0  0  0  0  0  0  0  0  0  0  0
    2.4857   -2.0436    5.8490 H   0  0  0  0  0  0  0  0  0  0  0  0
  1  2  2  0  0  0  0
  2  3  1  0  0  0  0
  3  4  2  0  0  0  0
  4  5  1  0  0  0  0
  5  6  1  0  0  0  0
  6  7  2  0  0  0  0
  7  8  1  0  0  0  0
  8  9  2  0  0  0  0
  9 10  1  0  0  0  0
 10 11  2  0  0  0  0
  5 12  1  0  0  0  0
 12 13  2  0  0  0  0
 13 14  1  0  0  0  0
 14 15  1  0  0  0  0
 15 16  1  0  0  0  0
 16 17  1  0  0  0  0
 17 18  1  0  0  0  0
 18 19  2  0  0  0  0
 19 20  1  0  0  0  0
 20 21  2  0  0  0  0
 21 22  1  0  0  0  0
 22 23  2  0  0  0  0
 17 24  1  0  0  0  0
 24 25  2  0  0  0  0
 25 26  1  0  0  0  0
 26 27  2  0  0  0  0
 27 28  1  0  0  0  0
 28 29  2  0  0  0  0
 16 30  2  0  0  0  0
 30 31  1  0  0  0  0
 31 32  1  0  0  0  0
  4 33  1  0  0  0  0
 33 34  2  0  0  0  0
 34  1  1  0  0  0  0
 11  6  1  0  0  0  0
 32 12  1  0  0  0  0
 32 15  2  0  0  0  0
 23 18  1  0  0  0  0
 29 24  1  0  0  0  0
  1 35  1  0  0  0  0
  2 36  1  0  0  0  0
  3 37  1  0  0  0  0
  7 38  1  0  0  0  0
  8 39  1  0  0  0  0
  9 40  1  0  0  0  0
 10 41  1  0  0  0  0
 11 42  1  0  0  0  0
 13 43  1  0  0  0  0
 19 44  1  0  0  0  0
 20 45  1  0  0  0  0
 21 46  1  0  0  0  0
 22 47  1  0  0  0  0
 23 48  1  0  0  0  0
 25 49  1  0  0  0  0
 26 50  1  0  0  0  0
 27 51  1  0  0  0  0
 28 52  1  0  0  0  0
 29 53  1  0  0  0  0
 30 54  1  0  0  0  0
 33 55  1  0  0  0  0
 34 56  1  0  0  0  0
M  END
