
  xtb     01172214343D
 energy: -38.792021080449 gnorm: 0.000427615021 xtb: 6.4.1 (unknown)
 20 20  0     0  0            999 V2000
    2.3965    2.3959    2.6073 C   0  0  0  0  0  0  0  0  0  0  0  0
    1.5292    2.3176    1.5011 O   0  0  0  0  0  0  0  0  0  0  0  0
    1.0945    1.0944    1.1128 C   0  0  0  0  0  0  0  0  0  0  0  0
    1.4306   -0.1145    1.7153 C   0  0  0  0  0  0  0  0  0  0  0  0
    0.9215   -1.3010    1.2259 C   0  0  0  0  0  0  0  0  0  0  0  0
    1.2759   -2.4457    1.8431 F   0  0  0  0  0  0  0  0  0  0  0  0
    0.0615   -1.3615    0.1265 C   0  0  0  0  0  0  0  0  0  0  0  0
   -0.3732   -2.5847   -0.2617 O   0  0  0  0  0  0  0  0  0  0  0  0
   -1.2405   -2.6630   -1.3680 C   0  0  0  0  0  0  0  0  0  0  0  0
   -0.2746   -0.1526   -0.4759 C   0  0  0  0  0  0  0  0  0  0  0  0
    0.2345    1.0339    0.0134 C   0  0  0  0  0  0  0  0  0  0  0  0
   -0.1199    2.1786   -0.6038 F   0  0  0  0  0  0  0  0  0  0  0  0
    3.3305    1.8561    2.4228 H   0  0  0  0  0  0  0  0  0  0  0  0
    2.6110    3.4552    2.7350 H   0  0  0  0  0  0  0  0  0  0  0  0
    1.9231    2.0094    3.5153 H   0  0  0  0  0  0  0  0  0  0  0  0
    2.0873   -0.1606    2.5678 H   0  0  0  0  0  0  0  0  0  0  0  0
   -2.1745   -2.1232   -1.1834 H   0  0  0  0  0  0  0  0  0  0  0  0
   -0.7671   -2.2765   -2.2760 H   0  0  0  0  0  0  0  0  0  0  0  0
   -1.4550   -3.7223   -1.4957 H   0  0  0  0  0  0  0  0  0  0  0  0
   -0.9313   -0.1065   -1.3284 H   0  0  0  0  0  0  0  0  0  0  0  0
  1  2  1  0  0  0  0
  2  3  1  0  0  0  0
  3  4  2  0  0  0  0
  4  5  1  0  0  0  0
  5  6  1  0  0  0  0
  5  7  2  0  0  0  0
  7  8  1  0  0  0  0
  8  9  1  0  0  0  0
  7 10  1  0  0  0  0
 10 11  2  0  0  0  0
 11 12  1  0  0  0  0
 11  3  1  0  0  0  0
  1 13  1  0  0  0  0
  1 14  1  0  0  0  0
  1 15  1  0  0  0  0
  4 16  1  0  0  0  0
  9 17  1  0  0  0  0
  9 18  1  0  0  0  0
  9 19  1  0  0  0  0
 10 20  1  0  0  0  0
M  END
