
  xtb     01172214343D
 energy: -65.693694539775 gnorm: 0.000551310038 xtb: 6.4.1 (unknown)
 52 55  0     0  0            999 V2000
    0.5039   -1.3586    4.0793 C   0  0  0  0  0  0  0  0  0  0  0  0
    1.2828   -0.4740    3.1161 C   0  0  0  0  0  0  0  0  0  0  0  0
    0.4420    0.2732    2.0609 C   0  0  0  0  0  0  0  0  0  0  0  0
   -0.6258    1.2159    2.6496 C   0  0  0  0  0  0  0  0  0  0  0  0
   -0.1296    2.2678    3.6333 C   0  0  0  0  0  0  0  0  0  0  0  0
   -0.2354   -0.6572    1.0857 C   0  0  0  0  0  0  0  0  0  0  0  0
    0.2799   -0.5357   -0.1644 C   0  0  0  0  0  0  0  0  0  0  0  0
    1.3089    0.4681   -0.1840 C   0  0  0  0  0  0  0  0  0  0  0  0
    2.1282    0.9380   -1.1989 C   0  0  0  0  0  0  0  0  0  0  0  0
    3.0618    1.9162   -0.9005 C   0  0  0  0  0  0  0  0  0  0  0  0
    3.1898    2.3983    0.3916 C   0  0  0  0  0  0  0  0  0  0  0  0
    2.3791    1.9216    1.4157 C   0  0  0  0  0  0  0  0  0  0  0  0
    1.4195    0.9760    1.1283 C   0  0  0  0  0  0  0  0  0  0  0  0
   -0.4193   -1.4166   -1.1612 C   0  0  0  0  0  0  0  0  0  0  0  0
    0.5335   -2.3961   -1.8602 C   0  0  0  0  0  0  0  0  0  0  0  0
    1.4035   -3.1580   -0.8671 C   0  0  0  0  0  0  0  0  0  0  0  0
   -1.1365   -0.4865   -2.1669 C   0  0  0  0  0  0  0  0  0  0  0  0
   -2.0100   -1.1747   -3.2073 C   0  0  0  0  0  0  0  0  0  0  0  0
   -1.4056   -2.1200   -0.2485 C   0  0  0  0  0  0  0  0  0  0  0  0
   -2.2974   -3.1260   -0.5460 C   0  0  0  0  0  0  0  0  0  0  0  0
   -3.1516   -3.5902    0.4476 C   0  0  0  0  0  0  0  0  0  0  0  0
   -3.1126   -3.0477    1.7206 C   0  0  0  0  0  0  0  0  0  0  0  0
   -2.1934   -2.0630    2.0453 C   0  0  0  0  0  0  0  0  0  0  0  0
   -1.3168   -1.6136    1.0686 C   0  0  0  0  0  0  0  0  0  0  0  0
    1.1892   -1.7974    4.8023 H   0  0  0  0  0  0  0  0  0  0  0  0
   -0.2414   -0.7874    4.6268 H   0  0  0  0  0  0  0  0  0  0  0  0
    0.0117   -2.1671    3.5464 H   0  0  0  0  0  0  0  0  0  0  0  0
    2.0045   -1.0941    2.5772 H   0  0  0  0  0  0  0  0  0  0  0  0
    1.8519    0.2644    3.6835 H   0  0  0  0  0  0  0  0  0  0  0  0
   -1.3835    0.6016    3.1387 H   0  0  0  0  0  0  0  0  0  0  0  0
   -1.1124    1.7206    1.8103 H   0  0  0  0  0  0  0  0  0  0  0  0
    0.5407    2.9706    3.1474 H   0  0  0  0  0  0  0  0  0  0  0  0
    0.3844    1.8132    4.4761 H   0  0  0  0  0  0  0  0  0  0  0  0
   -0.9794    2.8276    4.0195 H   0  0  0  0  0  0  0  0  0  0  0  0
    2.0484    0.5459   -2.2020 H   0  0  0  0  0  0  0  0  0  0  0  0
    3.7054    2.2987   -1.6797 H   0  0  0  0  0  0  0  0  0  0  0  0
    3.9344    3.1502    0.6099 H   0  0  0  0  0  0  0  0  0  0  0  0
    2.5199    2.2942    2.4191 H   0  0  0  0  0  0  0  0  0  0  0  0
   -0.0515   -3.1104   -2.4416 H   0  0  0  0  0  0  0  0  0  0  0  0
    1.1724   -1.8406   -2.5500 H   0  0  0  0  0  0  0  0  0  0  0  0
    2.0380   -3.8703   -1.3900 H   0  0  0  0  0  0  0  0  0  0  0  0
    0.7830   -3.7024   -0.1582 H   0  0  0  0  0  0  0  0  0  0  0  0
    2.0397   -2.4734   -0.3107 H   0  0  0  0  0  0  0  0  0  0  0  0
   -0.3704    0.1011   -2.6775 H   0  0  0  0  0  0  0  0  0  0  0  0
   -1.7548    0.2091   -1.5933 H   0  0  0  0  0  0  0  0  0  0  0  0
   -1.4374   -1.8820   -3.8010 H   0  0  0  0  0  0  0  0  0  0  0  0
   -2.4238   -0.4269   -3.8808 H   0  0  0  0  0  0  0  0  0  0  0  0
   -2.8371   -1.6960   -2.7350 H   0  0  0  0  0  0  0  0  0  0  0  0
   -2.3378   -3.5640   -1.5323 H   0  0  0  0  0  0  0  0  0  0  0  0
   -3.8567   -4.3768    0.2210 H   0  0  0  0  0  0  0  0  0  0  0  0
   -3.7993   -3.4048    2.4748 H   0  0  0  0  0  0  0  0  0  0  0  0
   -2.1725   -1.6578    3.0452 H   0  0  0  0  0  0  0  0  0  0  0  0
  1  2  1  0  0  0  0
  2  3  1  0  0  0  0
  3  4  1  0  0  0  0
  4  5  1  0  0  0  0
  3  6  1  0  0  0  0
  6  7  2  0  0  0  0
  7  8  1  0  0  0  0
  8  9  2  0  0  0  0
  9 10  1  0  0  0  0
 10 11  2  0  0  0  0
 11 12  1  0  0  0  0
 12 13  2  0  0  0  0
  7 14  1  0  0  0  0
 14 15  1  0  0  0  0
 15 16  1  0  0  0  0
 14 17  1  0  0  0  0
 17 18  1  0  0  0  0
 14 19  1  0  0  0  0
 19 20  2  0  0  0  0
 20 21  1  0  0  0  0
 21 22  2  0  0  0  0
 22 23  1  0  0  0  0
 23 24  2  0  0  0  0
 13  3  1  0  0  0  0
 24 19  1  0  0  0  0
 24  6  1  0  0  0  0
 13  8  1  0  0  0  0
  1 25  1  0  0  0  0
  1 26  1  0  0  0  0
  1 27  1  0  0  0  0
  2 28  1  0  0  0  0
  2 29  1  0  0  0  0
  4 30  1  0  0  0  0
  4 31  1  0  0  0  0
  5 32  1  0  0  0  0
  5 33  1  0  0  0  0
  5 34  1  0  0  0  0
  9 35  1  0  0  0  0
 10 36  1  0  0  0  0
 11 37  1  0  0  0  0
 12 38  1  0  0  0  0
 15 39  1  0  0  0  0
 15 40  1  0  0  0  0
 16 41  1  0  0  0  0
 16 42  1  0  0  0  0
 16 43  1  0  0  0  0
 17 44  1  0  0  0  0
 17 45  1  0  0  0  0
 18 46  1  0  0  0  0
 18 47  1  0  0  0  0
 18 48  1  0  0  0  0
 20 49  1  0  0  0  0
 21 50  1  0  0  0  0
 22 51  1  0  0  0  0
 23 52  1  0  0  0  0
M  END
