
  xtb     01172214343D
 energy: -17.868479221697 gnorm: 0.000554626486 xtb: 6.4.1 (unknown)
  9  9  0     0  0            999 V2000
    1.4344   -2.1737    4.1044 Cl  0  0  0  0  0  0  0  0  0  0  0  0
    1.5332   -1.3821    2.5828 C   0  0  0  0  0  0  0  0  0  0  0  0
    0.8089   -1.8080    1.4412 C   0  0  0  0  0  0  0  0  0  0  0  0
    1.0573   -1.0206    0.3665 C   0  0  0  0  0  0  0  0  0  0  0  0
    2.1679    0.2406    0.7265 S   0  0  0  0  0  0  0  0  0  0  0  0
    2.3094   -0.2899    2.3526 C   0  0  0  0  0  0  0  0  0  0  0  0
    0.1466   -2.6535    1.4403 H   0  0  0  0  0  0  0  0  0  0  0  0
    0.6550   -1.1016   -0.6232 H   0  0  0  0  0  0  0  0  0  0  0  0
    2.9492    0.2277    3.0377 H   0  0  0  0  0  0  0  0  0  0  0  0
  1  2  1  0  0  0  0
  2  3  1  0  0  0  0
  3  4  2  0  0  0  0
  4  5  1  0  0  0  0
  5  6  1  0  0  0  0
  6  2  2  0  0  0  0
  3  7  1  0  0  0  0
  4  8  1  0  0  0  0
  6  9  1  0  0  0  0
M  END
