
  xtb     01172214343D
 energy: -76.815721433712 gnorm: 0.000972449584 xtb: 6.4.1 (unknown)
 47 52  0     0  0            999 V2000
   -0.3302   -2.6631    7.2020 C   0  0  0  0  0  0  0  0  0  0  0  0
    0.0624   -3.7891    6.2434 C   0  0  0  0  0  0  0  0  0  0  0  0
    0.5244   -3.2460    4.9353 C   0  0  0  0  0  0  0  0  0  0  0  0
    1.7982   -3.0946    4.4825 C   0  0  0  0  0  0  0  0  0  0  0  0
    1.8741   -2.5009    3.2068 C   0  0  0  0  0  0  0  0  0  0  0  0
    0.6514   -2.2189    2.6669 C   0  0  0  0  0  0  0  0  0  0  0  0
    0.3818   -1.5175    1.4402 C   0  0  0  0  0  0  0  0  0  0  0  0
    1.2253   -0.0237    1.1900 S   0  0  0  0  0  0  0  0  0  0  0  0
    0.3433    0.3226   -0.2608 C   0  0  0  0  0  0  0  0  0  0  0  0
    0.5530    1.6001   -0.8837 C   0  0  0  0  0  0  0  0  0  0  0  0
   -0.3744    2.5139   -1.3037 C   0  0  0  0  0  0  0  0  0  0  0  0
    0.2016    3.7017   -1.7967 C   0  0  0  0  0  0  0  0  0  0  0  0
    1.5618    3.7093   -1.7486 C   0  0  0  0  0  0  0  0  0  0  0  0
    2.4985    4.8001   -2.1384 C   0  0  0  0  0  0  0  0  0  0  0  0
    3.0850    5.4910   -0.9054 C   0  0  0  0  0  0  0  0  0  0  0  0
    2.1678    2.2293   -1.0795 S   0  0  0  0  0  0  0  0  0  0  0  0
   -0.5308   -0.7064   -0.5697 C   0  0  0  0  0  0  0  0  0  0  0  0
   -1.3600   -0.8351   -1.7304 C   0  0  0  0  0  0  0  0  0  0  0  0
   -1.4565   -0.0071   -2.8809 C   0  0  0  0  0  0  0  0  0  0  0  0
   -2.3525   -0.4648   -3.7862 C   0  0  0  0  0  0  0  0  0  0  0  0
   -3.1196   -1.9315   -3.3022 S   0  0  0  0  0  0  0  0  0  0  0  0
   -2.1990   -1.9443   -1.8352 C   0  0  0  0  0  0  0  0  0  0  0  0
   -2.1768   -2.9736   -0.8800 C   0  0  0  0  0  0  0  0  0  0  0  0
   -3.0645   -4.4586   -0.9531 S   0  0  0  0  0  0  0  0  0  0  0  0
   -2.2484   -5.0317    0.4534 C   0  0  0  0  0  0  0  0  0  0  0  0
   -1.3616   -4.1411    0.9553 C   0  0  0  0  0  0  0  0  0  0  0  0
   -1.3143   -2.9306    0.2146 C   0  0  0  0  0  0  0  0  0  0  0  0
   -0.5092   -1.7629    0.4109 C   0  0  0  0  0  0  0  0  0  0  0  0
   -0.6245   -2.6455    3.7819 S   0  0  0  0  0  0  0  0  0  0  0  0
   -1.1361   -2.0706    6.7760 H   0  0  0  0  0  0  0  0  0  0  0  0
    0.5192   -2.0098    7.3842 H   0  0  0  0  0  0  0  0  0  0  0  0
   -0.6638   -3.0743    8.1514 H   0  0  0  0  0  0  0  0  0  0  0  0
    0.8682   -4.3801    6.6833 H   0  0  0  0  0  0  0  0  0  0  0  0
   -0.7985   -4.4428    6.0878 H   0  0  0  0  0  0  0  0  0  0  0  0
    2.6624   -3.4031    5.0440 H   0  0  0  0  0  0  0  0  0  0  0  0
    2.7965   -2.3053    2.6889 H   0  0  0  0  0  0  0  0  0  0  0  0
   -1.4346    2.3480   -1.2320 H   0  0  0  0  0  0  0  0  0  0  0  0
   -0.3781    4.5272   -2.1709 H   0  0  0  0  0  0  0  0  0  0  0  0
    1.9570    5.5281   -2.7461 H   0  0  0  0  0  0  0  0  0  0  0  0
    3.3135    4.3896   -2.7396 H   0  0  0  0  0  0  0  0  0  0  0  0
    3.7611    6.2879   -1.2048 H   0  0  0  0  0  0  0  0  0  0  0  0
    2.2902    5.9176   -0.2976 H   0  0  0  0  0  0  0  0  0  0  0  0
    3.6361    4.7749   -0.3000 H   0  0  0  0  0  0  0  0  0  0  0  0
   -0.8684    0.8776   -3.0346 H   0  0  0  0  0  0  0  0  0  0  0  0
   -2.6151   -0.0290   -4.7299 H   0  0  0  0  0  0  0  0  0  0  0  0
   -2.4785   -6.0111    0.8232 H   0  0  0  0  0  0  0  0  0  0  0  0
   -0.7471   -4.3504    1.8094 H   0  0  0  0  0  0  0  0  0  0  0  0
  1  2  1  0  0  0  0
  2  3  1  0  0  0  0
  3  4  2  0  0  0  0
  4  5  1  0  0  0  0
  5  6  2  0  0  0  0
  6  7  1  0  0  0  0
  7  8  1  0  0  0  0
  8  9  1  0  0  0  0
  9 10  1  0  0  0  0
 10 11  2  0  0  0  0
 11 12  1  0  0  0  0
 12 13  2  0  0  0  0
 13 14  1  0  0  0  0
 14 15  1  0  0  0  0
 13 16  1  0  0  0  0
  9 17  2  0  0  0  0
 17 18  1  0  0  0  0
 18 19  1  0  0  0  0
 19 20  2  0  0  0  0
 20 21  1  0  0  0  0
 21 22  1  0  0  0  0
 22 23  1  0  0  0  0
 23 24  1  0  0  0  0
 24 25  1  0  0  0  0
 25 26  2  0  0  0  0
 26 27  1  0  0  0  0
 27 28  1  0  0  0  0
  6 29  1  0  0  0  0
 29  3  1  0  0  0  0
 28  7  2  0  0  0  0
 16 10  1  0  0  0  0
 28 17  1  0  0  0  0
 22 18  2  0  0  0  0
 27 23  2  0  0  0  0
  1 30  1  0  0  0  0
  1 31  1  0  0  0  0
  1 32  1  0  0  0  0
  2 33  1  0  0  0  0
  2 34  1  0  0  0  0
  4 35  1  0  0  0  0
  5 36  1  0  0  0  0
 11 37  1  0  0  0  0
 12 38  1  0  0  0  0
 14 39  1  0  0  0  0
 14 40  1  0  0  0  0
 15 41  1  0  0  0  0
 15 42  1  0  0  0  0
 15 43  1  0  0  0  0
 19 44  1  0  0  0  0
 20 45  1  0  0  0  0
 25 46  1  0  0  0  0
 26 47  1  0  0  0  0
M  END
