
  xtb     01172214373D
 energy: -75.310025976572 gnorm: 0.000394964653 xtb: 6.4.1 (unknown)
 58 62  0     0  0            999 V2000
    0.8017    2.8119    1.8980 C   0  0  0  0  0  0  0  0  0  0  0  0
    0.8765    1.8791    3.1014 C   0  0  0  0  0  0  0  0  0  0  0  0
    1.3254    0.4627    2.7125 C   0  0  0  0  0  0  0  0  0  0  0  0
    1.2610   -0.5056    3.9166 C   0  0  0  0  0  0  0  0  0  0  0  0
    2.2030   -0.1963    5.0727 C   0  0  0  0  0  0  0  0  0  0  0  0
    2.6854    0.4573    2.0520 C   0  0  0  0  0  0  0  0  0  0  0  0
    3.8824    0.9721    2.5042 C   0  0  0  0  0  0  0  0  0  0  0  0
    5.0156    0.8395    1.7118 C   0  0  0  0  0  0  0  0  0  0  0  0
    4.9521    0.2096    0.4792 C   0  0  0  0  0  0  0  0  0  0  0  0
    3.7489   -0.2824    0.0011 C   0  0  0  0  0  0  0  0  0  0  0  0
    2.6166   -0.1498    0.7878 C   0  0  0  0  0  0  0  0  0  0  0  0
    1.2361   -0.5111    0.5191 C   0  0  0  0  0  0  0  0  0  0  0  0
    0.6699   -1.1065   -0.6011 C   0  0  0  0  0  0  0  0  0  0  0  0
   -0.6974   -1.2943   -0.6094 C   0  0  0  0  0  0  0  0  0  0  0  0
   -1.4692   -0.9396    0.5097 C   0  0  0  0  0  0  0  0  0  0  0  0
   -0.9025   -0.3528    1.6343 C   0  0  0  0  0  0  0  0  0  0  0  0
    0.4571   -0.1285    1.6215 C   0  0  0  0  0  0  0  0  0  0  0  0
   -2.8489   -1.3071    0.2539 C   0  0  0  0  0  0  0  0  0  0  0  0
   -3.9770   -1.1546    1.0436 C   0  0  0  0  0  0  0  0  0  0  0  0
   -5.1984   -1.5757    0.5461 C   0  0  0  0  0  0  0  0  0  0  0  0
   -5.2890   -2.1190   -0.7253 C   0  0  0  0  0  0  0  0  0  0  0  0
   -4.1599   -2.2687   -1.5201 C   0  0  0  0  0  0  0  0  0  0  0  0
   -2.9317   -1.8862   -1.0213 C   0  0  0  0  0  0  0  0  0  0  0  0
   -1.5671   -1.9234   -1.6819 C   0  0  0  0  0  0  0  0  0  0  0  0
   -1.0560   -3.3594   -1.9194 C   0  0  0  0  0  0  0  0  0  0  0  0
   -1.8267   -4.1907   -2.9370 C   0  0  0  0  0  0  0  0  0  0  0  0
   -1.6448   -1.0661   -2.9624 C   0  0  0  0  0  0  0  0  0  0  0  0
   -0.3514   -0.9168   -3.7532 C   0  0  0  0  0  0  0  0  0  0  0  0
    1.7729    2.8879    1.4137 H   0  0  0  0  0  0  0  0  0  0  0  0
    0.4929    3.8070    2.2109 H   0  0  0  0  0  0  0  0  0  0  0  0
    0.0846    2.4410    1.1689 H   0  0  0  0  0  0  0  0  0  0  0  0
    1.5787    2.2916    3.8273 H   0  0  0  0  0  0  0  0  0  0  0  0
   -0.1047    1.8204    3.5777 H   0  0  0  0  0  0  0  0  0  0  0  0
    1.4783   -1.5118    3.5480 H   0  0  0  0  0  0  0  0  0  0  0  0
    0.2327   -0.5061    4.2859 H   0  0  0  0  0  0  0  0  0  0  0  0
    3.2401   -0.2819    4.7606 H   0  0  0  0  0  0  0  0  0  0  0  0
    2.0329    0.8021    5.4674 H   0  0  0  0  0  0  0  0  0  0  0  0
    2.0327   -0.9093    5.8769 H   0  0  0  0  0  0  0  0  0  0  0  0
    3.9492    1.4867    3.4512 H   0  0  0  0  0  0  0  0  0  0  0  0
    5.9581    1.2372    2.0597 H   0  0  0  0  0  0  0  0  0  0  0  0
    5.8469    0.1151   -0.1191 H   0  0  0  0  0  0  0  0  0  0  0  0
    3.6948   -0.7531   -0.9695 H   0  0  0  0  0  0  0  0  0  0  0  0
    1.2952   -1.4145   -1.4248 H   0  0  0  0  0  0  0  0  0  0  0  0
   -1.5139   -0.0843    2.4831 H   0  0  0  0  0  0  0  0  0  0  0  0
   -3.9062   -0.7111    2.0257 H   0  0  0  0  0  0  0  0  0  0  0  0
   -6.0898   -1.4694    1.1472 H   0  0  0  0  0  0  0  0  0  0  0  0
   -6.2522   -2.4260   -1.1068 H   0  0  0  0  0  0  0  0  0  0  0  0
   -4.2625   -2.6714   -2.5165 H   0  0  0  0  0  0  0  0  0  0  0  0
   -1.0761   -3.8760   -0.9557 H   0  0  0  0  0  0  0  0  0  0  0  0
   -0.0115   -3.2984   -2.2303 H   0  0  0  0  0  0  0  0  0  0  0  0
   -1.3349   -5.1537   -3.0607 H   0  0  0  0  0  0  0  0  0  0  0  0
   -1.8587   -3.7022   -3.9073 H   0  0  0  0  0  0  0  0  0  0  0  0
   -2.8425   -4.3753   -2.6001 H   0  0  0  0  0  0  0  0  0  0  0  0
   -2.4098   -1.4971   -3.6109 H   0  0  0  0  0  0  0  0  0  0  0  0
   -1.9934   -0.0720   -2.6686 H   0  0  0  0  0  0  0  0  0  0  0  0
   -0.5486   -0.3495   -4.6610 H   0  0  0  0  0  0  0  0  0  0  0  0
    0.0523   -1.8837   -4.0417 H   0  0  0  0  0  0  0  0  0  0  0  0
    0.3960   -0.3777   -3.1784 H   0  0  0  0  0  0  0  0  0  0  0  0
  1  2  1  0  0  0  0
  2  3  1  0  0  0  0
  3  4  1  0  0  0  0
  4  5  1  0  0  0  0
  3  6  1  0  0  0  0
  6  7  2  0  0  0  0
  7  8  1  0  0  0  0
  8  9  2  0  0  0  0
  9 10  1  0  0  0  0
 10 11  2  0  0  0  0
 11 12  1  0  0  0  0
 12 13  2  0  0  0  0
 13 14  1  0  0  0  0
 14 15  2  0  0  0  0
 15 16  1  0  0  0  0
 16 17  2  0  0  0  0
 15 18  1  0  0  0  0
 18 19  2  0  0  0  0
 19 20  1  0  0  0  0
 20 21  2  0  0  0  0
 21 22  1  0  0  0  0
 22 23  2  0  0  0  0
 23 24  1  0  0  0  0
 24 25  1  0  0  0  0
 25 26  1  0  0  0  0
 24 27  1  0  0  0  0
 27 28  1  0  0  0  0
 17  3  1  0  0  0  0
 23 18  1  0  0  0  0
 11  6  1  0  0  0  0
 17 12  1  0  0  0  0
 24 14  1  0  0  0  0
  1 29  1  0  0  0  0
  1 30  1  0  0  0  0
  1 31  1  0  0  0  0
  2 32  1  0  0  0  0
  2 33  1  0  0  0  0
  4 34  1  0  0  0  0
  4 35  1  0  0  0  0
  5 36  1  0  0  0  0
  5 37  1  0  0  0  0
  5 38  1  0  0  0  0
  7 39  1  0  0  0  0
  8 40  1  0  0  0  0
  9 41  1  0  0  0  0
 10 42  1  0  0  0  0
 13 43  1  0  0  0  0
 16 44  1  0  0  0  0
 19 45  1  0  0  0  0
 20 46  1  0  0  0  0
 21 47  1  0  0  0  0
 22 48  1  0  0  0  0
 25 49  1  0  0  0  0
 25 50  1  0  0  0  0
 26 51  1  0  0  0  0
 26 52  1  0  0  0  0
 26 53  1  0  0  0  0
 27 54  1  0  0  0  0
 27 55  1  0  0  0  0
 28 56  1  0  0  0  0
 28 57  1  0  0  0  0
 28 58  1  0  0  0  0
M  END
