
  xtb     01172214373D
 energy: -105.832790909392 gnorm: 0.000223423969 xtb: 6.4.1 (unknown)
 64 67  0     0  0            999 V2000
    0.7404   -3.0055    5.7958 C   0  0  0  0  0  0  0  0  0  0  0  0
   -0.5712   -3.3211    5.0819 C   0  0  0  0  0  0  0  0  0  0  0  0
   -1.2978   -2.1587    4.7419 O   0  0  0  0  0  0  0  0  0  0  0  0
   -0.9029   -1.3950    3.6921 C   0  0  0  0  0  0  0  0  0  0  0  0
    0.1007   -1.7067    2.7879 C   0  0  0  0  0  0  0  0  0  0  0  0
    0.3910   -0.8660    1.7261 C   0  0  0  0  0  0  0  0  0  0  0  0
   -0.3167    0.3149    1.5561 C   0  0  0  0  0  0  0  0  0  0  0  0
   -0.0059    1.2514    0.4773 C   0  0  0  0  0  0  0  0  0  0  0  0
   -0.0863    2.5294    0.7668 N   0  0  0  0  0  0  0  0  0  0  0  0
    0.3525    3.4312   -0.1294 C   0  0  0  0  0  0  0  0  0  0  0  0
    0.2584    4.8073    0.1487 C   0  0  0  0  0  0  0  0  0  0  0  0
    0.8153    5.7001   -0.7232 C   0  0  0  0  0  0  0  0  0  0  0  0
    0.7442    7.0185   -0.4716 F   0  0  0  0  0  0  0  0  0  0  0  0
    1.4771    5.2637   -1.8892 C   0  0  0  0  0  0  0  0  0  0  0  0
    2.0205    6.1798   -2.7090 F   0  0  0  0  0  0  0  0  0  0  0  0
    1.5645    3.9350   -2.1962 C   0  0  0  0  0  0  0  0  0  0  0  0
    0.9801    2.9935   -1.3289 C   0  0  0  0  0  0  0  0  0  0  0  0
    0.9527    1.6915   -1.6650 N   0  0  0  0  0  0  0  0  0  0  0  0
    0.4172    0.8287   -0.8323 C   0  0  0  0  0  0  0  0  0  0  0  0
    0.2395   -0.5350   -1.3280 C   0  0  0  0  0  0  0  0  0  0  0  0
   -0.8672   -1.2999   -0.9890 C   0  0  0  0  0  0  0  0  0  0  0  0
   -1.0250   -2.5693   -1.5193 C   0  0  0  0  0  0  0  0  0  0  0  0
   -0.0832   -3.1041   -2.3849 C   0  0  0  0  0  0  0  0  0  0  0  0
   -0.1173   -4.3444   -2.9336 O   0  0  0  0  0  0  0  0  0  0  0  0
   -1.2531   -5.1648   -2.7562 C   0  0  0  0  0  0  0  0  0  0  0  0
   -2.4294   -4.7379   -3.6300 C   0  0  0  0  0  0  0  0  0  0  0  0
    1.0432   -2.3223   -2.7470 C   0  0  0  0  0  0  0  0  0  0  0  0
    1.8935   -2.9192   -3.6229 O   0  0  0  0  0  0  0  0  0  0  0  0
    3.0791   -2.2557   -4.0101 C   0  0  0  0  0  0  0  0  0  0  0  0
    4.1689   -2.3232   -2.9436 C   0  0  0  0  0  0  0  0  0  0  0  0
    1.1806   -1.0529   -2.2233 C   0  0  0  0  0  0  0  0  0  0  0  0
   -1.3102    0.6553    2.4793 C   0  0  0  0  0  0  0  0  0  0  0  0
   -1.6187   -0.1819    3.5327 C   0  0  0  0  0  0  0  0  0  0  0  0
   -2.5747    0.0547    4.4658 O   0  0  0  0  0  0  0  0  0  0  0  0
   -3.3140    1.2572    4.3910 C   0  0  0  0  0  0  0  0  0  0  0  0
   -4.2765    1.2779    5.5679 C   0  0  0  0  0  0  0  0  0  0  0  0
    0.5398   -2.4096    6.6823 H   0  0  0  0  0  0  0  0  0  0  0  0
    1.4102   -2.4437    5.1495 H   0  0  0  0  0  0  0  0  0  0  0  0
    1.2280   -3.9297    6.0934 H   0  0  0  0  0  0  0  0  0  0  0  0
   -0.3945   -3.9446    4.1964 H   0  0  0  0  0  0  0  0  0  0  0  0
   -1.2376   -3.8652    5.7572 H   0  0  0  0  0  0  0  0  0  0  0  0
    0.6730   -2.6141    2.8947 H   0  0  0  0  0  0  0  0  0  0  0  0
    1.1880   -1.1276    1.0478 H   0  0  0  0  0  0  0  0  0  0  0  0
   -0.2320    5.1415    1.0482 H   0  0  0  0  0  0  0  0  0  0  0  0
    2.0554    3.6044   -3.0967 H   0  0  0  0  0  0  0  0  0  0  0  0
   -1.6247   -0.9044   -0.3308 H   0  0  0  0  0  0  0  0  0  0  0  0
   -1.8986   -3.1365   -1.2409 H   0  0  0  0  0  0  0  0  0  0  0  0
   -1.5451   -5.2043   -1.6992 H   0  0  0  0  0  0  0  0  0  0  0  0
   -0.9132   -6.1601   -3.0557 H   0  0  0  0  0  0  0  0  0  0  0  0
   -2.7691   -3.7397   -3.3654 H   0  0  0  0  0  0  0  0  0  0  0  0
   -3.2520   -5.4367   -3.5047 H   0  0  0  0  0  0  0  0  0  0  0  0
   -2.1261   -4.7312   -4.6736 H   0  0  0  0  0  0  0  0  0  0  0  0
    3.4062   -2.7933   -4.9047 H   0  0  0  0  0  0  0  0  0  0  0  0
    2.8690   -1.2158   -4.2887 H   0  0  0  0  0  0  0  0  0  0  0  0
    5.0796   -1.8666   -3.3215 H   0  0  0  0  0  0  0  0  0  0  0  0
    4.3716   -3.3612   -2.6920 H   0  0  0  0  0  0  0  0  0  0  0  0
    3.8628   -1.8034   -2.0393 H   0  0  0  0  0  0  0  0  0  0  0  0
    2.0120   -0.4202   -2.4861 H   0  0  0  0  0  0  0  0  0  0  0  0
   -1.8269    1.5895    2.3356 H   0  0  0  0  0  0  0  0  0  0  0  0
   -2.6365    2.1210    4.4382 H   0  0  0  0  0  0  0  0  0  0  0  0
   -3.8705    1.3002    3.4440 H   0  0  0  0  0  0  0  0  0  0  0  0
   -4.8653    2.1906    5.5493 H   0  0  0  0  0  0  0  0  0  0  0  0
   -3.7208    1.2284    6.5000 H   0  0  0  0  0  0  0  0  0  0  0  0
   -4.9417    0.4206    5.5176 H   0  0  0  0  0  0  0  0  0  0  0  0
  1  2  1  0  0  0  0
  2  3  1  0  0  0  0
  3  4  1  0  0  0  0
  4  5  2  0  0  0  0
  5  6  1  0  0  0  0
  6  7  2  0  0  0  0
  7  8  1  0  0  0  0
  8  9  2  0  0  0  0
  9 10  1  0  0  0  0
 10 11  2  0  0  0  0
 11 12  1  0  0  0  0
 12 13  1  0  0  0  0
 12 14  2  0  0  0  0
 14 15  1  0  0  0  0
 14 16  1  0  0  0  0
 16 17  2  0  0  0  0
 17 18  1  0  0  0  0
 18 19  2  0  0  0  0
 19 20  1  0  0  0  0
 20 21  2  0  0  0  0
 21 22  1  0  0  0  0
 22 23  2  0  0  0  0
 23 24  1  0  0  0  0
 24 25  1  0  0  0  0
 25 26  1  0  0  0  0
 23 27  1  0  0  0  0
 27 28  1  0  0  0  0
 28 29  1  0  0  0  0
 29 30  1  0  0  0  0
 27 31  2  0  0  0  0
  7 32  1  0  0  0  0
 32 33  2  0  0  0  0
 33 34  1  0  0  0  0
 34 35  1  0  0  0  0
 35 36  1  0  0  0  0
 33  4  1  0  0  0  0
 19  8  1  0  0  0  0
 31 20  1  0  0  0  0
 17 10  1  0  0  0  0
  1 37  1  0  0  0  0
  1 38  1  0  0  0  0
  1 39  1  0  0  0  0
  2 40  1  0  0  0  0
  2 41  1  0  0  0  0
  5 42  1  0  0  0  0
  6 43  1  0  0  0  0
 11 44  1  0  0  0  0
 16 45  1  0  0  0  0
 21 46  1  0  0  0  0
 22 47  1  0  0  0  0
 25 48  1  0  0  0  0
 25 49  1  0  0  0  0
 26 50  1  0  0  0  0
 26 51  1  0  0  0  0
 26 52  1  0  0  0  0
 29 53  1  0  0  0  0
 29 54  1  0  0  0  0
 30 55  1  0  0  0  0
 30 56  1  0  0  0  0
 30 57  1  0  0  0  0
 31 58  1  0  0  0  0
 32 59  1  0  0  0  0
 35 60  1  0  0  0  0
 35 61  1  0  0  0  0
 36 62  1  0  0  0  0
 36 63  1  0  0  0  0
 36 64  1  0  0  0  0
M  END
