
  xtb     01172214373D
 energy: -32.773500121492 gnorm: 0.000540647658 xtb: 6.4.1 (unknown)
 12 12  0     0  0            999 V2000
   -0.9499   -2.1641    0.6210 F   0  0  0  0  0  0  0  0  0  0  0  0
    0.1817   -1.4766    0.8044 C   0  0  0  0  0  0  0  0  0  0  0  0
    1.3750   -2.1623    0.9503 C   0  0  0  0  0  0  0  0  0  0  0  0
    2.5463   -1.4498    1.1401 C   0  0  0  0  0  0  0  0  0  0  0  0
    3.6992   -2.1114    1.2811 F   0  0  0  0  0  0  0  0  0  0  0  0
    2.5244   -0.0588    1.1837 C   0  0  0  0  0  0  0  0  0  0  0  0
    3.6559    0.6287    1.3671 F   0  0  0  0  0  0  0  0  0  0  0  0
    1.3310    0.6269    1.0378 C   0  0  0  0  0  0  0  0  0  0  0  0
    0.1598   -0.0856    0.8480 C   0  0  0  0  0  0  0  0  0  0  0  0
   -0.9931    0.5760    0.7070 F   0  0  0  0  0  0  0  0  0  0  0  0
    1.3921   -3.2395    0.9165 H   0  0  0  0  0  0  0  0  0  0  0  0
    1.3140    1.7041    1.0716 H   0  0  0  0  0  0  0  0  0  0  0  0
  1  2  1  0  0  0  0
  2  3  2  0  0  0  0
  3  4  1  0  0  0  0
  4  5  1  0  0  0  0
  4  6  2  0  0  0  0
  6  7  1  0  0  0  0
  6  8  1  0  0  0  0
  8  9  2  0  0  0  0
  9 10  1  0  0  0  0
  9  2  1  0  0  0  0
  3 11  1  0  0  0  0
  8 12  1  0  0  0  0
M  END
