
  xtb     01172214373D
 energy: -71.180137239525 gnorm: 0.000543042479 xtb: 6.4.1 (unknown)
 52 56  0     0  0            999 V2000
    2.1883   -0.6078    3.7903 C   0  0  0  0  0  0  0  0  0  0  0  0
    3.1708   -0.8502    2.6504 C   0  0  0  0  0  0  0  0  0  0  0  0
    2.7360   -0.1678    1.3442 C   0  0  0  0  0  0  0  0  0  0  0  0
    3.6690   -0.5357    0.1699 C   0  0  0  0  0  0  0  0  0  0  0  0
    5.1093   -0.0626    0.3157 C   0  0  0  0  0  0  0  0  0  0  0  0
    1.3191   -0.5519    0.9476 C   0  0  0  0  0  0  0  0  0  0  0  0
    0.8171   -1.8060    0.6803 C   0  0  0  0  0  0  0  0  0  0  0  0
   -0.5206   -1.8930    0.3118 C   0  0  0  0  0  0  0  0  0  0  0  0
   -1.3435   -0.7518    0.2056 C   0  0  0  0  0  0  0  0  0  0  0  0
   -0.8416    0.5023    0.4729 C   0  0  0  0  0  0  0  0  0  0  0  0
    0.4962    0.5893    0.8414 C   0  0  0  0  0  0  0  0  0  0  0  0
    1.3118    1.7153    1.1935 C   0  0  0  0  0  0  0  0  0  0  0  0
    1.0815    3.4104    1.3698 S   0  0  0  0  0  0  0  0  0  0  0  0
    2.7221    3.5777    1.8860 C   0  0  0  0  0  0  0  0  0  0  0  0
    3.4028    2.3974    1.9163 C   0  0  0  0  0  0  0  0  0  0  0  0
    2.5942    1.3221    1.5074 C   0  0  0  0  0  0  0  0  0  0  0  0
   -2.7604   -1.1359   -0.1910 C   0  0  0  0  0  0  0  0  0  0  0  0
   -3.6934   -0.7680    0.9833 C   0  0  0  0  0  0  0  0  0  0  0  0
   -5.1337   -1.2410    0.8375 C   0  0  0  0  0  0  0  0  0  0  0  0
   -3.1953   -0.4536   -1.4972 C   0  0  0  0  0  0  0  0  0  0  0  0
   -2.2128   -0.6959   -2.6371 C   0  0  0  0  0  0  0  0  0  0  0  0
   -2.6187   -2.6258   -0.3542 C   0  0  0  0  0  0  0  0  0  0  0  0
   -3.4272   -3.7012   -0.7630 C   0  0  0  0  0  0  0  0  0  0  0  0
   -2.7465   -4.8814   -0.7328 C   0  0  0  0  0  0  0  0  0  0  0  0
   -1.1059   -4.7141   -0.2166 S   0  0  0  0  0  0  0  0  0  0  0  0
   -1.3363   -3.0191   -0.0403 C   0  0  0  0  0  0  0  0  0  0  0  0
    1.2062   -1.0047    3.5429 H   0  0  0  0  0  0  0  0  0  0  0  0
    2.5392   -1.0942    4.6978 H   0  0  0  0  0  0  0  0  0  0  0  0
    2.0866    0.4571    3.9882 H   0  0  0  0  0  0  0  0  0  0  0  0
    3.2638   -1.9236    2.4721 H   0  0  0  0  0  0  0  0  0  0  0  0
    4.1510   -0.4682    2.9402 H   0  0  0  0  0  0  0  0  0  0  0  0
    3.2462   -0.1038   -0.7411 H   0  0  0  0  0  0  0  0  0  0  0  0
    3.6558   -1.6219    0.0565 H   0  0  0  0  0  0  0  0  0  0  0  0
    5.5794   -0.4901    1.1974 H   0  0  0  0  0  0  0  0  0  0  0  0
    5.1545    1.0208    0.3823 H   0  0  0  0  0  0  0  0  0  0  0  0
    5.6827   -0.3723   -0.5556 H   0  0  0  0  0  0  0  0  0  0  0  0
    1.4237   -2.6963    0.7548 H   0  0  0  0  0  0  0  0  0  0  0  0
   -1.4481    1.3925    0.3984 H   0  0  0  0  0  0  0  0  0  0  0  0
    3.0832    4.5547    2.1403 H   0  0  0  0  0  0  0  0  0  0  0  0
    4.4275    2.3209    2.2329 H   0  0  0  0  0  0  0  0  0  0  0  0
   -3.6801    0.3182    1.0968 H   0  0  0  0  0  0  0  0  0  0  0  0
   -3.2706   -1.2000    1.8943 H   0  0  0  0  0  0  0  0  0  0  0  0
   -5.7071   -0.9314    1.7089 H   0  0  0  0  0  0  0  0  0  0  0  0
   -5.6038   -0.8134   -0.0442 H   0  0  0  0  0  0  0  0  0  0  0  0
   -5.1790   -2.3244    0.7708 H   0  0  0  0  0  0  0  0  0  0  0  0
   -3.2882    0.6199   -1.3189 H   0  0  0  0  0  0  0  0  0  0  0  0
   -4.1754   -0.8356   -1.7870 H   0  0  0  0  0  0  0  0  0  0  0  0
   -1.2307   -0.2991   -2.3898 H   0  0  0  0  0  0  0  0  0  0  0  0
   -2.1111   -1.7608   -2.8350 H   0  0  0  0  0  0  0  0  0  0  0  0
   -2.5637   -0.2096   -3.5446 H   0  0  0  0  0  0  0  0  0  0  0  0
   -4.4520   -3.6246   -1.0796 H   0  0  0  0  0  0  0  0  0  0  0  0
   -3.1077   -5.8585   -0.9870 H   0  0  0  0  0  0  0  0  0  0  0  0
  1  2  1  0  0  0  0
  2  3  1  0  0  0  0
  3  4  1  0  0  0  0
  4  5  1  0  0  0  0
  3  6  1  0  0  0  0
  6  7  2  0  0  0  0
  7  8  1  0  0  0  0
  8  9  2  0  0  0  0
  9 10  1  0  0  0  0
 10 11  2  0  0  0  0
 11 12  1  0  0  0  0
 12 13  1  0  0  0  0
 13 14  1  0  0  0  0
 14 15  2  0  0  0  0
 15 16  1  0  0  0  0
  9 17  1  0  0  0  0
 17 18  1  0  0  0  0
 18 19  1  0  0  0  0
 17 20  1  0  0  0  0
 20 21  1  0  0  0  0
 17 22  1  0  0  0  0
 22 23  1  0  0  0  0
 23 24  2  0  0  0  0
 24 25  1  0  0  0  0
 25 26  1  0  0  0  0
 16  3  1  0  0  0  0
 26 22  2  0  0  0  0
 11  6  1  0  0  0  0
 16 12  2  0  0  0  0
 26  8  1  0  0  0  0
  1 27  1  0  0  0  0
  1 28  1  0  0  0  0
  1 29  1  0  0  0  0
  2 30  1  0  0  0  0
  2 31  1  0  0  0  0
  4 32  1  0  0  0  0
  4 33  1  0  0  0  0
  5 34  1  0  0  0  0
  5 35  1  0  0  0  0
  5 36  1  0  0  0  0
  7 37  1  0  0  0  0
 10 38  1  0  0  0  0
 14 39  1  0  0  0  0
 15 40  1  0  0  0  0
 18 41  1  0  0  0  0
 18 42  1  0  0  0  0
 19 43  1  0  0  0  0
 19 44  1  0  0  0  0
 19 45  1  0  0  0  0
 20 46  1  0  0  0  0
 20 47  1  0  0  0  0
 21 48  1  0  0  0  0
 21 49  1  0  0  0  0
 21 50  1  0  0  0  0
 23 51  1  0  0  0  0
 24 52  1  0  0  0  0
M  END
