
  xtb     01172214373D
 energy: -32.982017713556 gnorm: 0.000777487305 xtb: 6.4.1 (unknown)
 22 23  0     0  0            999 V2000
    1.5294    1.3625    4.2327 C   0  0  0  0  0  0  0  0  0  0  0  0
    0.5928    0.1732    4.0099 C   0  0  0  0  0  0  0  0  0  0  0  0
    0.5852   -0.2484    2.5810 C   0  0  0  0  0  0  0  0  0  0  0  0
    1.2262   -1.3011    2.0037 C   0  0  0  0  0  0  0  0  0  0  0  0
    1.0353   -1.3814    0.6107 C   0  0  0  0  0  0  0  0  0  0  0  0
    0.2451   -0.3813    0.1142 C   0  0  0  0  0  0  0  0  0  0  0  0
   -0.1603   -0.1398   -1.2469 C   0  0  0  0  0  0  0  0  0  0  0  0
   -1.0452    0.9078   -1.6385 C   0  0  0  0  0  0  0  0  0  0  0  0
   -1.2753    0.9338   -2.9703 C   0  0  0  0  0  0  0  0  0  0  0  0
   -0.4255   -0.3132   -3.7996 S   0  0  0  0  0  0  0  0  0  0  0  0
    0.2487   -0.8757   -2.3266 C   0  0  0  0  0  0  0  0  0  0  0  0
   -0.2731    0.6775    1.3948 S   0  0  0  0  0  0  0  0  0  0  0  0
    1.2074    2.2125    3.6355 H   0  0  0  0  0  0  0  0  0  0  0  0
    2.5448    1.1023    3.9433 H   0  0  0  0  0  0  0  0  0  0  0  0
    1.5292    1.6528    5.2806 H   0  0  0  0  0  0  0  0  0  0  0  0
   -0.4175    0.4511    4.3181 H   0  0  0  0  0  0  0  0  0  0  0  0
    0.9190   -0.6693    4.6231 H   0  0  0  0  0  0  0  0  0  0  0  0
    1.8176   -2.0060    2.5615 H   0  0  0  0  0  0  0  0  0  0  0  0
    1.4647   -2.1537   -0.0013 H   0  0  0  0  0  0  0  0  0  0  0  0
   -1.4795    1.5982   -0.9374 H   0  0  0  0  0  0  0  0  0  0  0  0
   -1.8937    1.6078   -3.5287 H   0  0  0  0  0  0  0  0  0  0  0  0
    0.9112   -1.7170   -2.3436 H   0  0  0  0  0  0  0  0  0  0  0  0
  1  2  1  0  0  0  0
  2  3  1  0  0  0  0
  3  4  2  0  0  0  0
  4  5  1  0  0  0  0
  5  6  2  0  0  0  0
  6  7  1  0  0  0  0
  7  8  1  0  0  0  0
  8  9  2  0  0  0  0
  9 10  1  0  0  0  0
 10 11  1  0  0  0  0
  6 12  1  0  0  0  0
 12  3  1  0  0  0  0
 11  7  2  0  0  0  0
  1 13  1  0  0  0  0
  1 14  1  0  0  0  0
  1 15  1  0  0  0  0
  2 16  1  0  0  0  0
  2 17  1  0  0  0  0
  4 18  1  0  0  0  0
  5 19  1  0  0  0  0
  8 20  1  0  0  0  0
  9 21  1  0  0  0  0
 11 22  1  0  0  0  0
M  END
