
  xtb     01172214383D
 energy: -84.362504678677 gnorm: 0.000831524203 xtb: 6.4.1 (unknown)
 50 56  0     0  0            999 V2000
    4.8906   -4.3655    4.3874 C   0  0  0  0  0  0  0  0  0  0  0  0
    5.3183   -2.9234    4.1057 C   0  0  0  0  0  0  0  0  0  0  0  0
    4.1494   -2.0928    3.7027 C   0  0  0  0  0  0  0  0  0  0  0  0
    3.4800   -1.1567    4.4264 C   0  0  0  0  0  0  0  0  0  0  0  0
    2.3789   -0.6003    3.7425 C   0  0  0  0  0  0  0  0  0  0  0  0
    2.1950   -1.1352    2.5026 C   0  0  0  0  0  0  0  0  0  0  0  0
    1.1924   -0.7766    1.5114 C   0  0  0  0  0  0  0  0  0  0  0  0
    1.0678    0.5393    1.0842 C   0  0  0  0  0  0  0  0  0  0  0  0
    2.0746    1.8512    1.6678 S   0  0  0  0  0  0  0  0  0  0  0  0
    1.2966    2.9455    0.5651 C   0  0  0  0  0  0  0  0  0  0  0  0
    1.4834    4.3086    0.2640 C   0  0  0  0  0  0  0  0  0  0  0  0
    0.6388    4.7081   -0.7214 C   0  0  0  0  0  0  0  0  0  0  0  0
   -0.3991    3.4514   -1.2948 S   0  0  0  0  0  0  0  0  0  0  0  0
    0.3066    2.3330   -0.1843 C   0  0  0  0  0  0  0  0  0  0  0  0
    0.1424    0.9481    0.0930 C   0  0  0  0  0  0  0  0  0  0  0  0
   -0.7136    0.0068   -0.4936 C   0  0  0  0  0  0  0  0  0  0  0  0
   -1.7064    0.3580   -1.4981 C   0  0  0  0  0  0  0  0  0  0  0  0
   -1.8604   -0.1770   -2.7419 C   0  0  0  0  0  0  0  0  0  0  0  0
   -2.9663    0.3527   -3.4387 C   0  0  0  0  0  0  0  0  0  0  0  0
   -3.6643    1.2753   -2.7245 C   0  0  0  0  0  0  0  0  0  0  0  0
   -4.9060    2.0025   -3.1101 C   0  0  0  0  0  0  0  0  0  0  0  0
   -6.1320    1.4128   -2.4079 C   0  0  0  0  0  0  0  0  0  0  0  0
   -2.9607    1.5129   -1.1583 S   0  0  0  0  0  0  0  0  0  0  0  0
   -0.5933   -1.3080   -0.0616 C   0  0  0  0  0  0  0  0  0  0  0  0
   -1.6059   -2.6179   -0.6399 S   0  0  0  0  0  0  0  0  0  0  0  0
   -0.8296   -3.7121    0.4641 C   0  0  0  0  0  0  0  0  0  0  0  0
   -1.0215   -5.0736    0.7695 C   0  0  0  0  0  0  0  0  0  0  0  0
   -0.1756   -5.4745    1.7532 C   0  0  0  0  0  0  0  0  0  0  0  0
    0.8697   -4.2209    2.3195 S   0  0  0  0  0  0  0  0  0  0  0  0
    0.1656   -3.1016    1.2086 C   0  0  0  0  0  0  0  0  0  0  0  0
    0.3330   -1.7174    0.9282 C   0  0  0  0  0  0  0  0  0  0  0  0
    3.4205   -2.3147    2.1460 S   0  0  0  0  0  0  0  0  0  0  0  0
    4.4474   -4.8056    3.4969 H   0  0  0  0  0  0  0  0  0  0  0  0
    4.1531   -4.3909    5.1864 H   0  0  0  0  0  0  0  0  0  0  0  0
    5.7484   -4.9640    4.6840 H   0  0  0  0  0  0  0  0  0  0  0  0
    6.0666   -2.9203    3.3094 H   0  0  0  0  0  0  0  0  0  0  0  0
    5.7679   -2.4893    5.0012 H   0  0  0  0  0  0  0  0  0  0  0  0
    3.7652   -0.8668    5.4222 H   0  0  0  0  0  0  0  0  0  0  0  0
    1.7291    0.1473    4.1612 H   0  0  0  0  0  0  0  0  0  0  0  0
    2.2020    4.9432    0.7480 H   0  0  0  0  0  0  0  0  0  0  0  0
    0.5539    5.6832   -1.1584 H   0  0  0  0  0  0  0  0  0  0  0  0
   -1.1880   -0.9090   -3.1527 H   0  0  0  0  0  0  0  0  0  0  0  0
   -3.2308    0.0587   -4.4390 H   0  0  0  0  0  0  0  0  0  0  0  0
   -4.8128    3.0585   -2.8436 H   0  0  0  0  0  0  0  0  0  0  0  0
   -5.0325    1.9308   -4.1929 H   0  0  0  0  0  0  0  0  0  0  0  0
   -6.0216    1.4922   -1.3288 H   0  0  0  0  0  0  0  0  0  0  0  0
   -7.0315    1.9452   -2.7068 H   0  0  0  0  0  0  0  0  0  0  0  0
   -6.2458    0.3622   -2.6667 H   0  0  0  0  0  0  0  0  0  0  0  0
   -1.7448   -5.7064    0.2900 H   0  0  0  0  0  0  0  0  0  0  0  0
   -0.0929   -6.4490    2.1920 H   0  0  0  0  0  0  0  0  0  0  0  0
  1  2  1  0  0  0  0
  2  3  1  0  0  0  0
  3  4  2  0  0  0  0
  4  5  1  0  0  0  0
  5  6  2  0  0  0  0
  6  7  1  0  0  0  0
  7  8  2  0  0  0  0
  8  9  1  0  0  0  0
  9 10  1  0  0  0  0
 10 11  1  0  0  0  0
 11 12  2  0  0  0  0
 12 13  1  0  0  0  0
 13 14  1  0  0  0  0
 14 15  1  0  0  0  0
 15 16  2  0  0  0  0
 16 17  1  0  0  0  0
 17 18  2  0  0  0  0
 18 19  1  0  0  0  0
 19 20  2  0  0  0  0
 20 21  1  0  0  0  0
 21 22  1  0  0  0  0
 20 23  1  0  0  0  0
 16 24  1  0  0  0  0
 24 25  1  0  0  0  0
 25 26  1  0  0  0  0
 26 27  1  0  0  0  0
 27 28  2  0  0  0  0
 28 29  1  0  0  0  0
 29 30  1  0  0  0  0
 30 31  1  0  0  0  0
  6 32  1  0  0  0  0
 32  3  1  0  0  0  0
 31  7  1  0  0  0  0
 15  8  1  0  0  0  0
 23 17  1  0  0  0  0
 31 24  2  0  0  0  0
 14 10  2  0  0  0  0
 30 26  2  0  0  0  0
  1 33  1  0  0  0  0
  1 34  1  0  0  0  0
  1 35  1  0  0  0  0
  2 36  1  0  0  0  0
  2 37  1  0  0  0  0
  4 38  1  0  0  0  0
  5 39  1  0  0  0  0
 11 40  1  0  0  0  0
 12 41  1  0  0  0  0
 18 42  1  0  0  0  0
 19 43  1  0  0  0  0
 21 44  1  0  0  0  0
 21 45  1  0  0  0  0
 22 46  1  0  0  0  0
 22 47  1  0  0  0  0
 22 48  1  0  0  0  0
 27 49  1  0  0  0  0
 28 50  1  0  0  0  0
M  END
