
  xtb     01172214383D
 energy: -23.391260234131 gnorm: 0.000399371878 xtb: 6.4.1 (unknown)
 16 16  0     0  0            999 V2000
    0.0436   -0.4287   -0.8028 C   0  0  0  0  0  0  0  0  0  0  0  0
   -0.3773    0.7486    0.0538 C   0  0  0  0  0  0  0  0  0  0  0  0
    1.0274    1.8616    0.4291 S   0  0  0  0  0  0  0  0  0  0  0  0
    2.0877    0.7674    1.3182 C   0  0  0  0  0  0  0  0  0  0  0  0
    1.6740   -0.1308    2.3372 C   0  0  0  0  0  0  0  0  0  0  0  0
    2.7150   -0.8157    2.8673 C   0  0  0  0  0  0  0  0  0  0  0  0
    4.2196   -0.3721    2.1600 S   0  0  0  0  0  0  0  0  0  0  0  0
    3.4330    0.7395    1.1129 C   0  0  0  0  0  0  0  0  0  0  0  0
    0.4770   -0.0813   -1.7380 H   0  0  0  0  0  0  0  0  0  0  0  0
    0.7832   -1.0361   -0.2839 H   0  0  0  0  0  0  0  0  0  0  0  0
   -0.8200   -1.0518   -1.0271 H   0  0  0  0  0  0  0  0  0  0  0  0
   -1.0870    1.3869   -0.4718 H   0  0  0  0  0  0  0  0  0  0  0  0
   -0.8211    0.4274    0.9955 H   0  0  0  0  0  0  0  0  0  0  0  0
    0.6553   -0.2494    2.6582 H   0  0  0  0  0  0  0  0  0  0  0  0
    2.6958   -1.5529    3.6450 H   0  0  0  0  0  0  0  0  0  0  0  0
    4.0019    1.3229    0.4180 H   0  0  0  0  0  0  0  0  0  0  0  0
  1  2  1  0  0  0  0
  2  3  1  0  0  0  0
  3  4  1  0  0  0  0
  4  5  1  0  0  0  0
  5  6  2  0  0  0  0
  6  7  1  0  0  0  0
  7  8  1  0  0  0  0
  8  4  2  0  0  0  0
  1  9  1  0  0  0  0
  1 10  1  0  0  0  0
  1 11  1  0  0  0  0
  2 12  1  0  0  0  0
  2 13  1  0  0  0  0
  5 14  1  0  0  0  0
  6 15  1  0  0  0  0
  8 16  1  0  0  0  0
M  END
