
  xtb     01172214383D
 energy: -94.930679597551 gnorm: 0.000203044553 xtb: 6.4.1 (unknown)
 57 64  0     0  0            999 V2000
    7.7883   -0.1771    1.6315 C   0  0  0  0  0  0  0  0  0  0  0  0
    7.5487   -0.0764    0.1250 C   0  0  0  0  0  0  0  0  0  0  0  0
    6.3530   -0.8753   -0.2819 C   0  0  0  0  0  0  0  0  0  0  0  0
    6.3862   -2.0408   -0.9805 C   0  0  0  0  0  0  0  0  0  0  0  0
    4.8249   -2.7338   -1.2766 S   0  0  0  0  0  0  0  0  0  0  0  0
    4.0681   -1.4230   -0.4357 C   0  0  0  0  0  0  0  0  0  0  0  0
    5.0190   -0.5235    0.0382 C   0  0  0  0  0  0  0  0  0  0  0  0
    4.3256    0.8219    0.9094 S   0  0  0  0  0  0  0  0  0  0  0  0
    2.7510    0.1604    0.6297 C   0  0  0  0  0  0  0  0  0  0  0  0
    1.4120    0.4262    0.9605 C   0  0  0  0  0  0  0  0  0  0  0  0
    0.8548    1.4225    1.7891 C   0  0  0  0  0  0  0  0  0  0  0  0
    1.4685    2.4125    2.4184 N   0  0  0  0  0  0  0  0  0  0  0  0
    0.3691    3.2219    3.2913 S   0  0  0  0  0  0  0  0  0  0  0  0
   -0.9321    2.3399    2.8979 N   0  0  0  0  0  0  0  0  0  0  0  0
   -0.5509    1.3813    2.0681 C   0  0  0  0  0  0  0  0  0  0  0  0
   -1.3429    0.4084    1.4233 C   0  0  0  0  0  0  0  0  0  0  0  0
   -2.7352    0.2227    1.4205 C   0  0  0  0  0  0  0  0  0  0  0  0
   -4.1486    0.9017    2.1527 S   0  0  0  0  0  0  0  0  0  0  0  0
   -5.1324   -0.1876    1.2064 C   0  0  0  0  0  0  0  0  0  0  0  0
   -6.5316   -0.3900    1.1220 C   0  0  0  0  0  0  0  0  0  0  0  0
   -7.5374    0.3897    1.9055 C   0  0  0  0  0  0  0  0  0  0  0  0
   -7.6285    1.8297    1.4007 C   0  0  0  0  0  0  0  0  0  0  0  0
   -6.8206   -1.3646    0.2197 C   0  0  0  0  0  0  0  0  0  0  0  0
   -5.4271   -2.0642   -0.5378 S   0  0  0  0  0  0  0  0  0  0  0  0
   -4.3894   -1.0224    0.3763 C   0  0  0  0  0  0  0  0  0  0  0  0
   -3.0091   -0.7941    0.5088 C   0  0  0  0  0  0  0  0  0  0  0  0
   -1.8416   -1.2584   -0.0348 N   0  0  0  0  0  0  0  0  0  0  0  0
   -1.9019   -2.1524   -1.1663 C   0  0  0  0  0  0  0  0  0  0  0  0
   -2.2131   -3.5903   -0.7501 C   0  0  0  0  0  0  0  0  0  0  0  0
   -0.7919   -0.5482    0.5244 C   0  0  0  0  0  0  0  0  0  0  0  0
    0.6238   -0.6025    0.3713 C   0  0  0  0  0  0  0  0  0  0  0  0
    1.4835   -1.4860   -0.2605 N   0  0  0  0  0  0  0  0  0  0  0  0
    1.2784   -2.8112   -0.7943 C   0  0  0  0  0  0  0  0  0  0  0  0
    1.4157   -2.8479   -2.3165 C   0  0  0  0  0  0  0  0  0  0  0  0
    2.7622   -1.0228   -0.1052 C   0  0  0  0  0  0  0  0  0  0  0  0
    7.9600   -1.2119    1.9200 H   0  0  0  0  0  0  0  0  0  0  0  0
    8.6577    0.4115    1.9133 H   0  0  0  0  0  0  0  0  0  0  0  0
    6.9251    0.1969    2.1765 H   0  0  0  0  0  0  0  0  0  0  0  0
    7.3806    0.9697   -0.1418 H   0  0  0  0  0  0  0  0  0  0  0  0
    8.4261   -0.4361   -0.4154 H   0  0  0  0  0  0  0  0  0  0  0  0
    7.2473   -2.5557   -1.3579 H   0  0  0  0  0  0  0  0  0  0  0  0
   -8.5126   -0.0940    1.8267 H   0  0  0  0  0  0  0  0  0  0  0  0
   -7.2365    0.3968    2.9559 H   0  0  0  0  0  0  0  0  0  0  0  0
   -8.3596    2.3857    1.9823 H   0  0  0  0  0  0  0  0  0  0  0  0
   -6.6643    2.3234    1.4929 H   0  0  0  0  0  0  0  0  0  0  0  0
   -7.9294    1.8469    0.3553 H   0  0  0  0  0  0  0  0  0  0  0  0
   -7.7870   -1.7356   -0.0589 H   0  0  0  0  0  0  0  0  0  0  0  0
   -0.9729   -2.0870   -1.7254 H   0  0  0  0  0  0  0  0  0  0  0  0
   -2.7087   -1.8010   -1.8199 H   0  0  0  0  0  0  0  0  0  0  0  0
   -1.5289   -3.9423    0.0191 H   0  0  0  0  0  0  0  0  0  0  0  0
   -3.2224   -3.6542   -0.3532 H   0  0  0  0  0  0  0  0  0  0  0  0
   -2.1409   -4.2460   -1.6132 H   0  0  0  0  0  0  0  0  0  0  0  0
    2.0486   -3.4615   -0.3635 H   0  0  0  0  0  0  0  0  0  0  0  0
    0.3119   -3.1844   -0.4680 H   0  0  0  0  0  0  0  0  0  0  0  0
    2.4420   -2.6373   -2.6040 H   0  0  0  0  0  0  0  0  0  0  0  0
    1.1509   -3.8350   -2.6852 H   0  0  0  0  0  0  0  0  0  0  0  0
    0.7764   -2.1090   -2.7951 H   0  0  0  0  0  0  0  0  0  0  0  0
  1  2  1  0  0  0  0
  2  3  1  0  0  0  0
  3  4  2  0  0  0  0
  4  5  1  0  0  0  0
  5  6  1  0  0  0  0
  6  7  2  0  0  0  0
  7  8  1  0  0  0  0
  8  9  1  0  0  0  0
  9 10  1  0  0  0  0
 10 11  1  0  0  0  0
 11 12  2  0  0  0  0
 12 13  1  0  0  0  0
 13 14  1  0  0  0  0
 14 15  2  0  0  0  0
 15 16  1  0  0  0  0
 16 17  1  0  0  0  0
 17 18  1  0  0  0  0
 18 19  1  0  0  0  0
 19 20  1  0  0  0  0
 20 21  1  0  0  0  0
 21 22  1  0  0  0  0
 20 23  2  0  0  0  0
 23 24  1  0  0  0  0
 24 25  1  0  0  0  0
 25 26  1  0  0  0  0
 26 27  1  0  0  0  0
 27 28  1  0  0  0  0
 28 29  1  0  0  0  0
 27 30  1  0  0  0  0
 30 31  1  0  0  0  0
 31 32  1  0  0  0  0
 32 33  1  0  0  0  0
 33 34  1  0  0  0  0
 32 35  1  0  0  0  0
  7  3  1  0  0  0  0
 35  9  2  0  0  0  0
 35  6  1  0  0  0  0
 31 10  2  0  0  0  0
 15 11  1  0  0  0  0
 30 16  2  0  0  0  0
 26 17  2  0  0  0  0
 25 19  2  0  0  0  0
  1 36  1  0  0  0  0
  1 37  1  0  0  0  0
  1 38  1  0  0  0  0
  2 39  1  0  0  0  0
  2 40  1  0  0  0  0
  4 41  1  0  0  0  0
 21 42  1  0  0  0  0
 21 43  1  0  0  0  0
 22 44  1  0  0  0  0
 22 45  1  0  0  0  0
 22 46  1  0  0  0  0
 23 47  1  0  0  0  0
 28 48  1  0  0  0  0
 28 49  1  0  0  0  0
 29 50  1  0  0  0  0
 29 51  1  0  0  0  0
 29 52  1  0  0  0  0
 33 53  1  0  0  0  0
 33 54  1  0  0  0  0
 34 55  1  0  0  0  0
 34 56  1  0  0  0  0
 34 57  1  0  0  0  0
M  END
