
  xtb     01172214383D
 energy: -37.677995869308 gnorm: 0.000653754133 xtb: 6.4.1 (unknown)
 21 21  0     0  0            999 V2000
   -1.3417    1.0560   -0.3664 C   0  0  0  0  0  0  0  0  0  0  0  0
   -0.6523    0.2176    0.7146 C   0  0  0  0  0  0  0  0  0  0  0  0
   -1.6484   -0.7210    1.4027 C   0  0  0  0  0  0  0  0  0  0  0  0
    0.0911    1.0676    1.6973 C   0  0  0  0  0  0  0  0  0  0  0  0
    1.4039    0.7790    1.6347 C   0  0  0  0  0  0  0  0  0  0  0  0
    2.4310    1.3664    2.4010 C   0  0  0  0  0  0  0  0  0  0  0  0
    3.2177    1.8785    3.0557 N   0  0  0  0  0  0  0  0  0  0  0  0
    1.5720   -0.2599    0.6206 C   0  0  0  0  0  0  0  0  0  0  0  0
    2.7269   -0.8609    0.2170 C   0  0  0  0  0  0  0  0  0  0  0  0
    3.9862   -0.5371    0.7606 C   0  0  0  0  0  0  0  0  0  0  0  0
    5.0308   -0.3078    1.1722 N   0  0  0  0  0  0  0  0  0  0  0  0
    2.7159   -1.8562   -0.7850 C   0  0  0  0  0  0  0  0  0  0  0  0
    2.7111   -2.6637   -1.5978 N   0  0  0  0  0  0  0  0  0  0  0  0
    0.3788   -0.5715    0.1007 O   0  0  0  0  0  0  0  0  0  0  0  0
   -0.6198    1.7043   -0.8582 H   0  0  0  0  0  0  0  0  0  0  0  0
   -2.1229    1.6653    0.0784 H   0  0  0  0  0  0  0  0  0  0  0  0
   -1.7791    0.3946   -1.1090 H   0  0  0  0  0  0  0  0  0  0  0  0
   -1.1421   -1.3222    2.1547 H   0  0  0  0  0  0  0  0  0  0  0  0
   -2.0861   -1.3848    0.6624 H   0  0  0  0  0  0  0  0  0  0  0  0
   -2.4349   -0.1431    1.8786 H   0  0  0  0  0  0  0  0  0  0  0  0
   -0.3904    1.7844    2.3337 H   0  0  0  0  0  0  0  0  0  0  0  0
  1  2  1  0  0  0  0
  2  3  1  0  0  0  0
  2  4  1  0  0  0  0
  4  5  2  0  0  0  0
  5  6  1  0  0  0  0
  6  7  3  0  0  0  0
  5  8  1  0  0  0  0
  8  9  2  0  0  0  0
  9 10  1  0  0  0  0
 10 11  3  0  0  0  0
  9 12  1  0  0  0  0
 12 13  3  0  0  0  0
  8 14  1  0  0  0  0
 14  2  1  0  0  0  0
  1 15  1  0  0  0  0
  1 16  1  0  0  0  0
  1 17  1  0  0  0  0
  3 18  1  0  0  0  0
  3 19  1  0  0  0  0
  3 20  1  0  0  0  0
  4 21  1  0  0  0  0
M  END
