
  xtb     01172214383D
 energy: -52.625145926584 gnorm: 0.000471060744 xtb: 6.4.1 (unknown)
 32 33  0     0  0            999 V2000
    1.2854   -4.3031    1.9115 C   0  0  0  0  0  0  0  0  0  0  0  0
    1.7270   -3.5240    0.6784 C   0  0  0  0  0  0  0  0  0  0  0  0
    1.3863   -2.1169    0.7851 N   0  0  0  0  0  0  0  0  0  0  0  0
    2.0972   -1.2006    1.4903 C   0  0  0  0  0  0  0  0  0  0  0  0
    3.2809   -1.3671    2.1639 C   0  0  0  0  0  0  0  0  0  0  0  0
    4.0292   -2.5512    2.2734 C   0  0  0  0  0  0  0  0  0  0  0  0
    4.6888   -3.4823    2.4067 N   0  0  0  0  0  0  0  0  0  0  0  0
    3.8532   -0.2631    2.8302 C   0  0  0  0  0  0  0  0  0  0  0  0
    4.3242    0.6303    3.3739 N   0  0  0  0  0  0  0  0  0  0  0  0
    1.3314    0.3697    1.4505 S   0  0  0  0  0  0  0  0  0  0  0  0
    0.0212   -0.2422    0.4434 C   0  0  0  0  0  0  0  0  0  0  0  0
   -0.9883    0.5571    0.0058 C   0  0  0  0  0  0  0  0  0  0  0  0
   -2.0359    0.0754   -0.8526 C   0  0  0  0  0  0  0  0  0  0  0  0
   -3.0149    0.8756   -1.2954 C   0  0  0  0  0  0  0  0  0  0  0  0
   -3.1426    2.3045   -0.8917 C   0  0  0  0  0  0  0  0  0  0  0  0
   -2.4318    2.5475    0.4361 C   0  0  0  0  0  0  0  0  0  0  0  0
   -1.0050    2.0131    0.3646 C   0  0  0  0  0  0  0  0  0  0  0  0
    0.2206   -1.6628    0.1753 C   0  0  0  0  0  0  0  0  0  0  0  0
   -0.4878   -2.3960   -0.4794 O   0  0  0  0  0  0  0  0  0  0  0  0
    1.5294   -5.3526    1.7780 H   0  0  0  0  0  0  0  0  0  0  0  0
    1.7932   -3.9463    2.8046 H   0  0  0  0  0  0  0  0  0  0  0  0
    0.2107   -4.2081    2.0507 H   0  0  0  0  0  0  0  0  0  0  0  0
    1.1927   -3.8919   -0.2020 H   0  0  0  0  0  0  0  0  0  0  0  0
    2.8017   -3.6236    0.5175 H   0  0  0  0  0  0  0  0  0  0  0  0
   -1.9933   -0.9597   -1.1509 H   0  0  0  0  0  0  0  0  0  0  0  0
   -3.7552    0.4891   -1.9805 H   0  0  0  0  0  0  0  0  0  0  0  0
   -2.6965    2.9313   -1.6727 H   0  0  0  0  0  0  0  0  0  0  0  0
   -4.1962    2.5814   -0.8212 H   0  0  0  0  0  0  0  0  0  0  0  0
   -2.4187    3.6117    0.6739 H   0  0  0  0  0  0  0  0  0  0  0  0
   -2.9702    2.0279    1.2317 H   0  0  0  0  0  0  0  0  0  0  0  0
   -0.4503    2.5599   -0.4058 H   0  0  0  0  0  0  0  0  0  0  0  0
   -0.4884    2.1726    1.3142 H   0  0  0  0  0  0  0  0  0  0  0  0
  1  2  1  0  0  0  0
  2  3  1  0  0  0  0
  3  4  1  0  0  0  0
  4  5  2  0  0  0  0
  5  6  1  0  0  0  0
  6  7  3  0  0  0  0
  5  8  1  0  0  0  0
  8  9  3  0  0  0  0
  4 10  1  0  0  0  0
 10 11  1  0  0  0  0
 11 12  2  0  0  0  0
 12 13  1  0  0  0  0
 13 14  2  0  0  0  0
 14 15  1  0  0  0  0
 15 16  1  0  0  0  0
 16 17  1  0  0  0  0
 11 18  1  0  0  0  0
 18 19  2  0  0  0  0
 18  3  1  0  0  0  0
 17 12  1  0  0  0  0
  1 20  1  0  0  0  0
  1 21  1  0  0  0  0
  1 22  1  0  0  0  0
  2 23  1  0  0  0  0
  2 24  1  0  0  0  0
 13 25  1  0  0  0  0
 14 26  1  0  0  0  0
 15 27  1  0  0  0  0
 15 28  1  0  0  0  0
 16 29  1  0  0  0  0
 16 30  1  0  0  0  0
 17 31  1  0  0  0  0
 17 32  1  0  0  0  0
M  END
