
  xtb     01172214383D
 energy: -56.436274394504 gnorm: 0.000300127069 xtb: 6.4.1 (unknown)
 37 38  0     0  0            999 V2000
   -1.0382   -1.6348    4.4026 C   0  0  0  0  0  0  0  0  0  0  0  0
    0.3357   -1.9296    3.8159 C   0  0  0  0  0  0  0  0  0  0  0  0
    0.5768   -1.1461    2.6086 N   0  0  0  0  0  0  0  0  0  0  0  0
    0.1926   -1.7309    1.4052 C   0  0  0  0  0  0  0  0  0  0  0  0
   -0.2023   -2.8802    1.4075 O   0  0  0  0  0  0  0  0  0  0  0  0
    0.3044   -0.8794    0.2156 C   0  0  0  0  0  0  0  0  0  0  0  0
   -0.4054   -1.1318   -0.9392 C   0  0  0  0  0  0  0  0  0  0  0  0
   -1.3334   -2.2285   -1.0436 C   0  0  0  0  0  0  0  0  0  0  0  0
   -1.9007   -2.5911   -2.2025 C   0  0  0  0  0  0  0  0  0  0  0  0
   -1.6916   -1.8405   -3.4696 C   0  0  0  0  0  0  0  0  0  0  0  0
   -1.4171   -0.3814   -3.1285 C   0  0  0  0  0  0  0  0  0  0  0  0
   -0.2436   -0.2808   -2.1607 C   0  0  0  0  0  0  0  0  0  0  0  0
    1.2183    0.2633    0.2956 C   0  0  0  0  0  0  0  0  0  0  0  0
    1.7048    0.8275   -0.6656 O   0  0  0  0  0  0  0  0  0  0  0  0
    1.4983    0.7334    1.5737 N   0  0  0  0  0  0  0  0  0  0  0  0
    2.2806    1.9614    1.6640 C   0  0  0  0  0  0  0  0  0  0  0  0
    3.7614    1.6622    1.8532 C   0  0  0  0  0  0  0  0  0  0  0  0
    1.1324    0.0942    2.7222 C   0  0  0  0  0  0  0  0  0  0  0  0
    1.3960    0.7778    4.2016 S   0  0  0  0  0  0  0  0  0  0  0  0
   -1.1142   -0.5870    4.6831 H   0  0  0  0  0  0  0  0  0  0  0  0
   -1.8150   -1.8680    3.6781 H   0  0  0  0  0  0  0  0  0  0  0  0
   -1.1916   -2.2441    5.2884 H   0  0  0  0  0  0  0  0  0  0  0  0
    0.4047   -2.9800    3.5272 H   0  0  0  0  0  0  0  0  0  0  0  0
    1.1182   -1.6913    4.5378 H   0  0  0  0  0  0  0  0  0  0  0  0
   -1.5241   -2.8108   -0.1576 H   0  0  0  0  0  0  0  0  0  0  0  0
   -2.5397   -3.4618   -2.2341 H   0  0  0  0  0  0  0  0  0  0  0  0
   -0.8375   -2.2666   -4.0078 H   0  0  0  0  0  0  0  0  0  0  0  0
   -2.5649   -1.9356   -4.1174 H   0  0  0  0  0  0  0  0  0  0  0  0
   -1.1944    0.1906   -4.0300 H   0  0  0  0  0  0  0  0  0  0  0  0
   -2.3077    0.0498   -2.6652 H   0  0  0  0  0  0  0  0  0  0  0  0
    0.6752   -0.6095   -2.6588 H   0  0  0  0  0  0  0  0  0  0  0  0
   -0.0759    0.7609   -1.8860 H   0  0  0  0  0  0  0  0  0  0  0  0
    1.8972    2.5460    2.5020 H   0  0  0  0  0  0  0  0  0  0  0  0
    2.1244    2.5040    0.7303 H   0  0  0  0  0  0  0  0  0  0  0  0
    4.1329    1.0674    1.0221 H   0  0  0  0  0  0  0  0  0  0  0  0
    3.9243    1.1202    2.7818 H   0  0  0  0  0  0  0  0  0  0  0  0
    4.3169    2.5945    1.8930 H   0  0  0  0  0  0  0  0  0  0  0  0
  1  2  1  0  0  0  0
  2  3  1  0  0  0  0
  3  4  1  0  0  0  0
  4  5  2  0  0  0  0
  4  6  1  0  0  0  0
  6  7  2  0  0  0  0
  7  8  1  0  0  0  0
  8  9  2  0  0  0  0
  9 10  1  0  0  0  0
 10 11  1  0  0  0  0
 11 12  1  0  0  0  0
  6 13  1  0  0  0  0
 13 14  2  0  0  0  0
 13 15  1  0  0  0  0
 15 16  1  0  0  0  0
 16 17  1  0  0  0  0
 15 18  1  0  0  0  0
 18 19  2  0  0  0  0
 18  3  1  0  0  0  0
 12  7  1  0  0  0  0
  1 20  1  0  0  0  0
  1 21  1  0  0  0  0
  1 22  1  0  0  0  0
  2 23  1  0  0  0  0
  2 24  1  0  0  0  0
  8 25  1  0  0  0  0
  9 26  1  0  0  0  0
 10 27  1  0  0  0  0
 10 28  1  0  0  0  0
 11 29  1  0  0  0  0
 11 30  1  0  0  0  0
 12 31  1  0  0  0  0
 12 32  1  0  0  0  0
 16 33  1  0  0  0  0
 16 34  1  0  0  0  0
 17 35  1  0  0  0  0
 17 36  1  0  0  0  0
 17 37  1  0  0  0  0
M  END
