
  xtb     01172214423D
 energy: -75.445898301839 gnorm: 0.000761596009 xtb: 6.4.1 (unknown)
 41 45  0     0  0            999 V2000
    3.6435   -5.0103    0.8813 C   0  0  0  0  0  0  0  0  0  0  0  0
    3.7481   -3.9334   -0.1907 C   0  0  0  0  0  0  0  0  0  0  0  0
    2.6998   -2.9280   -0.0296 N   0  0  0  0  0  0  0  0  0  0  0  0
    1.4867   -3.1989   -0.6351 C   0  0  0  0  0  0  0  0  0  0  0  0
    1.3179   -4.2157   -1.2747 O   0  0  0  0  0  0  0  0  0  0  0  0
    0.4317   -2.1835   -0.4607 C   0  0  0  0  0  0  0  0  0  0  0  0
   -0.8017   -2.3779   -1.0530 C   0  0  0  0  0  0  0  0  0  0  0  0
   -1.8197   -1.4361   -0.9098 C   0  0  0  0  0  0  0  0  0  0  0  0
   -1.6064   -0.2908   -0.1676 C   0  0  0  0  0  0  0  0  0  0  0  0
   -0.3571   -0.0735    0.4473 C   0  0  0  0  0  0  0  0  0  0  0  0
   -0.1434    1.0887    1.2023 C   0  0  0  0  0  0  0  0  0  0  0  0
    1.0872    1.2874    1.7959 C   0  0  0  0  0  0  0  0  0  0  0  0
    1.5181    2.6518    2.7507 S   0  0  0  0  0  0  0  0  0  0  0  0
    3.1085    1.9819    2.9739 C   0  0  0  0  0  0  0  0  0  0  0  0
    3.3074    0.7937    2.3654 C   0  0  0  0  0  0  0  0  0  0  0  0
    2.1523    0.3443    1.6629 C   0  0  0  0  0  0  0  0  0  0  0  0
    1.9403   -0.8156    0.9131 C   0  0  0  0  0  0  0  0  0  0  0  0
    0.6863   -1.0263    0.3048 C   0  0  0  0  0  0  0  0  0  0  0  0
    3.0059   -1.8221    0.7490 C   0  0  0  0  0  0  0  0  0  0  0  0
    4.1064   -1.7162    1.2503 O   0  0  0  0  0  0  0  0  0  0  0  0
   -1.1976    2.0910    1.3712 C   0  0  0  0  0  0  0  0  0  0  0  0
   -1.0169    3.0964    2.0333 O   0  0  0  0  0  0  0  0  0  0  0  0
   -2.3941    1.8355    0.7352 N   0  0  0  0  0  0  0  0  0  0  0  0
   -3.4595    2.8205    0.9023 C   0  0  0  0  0  0  0  0  0  0  0  0
   -4.3095    2.5038    2.1257 C   0  0  0  0  0  0  0  0  0  0  0  0
   -2.6866    0.7057   -0.0170 C   0  0  0  0  0  0  0  0  0  0  0  0
   -3.7783    0.5649   -0.5249 O   0  0  0  0  0  0  0  0  0  0  0  0
    3.7451   -4.5691    1.8703 H   0  0  0  0  0  0  0  0  0  0  0  0
    2.6834   -5.5164    0.8119 H   0  0  0  0  0  0  0  0  0  0  0  0
    4.4344   -5.7415    0.7417 H   0  0  0  0  0  0  0  0  0  0  0  0
    3.6267   -4.3734   -1.1820 H   0  0  0  0  0  0  0  0  0  0  0  0
    4.7075   -3.4185   -0.1218 H   0  0  0  0  0  0  0  0  0  0  0  0
   -0.9575   -3.2768   -1.6304 H   0  0  0  0  0  0  0  0  0  0  0  0
   -2.7832   -1.5856   -1.3728 H   0  0  0  0  0  0  0  0  0  0  0  0
    3.8178    2.5313    3.5623 H   0  0  0  0  0  0  0  0  0  0  0  0
    4.2231    0.2336    2.3935 H   0  0  0  0  0  0  0  0  0  0  0  0
   -2.9843    3.7969    1.0115 H   0  0  0  0  0  0  0  0  0  0  0  0
   -4.0703    2.7966   -0.0017 H   0  0  0  0  0  0  0  0  0  0  0  0
   -5.0943    3.2479    2.2264 H   0  0  0  0  0  0  0  0  0  0  0  0
   -4.7687    1.5235    2.0210 H   0  0  0  0  0  0  0  0  0  0  0  0
   -3.6966    2.5182    3.0240 H   0  0  0  0  0  0  0  0  0  0  0  0
  1  2  1  0  0  0  0
  2  3  1  0  0  0  0
  3  4  1  0  0  0  0
  4  5  2  0  0  0  0
  4  6  1  0  0  0  0
  6  7  1  0  0  0  0
  7  8  2  0  0  0  0
  8  9  1  0  0  0  0
  9 10  2  0  0  0  0
 10 11  1  0  0  0  0
 11 12  2  0  0  0  0
 12 13  1  0  0  0  0
 13 14  1  0  0  0  0
 14 15  2  0  0  0  0
 15 16  1  0  0  0  0
 16 17  2  0  0  0  0
 17 18  1  0  0  0  0
 17 19  1  0  0  0  0
 19 20  2  0  0  0  0
 11 21  1  0  0  0  0
 21 22  2  0  0  0  0
 21 23  1  0  0  0  0
 23 24  1  0  0  0  0
 24 25  1  0  0  0  0
 23 26  1  0  0  0  0
 26 27  2  0  0  0  0
 19  3  1  0  0  0  0
 18  6  2  0  0  0  0
 26  9  1  0  0  0  0
 18 10  1  0  0  0  0
 16 12  1  0  0  0  0
  1 28  1  0  0  0  0
  1 29  1  0  0  0  0
  1 30  1  0  0  0  0
  2 31  1  0  0  0  0
  2 32  1  0  0  0  0
  7 33  1  0  0  0  0
  8 34  1  0  0  0  0
 14 35  1  0  0  0  0
 15 36  1  0  0  0  0
 24 37  1  0  0  0  0
 24 38  1  0  0  0  0
 25 39  1  0  0  0  0
 25 40  1  0  0  0  0
 25 41  1  0  0  0  0
M  END
