
  xtb     01172214423D
 energy: -101.438780458260 gnorm: 0.000323706753 xtb: 6.4.1 (unknown)
 64 71  0     0  0            999 V2000
    3.5512    2.2151    6.7549 C   0  0  0  0  0  0  0  0  0  0  0  0
    4.4901    2.5169    5.5867 C   0  0  0  0  0  0  0  0  0  0  0  0
    4.4439    1.4220    4.5705 C   0  0  0  0  0  0  0  0  0  0  0  0
    5.4320    0.5165    4.3445 C   0  0  0  0  0  0  0  0  0  0  0  0
    5.0561   -0.6490    3.1167 S   0  0  0  0  0  0  0  0  0  0  0  0
    3.5035    0.0806    2.8787 C   0  0  0  0  0  0  0  0  0  0  0  0
    3.3349    1.1717    3.7263 C   0  0  0  0  0  0  0  0  0  0  0  0
    1.7966    1.9723    3.5234 S   0  0  0  0  0  0  0  0  0  0  0  0
    1.3899    0.8282    2.2868 C   0  0  0  0  0  0  0  0  0  0  0  0
    0.3547    0.5717    1.3747 C   0  0  0  0  0  0  0  0  0  0  0  0
   -0.8302    1.2759    1.0890 C   0  0  0  0  0  0  0  0  0  0  0  0
   -1.3802    2.3744    1.6120 N   0  0  0  0  0  0  0  0  0  0  0  0
   -2.4501    2.5720    0.8800 N   0  0  0  0  0  0  0  0  0  0  0  0
   -3.3578    3.6493    1.1471 C   0  0  0  0  0  0  0  0  0  0  0  0
   -4.5377    3.1637    1.9841 C   0  0  0  0  0  0  0  0  0  0  0  0
   -2.6717    1.7087   -0.0818 N   0  0  0  0  0  0  0  0  0  0  0  0
   -1.6519    0.8525    0.0124 C   0  0  0  0  0  0  0  0  0  0  0  0
   -1.3221   -0.3203   -0.6922 C   0  0  0  0  0  0  0  0  0  0  0  0
   -2.0014   -1.0172   -1.7031 C   0  0  0  0  0  0  0  0  0  0  0  0
   -3.4421   -0.8734   -2.6550 S   0  0  0  0  0  0  0  0  0  0  0  0
   -3.0885   -2.4211   -3.3813 C   0  0  0  0  0  0  0  0  0  0  0  0
   -3.7571   -3.1973   -4.3588 C   0  0  0  0  0  0  0  0  0  0  0  0
   -5.0419   -2.7945   -5.0074 C   0  0  0  0  0  0  0  0  0  0  0  0
   -6.2071   -2.9025   -4.0237 C   0  0  0  0  0  0  0  0  0  0  0  0
   -3.0844   -4.3548   -4.5934 C   0  0  0  0  0  0  0  0  0  0  0  0
   -1.6358   -4.5330   -3.6569 S   0  0  0  0  0  0  0  0  0  0  0  0
   -1.9162   -2.9992   -2.9030 C   0  0  0  0  0  0  0  0  0  0  0  0
   -1.2854   -2.1866   -1.9457 C   0  0  0  0  0  0  0  0  0  0  0  0
   -0.1792   -2.2314   -1.1411 N   0  0  0  0  0  0  0  0  0  0  0  0
    0.5749   -3.4589   -1.0589 C   0  0  0  0  0  0  0  0  0  0  0  0
    1.5163   -3.6393   -2.2505 C   0  0  0  0  0  0  0  0  0  0  0  0
   -0.1642   -1.0815   -0.3626 C   0  0  0  0  0  0  0  0  0  0  0  0
    0.7342   -0.5760    0.6209 C   0  0  0  0  0  0  0  0  0  0  0  0
    1.9929   -0.9699    1.0560 N   0  0  0  0  0  0  0  0  0  0  0  0
    2.9651   -1.8769    0.4951 C   0  0  0  0  0  0  0  0  0  0  0  0
    3.1711   -3.1156    1.3681 C   0  0  0  0  0  0  0  0  0  0  0  0
    2.3809   -0.1230    2.0584 C   0  0  0  0  0  0  0  0  0  0  0  0
    3.8366    1.2838    7.2396 H   0  0  0  0  0  0  0  0  0  0  0  0
    3.5936    3.0163    7.4885 H   0  0  0  0  0  0  0  0  0  0  0  0
    2.5274    2.1226    6.4008 H   0  0  0  0  0  0  0  0  0  0  0  0
    4.1832    3.4523    5.1127 H   0  0  0  0  0  0  0  0  0  0  0  0
    5.5125    2.6308    5.9515 H   0  0  0  0  0  0  0  0  0  0  0  0
    6.3882    0.4538    4.8250 H   0  0  0  0  0  0  0  0  0  0  0  0
   -2.7965    4.4186    1.6802 H   0  0  0  0  0  0  0  0  0  0  0  0
   -3.7092    4.0359    0.1877 H   0  0  0  0  0  0  0  0  0  0  0  0
   -4.1872    2.7774    2.9381 H   0  0  0  0  0  0  0  0  0  0  0  0
   -5.2253    3.9844    2.1684 H   0  0  0  0  0  0  0  0  0  0  0  0
   -5.0651    2.3729    1.4564 H   0  0  0  0  0  0  0  0  0  0  0  0
   -5.2273   -3.4313   -5.8743 H   0  0  0  0  0  0  0  0  0  0  0  0
   -4.9551   -1.7597   -5.3475 H   0  0  0  0  0  0  0  0  0  0  0  0
   -6.0325   -2.2631   -3.1619 H   0  0  0  0  0  0  0  0  0  0  0  0
   -7.1333   -2.5942   -4.5023 H   0  0  0  0  0  0  0  0  0  0  0  0
   -6.3181   -3.9282   -3.6784 H   0  0  0  0  0  0  0  0  0  0  0  0
   -3.3448   -5.1394   -5.2760 H   0  0  0  0  0  0  0  0  0  0  0  0
   -0.1429   -4.2877   -1.0594 H   0  0  0  0  0  0  0  0  0  0  0  0
    1.1105   -3.4887   -0.1146 H   0  0  0  0  0  0  0  0  0  0  0  0
    0.9420   -3.7870   -3.1609 H   0  0  0  0  0  0  0  0  0  0  0  0
    2.1518   -2.7681   -2.3948 H   0  0  0  0  0  0  0  0  0  0  0  0
    2.1442   -4.5121   -2.0944 H   0  0  0  0  0  0  0  0  0  0  0  0
    2.6690   -2.1415   -0.5158 H   0  0  0  0  0  0  0  0  0  0  0  0
    3.9187   -1.3397    0.4312 H   0  0  0  0  0  0  0  0  0  0  0  0
    3.8245   -3.8191    0.8595 H   0  0  0  0  0  0  0  0  0  0  0  0
    3.6340   -2.8353    2.3102 H   0  0  0  0  0  0  0  0  0  0  0  0
    2.2280   -3.6090    1.5936 H   0  0  0  0  0  0  0  0  0  0  0  0
  1  2  1  0  0  0  0
  2  3  1  0  0  0  0
  3  4  2  0  0  0  0
  4  5  1  0  0  0  0
  5  6  1  0  0  0  0
  6  7  2  0  0  0  0
  7  8  1  0  0  0  0
  8  9  1  0  0  0  0
  9 10  1  0  0  0  0
 10 11  1  0  0  0  0
 11 12  2  0  0  0  0
 12 13  1  0  0  0  0
 13 14  1  0  0  0  0
 14 15  1  0  0  0  0
 13 16  1  0  0  0  0
 16 17  2  0  0  0  0
 17 18  1  0  0  0  0
 18 19  1  0  0  0  0
 19 20  1  0  0  0  0
 20 21  1  0  0  0  0
 21 22  1  0  0  0  0
 22 23  1  0  0  0  0
 23 24  1  0  0  0  0
 22 25  2  0  0  0  0
 25 26  1  0  0  0  0
 26 27  1  0  0  0  0
 27 28  1  0  0  0  0
 28 29  1  0  0  0  0
 29 30  1  0  0  0  0
 30 31  1  0  0  0  0
 29 32  1  0  0  0  0
 32 33  1  0  0  0  0
 33 34  1  0  0  0  0
 34 35  1  0  0  0  0
 35 36  1  0  0  0  0
 34 37  1  0  0  0  0
  7  3  1  0  0  0  0
 37  9  2  0  0  0  0
 37  6  1  0  0  0  0
 33 10  2  0  0  0  0
 17 11  1  0  0  0  0
 32 18  2  0  0  0  0
 28 19  2  0  0  0  0
 27 21  2  0  0  0  0
  1 38  1  0  0  0  0
  1 39  1  0  0  0  0
  1 40  1  0  0  0  0
  2 41  1  0  0  0  0
  2 42  1  0  0  0  0
  4 43  1  0  0  0  0
 14 44  1  0  0  0  0
 14 45  1  0  0  0  0
 15 46  1  0  0  0  0
 15 47  1  0  0  0  0
 15 48  1  0  0  0  0
 23 49  1  0  0  0  0
 23 50  1  0  0  0  0
 24 51  1  0  0  0  0
 24 52  1  0  0  0  0
 24 53  1  0  0  0  0
 25 54  1  0  0  0  0
 30 55  1  0  0  0  0
 30 56  1  0  0  0  0
 31 57  1  0  0  0  0
 31 58  1  0  0  0  0
 31 59  1  0  0  0  0
 35 60  1  0  0  0  0
 35 61  1  0  0  0  0
 36 62  1  0  0  0  0
 36 63  1  0  0  0  0
 36 64  1  0  0  0  0
M  END
