
  xtb     01172214433D
 energy: -30.429716226252 gnorm: 0.000356441509 xtb: 6.4.1 (unknown)
 18 19  0     0  0            999 V2000
    2.4367   -1.8223    1.5995 C   0  0  0  0  0  0  0  0  0  0  0  0
    1.5965   -2.6689    2.8293 S   0  0  0  0  0  0  0  0  0  0  0  0
    0.1773   -1.7399    2.5534 C   0  0  0  0  0  0  0  0  0  0  0  0
    0.3358   -0.8372    1.5458 C   0  0  0  0  0  0  0  0  0  0  0  0
    1.6579   -0.8867    0.9894 C   0  0  0  0  0  0  0  0  0  0  0  0
    2.1031   -0.1708   -0.0943 O   0  0  0  0  0  0  0  0  0  0  0  0
    2.1181    1.2376    0.0376 C   0  0  0  0  0  0  0  0  0  0  0  0
    0.8174    1.8199    0.6090 C   0  0  0  0  0  0  0  0  0  0  0  0
   -0.3935    0.9734    0.2098 C   0  0  0  0  0  0  0  0  0  0  0  0
   -0.6888   -0.0225    1.1711 O   0  0  0  0  0  0  0  0  0  0  0  0
    3.4496   -2.0727    1.3591 H   0  0  0  0  0  0  0  0  0  0  0  0
   -0.7080   -1.9165    3.1277 H   0  0  0  0  0  0  0  0  0  0  0  0
    2.2808    1.5956   -0.9825 H   0  0  0  0  0  0  0  0  0  0  0  0
    2.9719    1.5460    0.6584 H   0  0  0  0  0  0  0  0  0  0  0  0
    0.7005    2.8416    0.2489 H   0  0  0  0  0  0  0  0  0  0  0  0
    0.8628    1.8496    1.7004 H   0  0  0  0  0  0  0  0  0  0  0  0
   -1.2996    1.5817    0.1710 H   0  0  0  0  0  0  0  0  0  0  0  0
   -0.2301    0.5152   -0.7745 H   0  0  0  0  0  0  0  0  0  0  0  0
  1  2  1  0  0  0  0
  2  3  1  0  0  0  0
  3  4  2  0  0  0  0
  4  5  1  0  0  0  0
  5  6  1  0  0  0  0
  6  7  1  0  0  0  0
  7  8  1  0  0  0  0
  8  9  1  0  0  0  0
  9 10  1  0  0  0  0
  5  1  2  0  0  0  0
 10  4  1  0  0  0  0
  1 11  1  0  0  0  0
  3 12  1  0  0  0  0
  7 13  1  0  0  0  0
  7 14  1  0  0  0  0
  8 15  1  0  0  0  0
  8 16  1  0  0  0  0
  9 17  1  0  0  0  0
  9 18  1  0  0  0  0
M  END
