
  xtb     01172214433D
 energy: -32.649818896381 gnorm: 0.000204109740 xtb: 6.4.1 (unknown)
 16 16  0     0  0            999 V2000
    0.2361   -0.8292    3.8459 N   0  0  0  0  0  0  0  0  0  0  0  0
    1.0036   -1.0197    3.0147 C   0  0  0  0  0  0  0  0  0  0  0  0
    1.9670   -1.3000    2.0263 C   0  0  0  0  0  0  0  0  0  0  0  0
    2.8513   -2.3514    2.3621 C   0  0  0  0  0  0  0  0  0  0  0  0
    3.5588   -3.2047    2.6522 N   0  0  0  0  0  0  0  0  0  0  0  0
    2.0826   -0.6498    0.8214 C   0  0  0  0  0  0  0  0  0  0  0  0
    3.1153   -1.0971   -0.0471 C   0  0  0  0  0  0  0  0  0  0  0  0
    3.9445   -1.4471   -0.7546 N   0  0  0  0  0  0  0  0  0  0  0  0
    1.2748    0.4284    0.3460 C   0  0  0  0  0  0  0  0  0  0  0  0
    0.2469    1.1078    0.9697 C   0  0  0  0  0  0  0  0  0  0  0  0
   -0.3002    2.1138    0.1662 C   0  0  0  0  0  0  0  0  0  0  0  0
    0.3021    2.2009   -1.0575 C   0  0  0  0  0  0  0  0  0  0  0  0
    1.5545    1.0615   -1.2602 S   0  0  0  0  0  0  0  0  0  0  0  0
   -0.0945    0.8920    1.9651 H   0  0  0  0  0  0  0  0  0  0  0  0
   -1.1081    2.7506    0.4773 H   0  0  0  0  0  0  0  0  0  0  0  0
    0.0731    2.8797   -1.8555 H   0  0  0  0  0  0  0  0  0  0  0  0
  1  2  3  0  0  0  0
  2  3  1  0  0  0  0
  3  4  1  0  0  0  0
  4  5  3  0  0  0  0
  3  6  2  0  0  0  0
  6  7  1  0  0  0  0
  7  8  3  0  0  0  0
  6  9  1  0  0  0  0
  9 10  2  0  0  0  0
 10 11  1  0  0  0  0
 11 12  2  0  0  0  0
 12 13  1  0  0  0  0
 13  9  1  0  0  0  0
 10 14  1  0  0  0  0
 11 15  1  0  0  0  0
 12 16  1  0  0  0  0
M  END
