
  xtb     01172214433D
 energy: -42.182471985539 gnorm: 0.000577271917 xtb: 6.4.1 (unknown)
 19 20  0     0  0            999 V2000
   -1.8861   -0.7559    0.8828 C   0  0  0  0  0  0  0  0  0  0  0  0
   -0.5568   -0.7799    0.9792 C   0  0  0  0  0  0  0  0  0  0  0  0
    0.1812   -2.0239    1.4031 C   0  0  0  0  0  0  0  0  0  0  0  0
   -0.3107   -3.0868    1.6897 O   0  0  0  0  0  0  0  0  0  0  0  0
    1.5825   -1.6243    1.3770 C   0  0  0  0  0  0  0  0  0  0  0  0
    3.0795   -2.3824    1.7057 S   0  0  0  0  0  0  0  0  0  0  0  0
    3.8992   -0.8973    1.3140 C   0  0  0  0  0  0  0  0  0  0  0  0
    5.7659   -0.8126    1.4140 Br  0  0  0  0  0  0  0  0  0  0  0  0
    3.0686    0.1268    0.9501 C   0  0  0  0  0  0  0  0  0  0  0  0
    1.7271   -0.2950    0.9868 C   0  0  0  0  0  0  0  0  0  0  0  0
    0.4259    0.2801    0.7263 C   0  0  0  0  0  0  0  0  0  0  0  0
    0.1865    1.5607    0.3245 C   0  0  0  0  0  0  0  0  0  0  0  0
   -1.0941    2.1004    0.0762 C   0  0  0  0  0  0  0  0  0  0  0  0
   -2.1108    2.5849   -0.1385 N   0  0  0  0  0  0  0  0  0  0  0  0
    1.2347    2.4859    0.1165 C   0  0  0  0  0  0  0  0  0  0  0  0
    2.0763    3.2450   -0.0556 N   0  0  0  0  0  0  0  0  0  0  0  0
   -2.4476    0.1119    0.5846 H   0  0  0  0  0  0  0  0  0  0  0  0
   -2.4378   -1.6527    1.1162 H   0  0  0  0  0  0  0  0  0  0  0  0
    3.4148    1.1070    0.6785 H   0  0  0  0  0  0  0  0  0  0  0  0
  1  2  2  0  0  0  0
  2  3  1  0  0  0  0
  3  4  2  0  0  0  0
  3  5  1  0  0  0  0
  5  6  1  0  0  0  0
  6  7  1  0  0  0  0
  7  8  1  0  0  0  0
  7  9  2  0  0  0  0
  9 10  1  0  0  0  0
 10 11  1  0  0  0  0
 11 12  2  0  0  0  0
 12 13  1  0  0  0  0
 13 14  3  0  0  0  0
 12 15  1  0  0  0  0
 15 16  3  0  0  0  0
 11  2  1  0  0  0  0
 10  5  2  0  0  0  0
  1 17  1  0  0  0  0
  1 18  1  0  0  0  0
  9 19  1  0  0  0  0
M  END
