
  xtb     01172214433D
 energy: -73.406895516331 gnorm: 0.000504957607 xtb: 6.4.1 (unknown)
 50 54  0     0  0            999 V2000
    6.5851   -4.8448    1.7385 C   0  0  0  0  0  0  0  0  0  0  0  0
    5.2840   -5.5313    1.3177 C   0  0  0  0  0  0  0  0  0  0  0  0
    4.1858   -4.5213    1.1476 C   0  0  0  0  0  0  0  0  0  0  0  0
    3.2961   -4.2532    2.1795 C   0  0  0  0  0  0  0  0  0  0  0  0
    2.3071   -3.2996    2.0342 C   0  0  0  0  0  0  0  0  0  0  0  0
    2.1917   -2.5785    0.8504 C   0  0  0  0  0  0  0  0  0  0  0  0
    1.1371   -1.5662    0.6919 C   0  0  0  0  0  0  0  0  0  0  0  0
    1.4317   -0.2464    0.3271 C   0  0  0  0  0  0  0  0  0  0  0  0
    2.7122    0.3399    0.0895 C   0  0  0  0  0  0  0  0  0  0  0  0
    2.6378    1.6414   -0.2504 C   0  0  0  0  0  0  0  0  0  0  0  0
    1.0192    2.2573   -0.2989 S   0  0  0  0  0  0  0  0  0  0  0  0
    0.3896    0.6971    0.1707 C   0  0  0  0  0  0  0  0  0  0  0  0
   -0.9514    0.3860    0.3433 C   0  0  0  0  0  0  0  0  0  0  0  0
   -2.0095    1.3864    0.1393 C   0  0  0  0  0  0  0  0  0  0  0  0
   -1.9792    2.5969    0.8238 C   0  0  0  0  0  0  0  0  0  0  0  0
   -2.9722    3.5371    0.6274 C   0  0  0  0  0  0  0  0  0  0  0  0
   -4.0117    3.3018   -0.2627 C   0  0  0  0  0  0  0  0  0  0  0  0
   -5.1111    4.3075   -0.4493 C   0  0  0  0  0  0  0  0  0  0  0  0
   -6.3103    3.9635    0.4366 C   0  0  0  0  0  0  0  0  0  0  0  0
   -4.0362    2.0934   -0.9485 C   0  0  0  0  0  0  0  0  0  0  0  0
   -3.0520    1.1450   -0.7507 C   0  0  0  0  0  0  0  0  0  0  0  0
   -1.2454   -0.9319    0.7152 C   0  0  0  0  0  0  0  0  0  0  0  0
   -2.5236   -1.5106    0.9822 C   0  0  0  0  0  0  0  0  0  0  0  0
   -2.4499   -2.8144    1.3131 C   0  0  0  0  0  0  0  0  0  0  0  0
   -0.8333   -3.4368    1.3368 S   0  0  0  0  0  0  0  0  0  0  0  0
   -0.2019   -1.8708    0.8894 C   0  0  0  0  0  0  0  0  0  0  0  0
    3.0841   -2.8414   -0.1847 C   0  0  0  0  0  0  0  0  0  0  0  0
    4.0646   -3.8025   -0.0355 C   0  0  0  0  0  0  0  0  0  0  0  0
    7.3788   -5.5776    1.8652 H   0  0  0  0  0  0  0  0  0  0  0  0
    6.4464   -4.3163    2.6792 H   0  0  0  0  0  0  0  0  0  0  0  0
    6.8948   -4.1244    0.9846 H   0  0  0  0  0  0  0  0  0  0  0  0
    5.0001   -6.2618    2.0777 H   0  0  0  0  0  0  0  0  0  0  0  0
    5.4465   -6.0624    0.3773 H   0  0  0  0  0  0  0  0  0  0  0  0
    3.3766   -4.8001    3.1081 H   0  0  0  0  0  0  0  0  0  0  0  0
    1.6275   -3.0985    2.8492 H   0  0  0  0  0  0  0  0  0  0  0  0
    3.6348   -0.2038    0.1843 H   0  0  0  0  0  0  0  0  0  0  0  0
    3.4442    2.3108   -0.4794 H   0  0  0  0  0  0  0  0  0  0  0  0
   -1.1815    2.7928    1.5249 H   0  0  0  0  0  0  0  0  0  0  0  0
   -2.9378    4.4699    1.1720 H   0  0  0  0  0  0  0  0  0  0  0  0
   -4.7479    5.3045   -0.1925 H   0  0  0  0  0  0  0  0  0  0  0  0
   -5.4286    4.3184   -1.4943 H   0  0  0  0  0  0  0  0  0  0  0  0
   -6.6986    2.9793    0.1839 H   0  0  0  0  0  0  0  0  0  0  0  0
   -7.1045    4.6946    0.3036 H   0  0  0  0  0  0  0  0  0  0  0  0
   -6.0165    3.9560    1.4840 H   0  0  0  0  0  0  0  0  0  0  0  0
   -4.8341    1.8964   -1.6508 H   0  0  0  0  0  0  0  0  0  0  0  0
   -3.0743    0.2172   -1.3042 H   0  0  0  0  0  0  0  0  0  0  0  0
   -3.4427   -0.9550    0.9325 H   0  0  0  0  0  0  0  0  0  0  0  0
   -3.2550   -3.4793    1.5592 H   0  0  0  0  0  0  0  0  0  0  0  0
    2.9906   -2.3027   -1.1169 H   0  0  0  0  0  0  0  0  0  0  0  0
    4.7441   -4.0033   -0.8519 H   0  0  0  0  0  0  0  0  0  0  0  0
  1  2  1  0  0  0  0
  2  3  1  0  0  0  0
  3  4  2  0  0  0  0
  4  5  1  0  0  0  0
  5  6  2  0  0  0  0
  6  7  1  0  0  0  0
  7  8  2  0  0  0  0
  8  9  1  0  0  0  0
  9 10  2  0  0  0  0
 10 11  1  0  0  0  0
 11 12  1  0  0  0  0
 12 13  2  0  0  0  0
 13 14  1  0  0  0  0
 14 15  2  0  0  0  0
 15 16  1  0  0  0  0
 16 17  2  0  0  0  0
 17 18  1  0  0  0  0
 18 19  1  0  0  0  0
 17 20  1  0  0  0  0
 20 21  2  0  0  0  0
 13 22  1  0  0  0  0
 22 23  1  0  0  0  0
 23 24  2  0  0  0  0
 24 25  1  0  0  0  0
 25 26  1  0  0  0  0
  6 27  1  0  0  0  0
 27 28  2  0  0  0  0
 28  3  1  0  0  0  0
 26  7  1  0  0  0  0
 12  8  1  0  0  0  0
 21 14  1  0  0  0  0
 26 22  2  0  0  0  0
  1 29  1  0  0  0  0
  1 30  1  0  0  0  0
  1 31  1  0  0  0  0
  2 32  1  0  0  0  0
  2 33  1  0  0  0  0
  4 34  1  0  0  0  0
  5 35  1  0  0  0  0
  9 36  1  0  0  0  0
 10 37  1  0  0  0  0
 15 38  1  0  0  0  0
 16 39  1  0  0  0  0
 18 40  1  0  0  0  0
 18 41  1  0  0  0  0
 19 42  1  0  0  0  0
 19 43  1  0  0  0  0
 19 44  1  0  0  0  0
 20 45  1  0  0  0  0
 21 46  1  0  0  0  0
 23 47  1  0  0  0  0
 24 48  1  0  0  0  0
 27 49  1  0  0  0  0
 28 50  1  0  0  0  0
M  END
