
  xtb     01172214433D
 energy: -162.067577898813 gnorm: 0.000413853611 xtb: 6.4.1 (unknown)
102112  0     0  0            999 V2000
    5.0363    1.8669    5.4901 C   0  0  0  0  0  0  0  0  0  0  0  0
    5.7544    2.3510    4.2331 C   0  0  0  0  0  0  0  0  0  0  0  0
    6.1550    1.2898    3.3917 O   0  0  0  0  0  0  0  0  0  0  0  0
    5.2339    0.6523    2.6169 C   0  0  0  0  0  0  0  0  0  0  0  0
    3.9010    1.0157    2.4695 C   0  0  0  0  0  0  0  0  0  0  0  0
    3.0706    0.2917    1.6292 C   0  0  0  0  0  0  0  0  0  0  0  0
    3.5455   -0.7958    0.9160 C   0  0  0  0  0  0  0  0  0  0  0  0
    2.6358   -1.6493    0.0499 C   0  0  0  0  0  0  0  0  0  0  0  0
    3.3012   -2.0487   -1.2495 C   0  0  0  0  0  0  0  0  0  0  0  0
    3.1016   -3.3006   -1.8063 C   0  0  0  0  0  0  0  0  0  0  0  0
    3.6786   -3.6493   -3.0164 C   0  0  0  0  0  0  0  0  0  0  0  0
    4.4654   -2.7311   -3.7010 C   0  0  0  0  0  0  0  0  0  0  0  0
    5.0813   -2.9564   -4.8916 O   0  0  0  0  0  0  0  0  0  0  0  0
    4.9341   -4.2168   -5.5134 C   0  0  0  0  0  0  0  0  0  0  0  0
    5.7112   -4.1786   -6.8198 C   0  0  0  0  0  0  0  0  0  0  0  0
    4.6589   -1.4637   -3.1478 C   0  0  0  0  0  0  0  0  0  0  0  0
    4.0847   -1.1301   -1.9421 C   0  0  0  0  0  0  0  0  0  0  0  0
    1.2981   -0.9917   -0.2503 C   0  0  0  0  0  0  0  0  0  0  0  0
    1.0501    0.0970   -1.0543 C   0  0  0  0  0  0  0  0  0  0  0  0
   -0.2719    0.5130   -1.1699 C   0  0  0  0  0  0  0  0  0  0  0  0
   -1.3225   -0.1443   -0.4920 C   0  0  0  0  0  0  0  0  0  0  0  0
   -1.0752   -1.2380    0.3062 C   0  0  0  0  0  0  0  0  0  0  0  0
    0.2450   -1.6630    0.4106 C   0  0  0  0  0  0  0  0  0  0  0  0
    0.8321   -2.7648    1.1152 C   0  0  0  0  0  0  0  0  0  0  0  0
    0.2397   -4.0333    2.1380 S   0  0  0  0  0  0  0  0  0  0  0  0
    1.8601   -4.6429    2.2923 C   0  0  0  0  0  0  0  0  0  0  0  0
    2.4330   -5.7359    2.9707 C   0  0  0  0  0  0  0  0  0  0  0  0
    3.7743   -5.7912    2.7673 C   0  0  0  0  0  0  0  0  0  0  0  0
    4.3802   -4.5235    1.7518 S   0  0  0  0  0  0  0  0  0  0  0  0
    2.7877   -3.8790    1.5801 C   0  0  0  0  0  0  0  0  0  0  0  0
    2.1934   -2.8090    0.9023 C   0  0  0  0  0  0  0  0  0  0  0  0
   -2.6549    0.5370   -0.7633 C   0  0  0  0  0  0  0  0  0  0  0  0
   -3.2064    1.0411    0.5567 C   0  0  0  0  0  0  0  0  0  0  0  0
   -3.9853    0.2077    1.3539 C   0  0  0  0  0  0  0  0  0  0  0  0
   -4.4538    0.6385    2.5749 C   0  0  0  0  0  0  0  0  0  0  0  0
   -4.1527    1.9200    3.0405 C   0  0  0  0  0  0  0  0  0  0  0  0
   -4.6673    2.2467    4.2559 O   0  0  0  0  0  0  0  0  0  0  0  0
   -4.3949    3.5252    4.7926 C   0  0  0  0  0  0  0  0  0  0  0  0
   -5.0775    3.6126    6.1486 C   0  0  0  0  0  0  0  0  0  0  0  0
   -3.3675    2.7524    2.2523 C   0  0  0  0  0  0  0  0  0  0  0  0
   -2.8997    2.3071    1.0270 C   0  0  0  0  0  0  0  0  0  0  0  0
   -3.6578   -0.3262   -1.5028 C   0  0  0  0  0  0  0  0  0  0  0  0
   -4.9748    0.0989   -1.5999 C   0  0  0  0  0  0  0  0  0  0  0  0
   -5.9160   -0.6301   -2.3035 C   0  0  0  0  0  0  0  0  0  0  0  0
   -5.5483   -1.8128   -2.9364 C   0  0  0  0  0  0  0  0  0  0  0  0
   -6.3708   -2.6149   -3.6681 O   0  0  0  0  0  0  0  0  0  0  0  0
   -7.7545   -2.3373   -3.7253 C   0  0  0  0  0  0  0  0  0  0  0  0
   -8.4883   -2.7335   -2.4469 C   0  0  0  0  0  0  0  0  0  0  0  0
   -4.2199   -2.2321   -2.8539 C   0  0  0  0  0  0  0  0  0  0  0  0
   -3.2879   -1.4967   -2.1530 C   0  0  0  0  0  0  0  0  0  0  0  0
   -2.2222    1.6437   -1.6884 C   0  0  0  0  0  0  0  0  0  0  0  0
   -0.8621    1.5920   -1.9063 C   0  0  0  0  0  0  0  0  0  0  0  0
   -0.2753    2.8154   -2.9850 S   0  0  0  0  0  0  0  0  0  0  0  0
   -1.8965    3.4175   -3.1561 C   0  0  0  0  0  0  0  0  0  0  0  0
   -2.4724    4.4794   -3.8800 C   0  0  0  0  0  0  0  0  0  0  0  0
   -3.8125    4.5448   -3.6732 C   0  0  0  0  0  0  0  0  0  0  0  0
   -4.4131    3.3235   -2.5989 S   0  0  0  0  0  0  0  0  0  0  0  0
   -2.8199    2.6860   -2.4056 C   0  0  0  0  0  0  0  0  0  0  0  0
    4.8787   -1.1642    1.0731 C   0  0  0  0  0  0  0  0  0  0  0  0
    5.7108   -0.4514    1.9060 C   0  0  0  0  0  0  0  0  0  0  0  0
    4.1186    1.3424    5.2352 H   0  0  0  0  0  0  0  0  0  0  0  0
    5.6790    1.1845    6.0406 H   0  0  0  0  0  0  0  0  0  0  0  0
    4.7948    2.7153    6.1247 H   0  0  0  0  0  0  0  0  0  0  0  0
    5.1355    3.0708    3.6829 H   0  0  0  0  0  0  0  0  0  0  0  0
    6.6904    2.8451    4.5091 H   0  0  0  0  0  0  0  0  0  0  0  0
    3.4863    1.8596    2.9982 H   0  0  0  0  0  0  0  0  0  0  0  0
    2.0362    0.5885    1.5364 H   0  0  0  0  0  0  0  0  0  0  0  0
    2.4875   -4.0266   -1.2936 H   0  0  0  0  0  0  0  0  0  0  0  0
    3.5042   -4.6381   -3.4109 H   0  0  0  0  0  0  0  0  0  0  0  0
    3.8721   -4.4199   -5.7099 H   0  0  0  0  0  0  0  0  0  0  0  0
    5.3279   -5.0081   -4.8602 H   0  0  0  0  0  0  0  0  0  0  0  0
    5.3207   -3.3914   -7.4587 H   0  0  0  0  0  0  0  0  0  0  0  0
    5.6231   -5.1323   -7.3323 H   0  0  0  0  0  0  0  0  0  0  0  0
    6.7595   -3.9740   -6.6211 H   0  0  0  0  0  0  0  0  0  0  0  0
    5.2690   -0.7574   -3.6884 H   0  0  0  0  0  0  0  0  0  0  0  0
    4.2551   -0.1490   -1.5239 H   0  0  0  0  0  0  0  0  0  0  0  0
    1.8415    0.6128   -1.5757 H   0  0  0  0  0  0  0  0  0  0  0  0
   -1.8666   -1.7541    0.8275 H   0  0  0  0  0  0  0  0  0  0  0  0
    1.8810   -6.4355    3.5707 H   0  0  0  0  0  0  0  0  0  0  0  0
    4.4683   -6.5094    3.1565 H   0  0  0  0  0  0  0  0  0  0  0  0
   -4.2354   -0.7840    1.0071 H   0  0  0  0  0  0  0  0  0  0  0  0
   -5.0608   -0.0017    3.1954 H   0  0  0  0  0  0  0  0  0  0  0  0
   -3.3103    3.6644    4.9048 H   0  0  0  0  0  0  0  0  0  0  0  0
   -4.7813    4.3063    4.1225 H   0  0  0  0  0  0  0  0  0  0  0  0
   -6.1487    3.4727    6.0338 H   0  0  0  0  0  0  0  0  0  0  0  0
   -4.6958    2.8360    6.8056 H   0  0  0  0  0  0  0  0  0  0  0  0
   -4.8893    4.5845    6.5959 H   0  0  0  0  0  0  0  0  0  0  0  0
   -3.1102    3.7485    2.5764 H   0  0  0  0  0  0  0  0  0  0  0  0
   -2.2859    2.9689    0.4338 H   0  0  0  0  0  0  0  0  0  0  0  0
   -5.2774    1.0137   -1.1114 H   0  0  0  0  0  0  0  0  0  0  0  0
   -6.9264   -0.2560   -2.3513 H   0  0  0  0  0  0  0  0  0  0  0  0
   -7.9294   -1.2808   -3.9643 H   0  0  0  0  0  0  0  0  0  0  0  0
   -8.1166   -2.9418   -4.5620 H   0  0  0  0  0  0  0  0  0  0  0  0
   -9.5533   -2.5531   -2.5644 H   0  0  0  0  0  0  0  0  0  0  0  0
   -8.3283   -3.7893   -2.2437 H   0  0  0  0  0  0  0  0  0  0  0  0
   -8.1240   -2.1618   -1.5968 H   0  0  0  0  0  0  0  0  0  0  0  0
   -3.9407   -3.1447   -3.3564 H   0  0  0  0  0  0  0  0  0  0  0  0
   -2.2648   -1.8391   -2.1094 H   0  0  0  0  0  0  0  0  0  0  0  0
   -1.9229    5.1507   -4.5138 H   0  0  0  0  0  0  0  0  0  0  0  0
   -4.5086    5.2447   -4.0908 H   0  0  0  0  0  0  0  0  0  0  0  0
    5.2647   -2.0162    0.5333 H   0  0  0  0  0  0  0  0  0  0  0  0
    6.7454   -0.7300    2.0281 H   0  0  0  0  0  0  0  0  0  0  0  0
  1  2  1  0  0  0  0
  2  3  1  0  0  0  0
  3  4  1  0  0  0  0
  4  5  2  0  0  0  0
  5  6  1  0  0  0  0
  6  7  2  0  0  0  0
  7  8  1  0  0  0  0
  8  9  1  0  0  0  0
  9 10  2  0  0  0  0
 10 11  1  0  0  0  0
 11 12  2  0  0  0  0
 12 13  1  0  0  0  0
 13 14  1  0  0  0  0
 14 15  1  0  0  0  0
 12 16  1  0  0  0  0
 16 17  2  0  0  0  0
  8 18  1  0  0  0  0
 18 19  2  0  0  0  0
 19 20  1  0  0  0  0
 20 21  2  0  0  0  0
 21 22  1  0  0  0  0
 22 23  2  0  0  0  0
 23 24  1  0  0  0  0
 24 25  1  0  0  0  0
 25 26  1  0  0  0  0
 26 27  1  0  0  0  0
 27 28  2  0  0  0  0
 28 29  1  0  0  0  0
 29 30  1  0  0  0  0
 30 31  1  0  0  0  0
 21 32  1  0  0  0  0
 32 33  1  0  0  0  0
 33 34  2  0  0  0  0
 34 35  1  0  0  0  0
 35 36  2  0  0  0  0
 36 37  1  0  0  0  0
 37 38  1  0  0  0  0
 38 39  1  0  0  0  0
 36 40  1  0  0  0  0
 40 41  2  0  0  0  0
 32 42  1  0  0  0  0
 42 43  2  0  0  0  0
 43 44  1  0  0  0  0
 44 45  2  0  0  0  0
 45 46  1  0  0  0  0
 46 47  1  0  0  0  0
 47 48  1  0  0  0  0
 45 49  1  0  0  0  0
 49 50  2  0  0  0  0
 32 51  1  0  0  0  0
 51 52  2  0  0  0  0
 52 53  1  0  0  0  0
 53 54  1  0  0  0  0
 54 55  1  0  0  0  0
 55 56  2  0  0  0  0
 56 57  1  0  0  0  0
 57 58  1  0  0  0  0
  7 59  1  0  0  0  0
 59 60  2  0  0  0  0
 60  4  1  0  0  0  0
 31  8  1  0  0  0  0
 41 33  1  0  0  0  0
 50 42  1  0  0  0  0
 58 51  1  0  0  0  0
 17  9  1  0  0  0  0
 23 18  1  0  0  0  0
 31 24  2  0  0  0  0
 58 54  2  0  0  0  0
 52 20  1  0  0  0  0
 30 26  2  0  0  0  0
  1 61  1  0  0  0  0
  1 62  1  0  0  0  0
  1 63  1  0  0  0  0
  2 64  1  0  0  0  0
  2 65  1  0  0  0  0
  5 66  1  0  0  0  0
  6 67  1  0  0  0  0
 10 68  1  0  0  0  0
 11 69  1  0  0  0  0
 14 70  1  0  0  0  0
 14 71  1  0  0  0  0
 15 72  1  0  0  0  0
 15 73  1  0  0  0  0
 15 74  1  0  0  0  0
 16 75  1  0  0  0  0
 17 76  1  0  0  0  0
 19 77  1  0  0  0  0
 22 78  1  0  0  0  0
 27 79  1  0  0  0  0
 28 80  1  0  0  0  0
 34 81  1  0  0  0  0
 35 82  1  0  0  0  0
 38 83  1  0  0  0  0
 38 84  1  0  0  0  0
 39 85  1  0  0  0  0
 39 86  1  0  0  0  0
 39 87  1  0  0  0  0
 40 88  1  0  0  0  0
 41 89  1  0  0  0  0
 43 90  1  0  0  0  0
 44 91  1  0  0  0  0
 47 92  1  0  0  0  0
 47 93  1  0  0  0  0
 48 94  1  0  0  0  0
 48 95  1  0  0  0  0
 48 96  1  0  0  0  0
 49 97  1  0  0  0  0
 50 98  1  0  0  0  0
 55 99  1  0  0  0  0
 56100  1  0  0  0  0
 59101  1  0  0  0  0
 60102  1  0  0  0  0
M  END
