
  xtb     01172214443D
 energy: -94.310769751649 gnorm: 0.000197926249 xtb: 6.4.1 (unknown)
 56 63  0     0  0            999 V2000
    7.5170   -0.1103    0.2926 C   0  0  0  0  0  0  0  0  0  0  0  0
    7.1922    1.2451    0.9217 C   0  0  0  0  0  0  0  0  0  0  0  0
    6.2149    1.9974    0.0785 C   0  0  0  0  0  0  0  0  0  0  0  0
    4.8437    1.6671   -0.0293 C   0  0  0  0  0  0  0  0  0  0  0  0
    3.8301    0.5129    0.7974 S   0  0  0  0  0  0  0  0  0  0  0  0
    2.4496    1.0858   -0.1005 C   0  0  0  0  0  3  0  0  0  0  0  0
    2.7657    2.1317   -0.9784 C   0  0  0  0  0  0  0  0  0  0  0  0
    4.1259    2.4541   -0.9355 C   0  0  0  0  0  0  0  0  0  0  0  0
    5.1530    3.6667   -1.6311 S   0  0  0  0  0  0  0  0  0  0  0  0
    6.4520    3.1249   -0.6448 C   0  0  0  0  0  2  0  0  0  0  0  0
    1.4054    2.6906   -1.9165 S   0  0  0  0  0  0  0  0  0  0  0  0
    0.4175    1.4950   -1.1459 C   0  0  0  0  0  0  0  0  0  0  0  0
    1.1064    0.7137   -0.2118 C   0  0  0  0  0  0  0  0  0  0  0  0
    0.2638   -0.2167    0.3363 N   0  0  0  0  0  0  0  0  0  0  0  0
    0.6196   -0.8483    1.5885 C   0  0  0  0  0  0  0  0  0  0  0  0
   -0.2777   -0.3821    2.7315 C   0  0  0  0  0  0  0  0  0  0  0  0
   -0.9867   -0.0460   -0.2431 C   0  0  0  0  0  0  0  0  0  0  0  0
   -0.9111    1.0470   -1.1541 C   0  0  0  0  0  0  0  0  0  0  0  0
   -2.0550    1.5449   -1.8154 C   0  0  0  0  0  0  0  0  0  0  0  0
   -2.1447    2.5633   -2.6560 N   0  0  0  0  0  0  0  0  0  0  0  0
   -3.7001    2.7563   -3.0625 S   0  0  0  0  0  0  0  0  0  0  0  0
   -4.3193    1.5459   -2.1832 N   0  0  0  0  0  0  0  0  0  0  0  0
   -3.3294    0.9455   -1.5408 C   0  0  0  0  0  0  0  0  0  0  0  0
   -3.3807   -0.1930   -0.7088 C   0  0  0  0  0  0  0  0  0  0  0  0
   -4.4428   -1.0442   -0.3663 C   0  0  0  0  0  0  0  0  0  0  0  0
   -6.1386   -1.1673   -0.6104 S   0  0  0  0  0  0  0  0  0  0  0  0
   -6.1383   -2.6331    0.3112 C   0  0  0  0  0  0  0  0  0  0  0  0
   -4.9217   -3.0325    0.7840 C   0  0  0  0  0  0  0  0  0  0  0  0
   -4.7752   -4.2383    1.6641 C   0  0  0  0  0  0  0  0  0  0  0  0
   -4.4057   -3.8425    3.0946 C   0  0  0  0  0  0  0  0  0  0  0  0
   -3.9245   -2.1031    0.3799 C   0  0  0  0  0  0  0  0  0  0  0  0
   -2.5654   -1.9249    0.5286 N   0  0  0  0  0  0  0  0  0  0  0  0
   -1.6880   -3.0358    0.8264 C   0  0  0  0  0  0  0  0  0  0  0  0
   -0.8242   -3.4187   -0.3734 C   0  0  0  0  0  0  0  0  0  0  0  0
   -2.2146   -0.7443   -0.1143 C   0  0  0  0  0  0  0  0  0  0  0  0
    7.9459    0.0263   -0.6976 H   0  0  0  0  0  0  0  0  0  0  0  0
    8.2304   -0.6514    0.9093 H   0  0  0  0  0  0  0  0  0  0  0  0
    6.6150   -0.7116    0.1987 H   0  0  0  0  0  0  0  0  0  0  0  0
    6.7649    1.0883    1.9163 H   0  0  0  0  0  0  0  0  0  0  0  0
    8.1035    1.8349    1.0238 H   0  0  0  0  0  0  0  0  0  0  0  0
    0.6125   -1.9353    1.4899 H   0  0  0  0  0  0  0  0  0  0  0  0
    1.6510   -0.5561    1.8004 H   0  0  0  0  0  0  0  0  0  0  0  0
   -1.3223   -0.6084    2.5326 H   0  0  0  0  0  0  0  0  0  0  0  0
    0.0189   -0.8693    3.6566 H   0  0  0  0  0  0  0  0  0  0  0  0
   -0.1839    0.6937    2.8611 H   0  0  0  0  0  0  0  0  0  0  0  0
   -7.0722   -3.1384    0.4626 H   0  0  0  0  0  0  0  0  0  0  0  0
   -5.7288   -4.7689    1.6767 H   0  0  0  0  0  0  0  0  0  0  0  0
   -4.0296   -4.9284    1.2595 H   0  0  0  0  0  0  0  0  0  0  0  0
   -4.3009   -4.7284    3.7165 H   0  0  0  0  0  0  0  0  0  0  0  0
   -3.4708   -3.2879    3.1202 H   0  0  0  0  0  0  0  0  0  0  0  0
   -5.1848   -3.2130    3.5175 H   0  0  0  0  0  0  0  0  0  0  0  0
   -2.3225   -3.8822    1.0812 H   0  0  0  0  0  0  0  0  0  0  0  0
   -1.0741   -2.8172    1.7023 H   0  0  0  0  0  0  0  0  0  0  0  0
   -0.2014   -4.2732   -0.1209 H   0  0  0  0  0  0  0  0  0  0  0  0
   -0.1824   -2.5982   -0.6822 H   0  0  0  0  0  0  0  0  0  0  0  0
   -1.4585   -3.6876   -1.2152 H   0  0  0  0  0  0  0  0  0  0  0  0
  1  2  1  0  0  0  0
  2  3  1  0  0  0  0
  3  4  2  0  0  0  0
  4  5  1  0  0  0  0
  5  6  1  0  0  0  0
  6  7  1  0  0  0  0
  7  8  2  0  0  0  0
  8  9  1  0  0  0  0
  9 10  1  0  0  0  0
  7 11  1  0  0  0  0
 11 12  1  0  0  0  0
 12 13  2  0  0  0  0
 13 14  1  0  0  0  0
 14 15  1  0  0  0  0
 15 16  1  0  0  0  0
 14 17  1  0  0  0  0
 17 18  2  0  0  0  0
 18 19  1  0  0  0  0
 19 20  2  0  0  0  0
 20 21  1  0  0  0  0
 21 22  1  0  0  0  0
 22 23  2  0  0  0  0
 23 24  1  0  0  0  0
 24 25  1  0  0  0  0
 25 26  1  0  0  0  0
 26 27  1  0  0  0  0
 27 28  2  0  0  0  0
 28 29  1  0  0  0  0
 29 30  1  0  0  0  0
 28 31  1  0  0  0  0
 31 32  1  0  0  0  0
 32 33  1  0  0  0  0
 33 34  1  0  0  0  0
 32 35  1  0  0  0  0
 10  3  1  0  0  0  0
 18 12  1  0  0  0  0
 23 19  1  0  0  0  0
 35 24  2  0  0  0  0
  8  4  1  0  0  0  0
 35 17  1  0  0  0  0
 13  6  1  0  0  0  0
 31 25  2  0  0  0  0
  1 36  1  0  0  0  0
  1 37  1  0  0  0  0
  1 38  1  0  0  0  0
  2 39  1  0  0  0  0
  2 40  1  0  0  0  0
 15 41  1  0  0  0  0
 15 42  1  0  0  0  0
 16 43  1  0  0  0  0
 16 44  1  0  0  0  0
 16 45  1  0  0  0  0
 27 46  1  0  0  0  0
 29 47  1  0  0  0  0
 29 48  1  0  0  0  0
 30 49  1  0  0  0  0
 30 50  1  0  0  0  0
 30 51  1  0  0  0  0
 33 52  1  0  0  0  0
 33 53  1  0  0  0  0
 34 54  1  0  0  0  0
 34 55  1  0  0  0  0
 34 56  1  0  0  0  0
M  END
