
  xtb     01172214443D
 energy: -80.776081792179 gnorm: 0.000450725311 xtb: 6.4.1 (unknown)
 58 63  0     0  0            999 V2000
    1.5768    3.1453    2.9471 C   0  0  0  0  0  0  0  0  0  0  0  0
    1.9507    2.0194    3.9045 C   0  0  0  0  0  0  0  0  0  0  0  0
    0.8169    0.9985    4.0770 C   0  0  0  0  0  0  0  0  0  0  0  0
    1.1570   -0.0601    5.1515 C   0  0  0  0  0  0  0  0  0  0  0  0
    2.3612   -0.9446    4.8579 C   0  0  0  0  0  0  0  0  0  0  0  0
    0.4110    0.3627    2.7577 C   0  0  0  0  0  0  0  0  0  0  0  0
    1.1733   -0.2909    1.8399 C   0  0  0  0  0  0  0  0  0  0  0  0
    0.5804   -0.8169    0.6654 C   0  0  0  0  0  0  0  0  0  0  0  0
    1.3562   -1.5060   -0.2869 C   0  0  0  0  0  0  0  0  0  0  0  0
    0.7539   -2.0012   -1.4125 C   0  0  0  0  0  0  0  0  0  0  0  0
   -0.6432   -1.8327   -1.6413 C   0  0  0  0  0  0  0  0  0  0  0  0
   -1.4081   -1.1717   -0.7323 C   0  0  0  0  0  0  0  0  0  0  0  0
   -0.8165   -0.6446    0.4415 C   0  0  0  0  0  0  0  0  0  0  0  0
   -1.5850    0.0650    1.3841 C   0  0  0  0  0  0  0  0  0  0  0  0
   -0.9817    0.5584    2.5095 C   0  0  0  0  0  0  0  0  0  0  0  0
   -1.4816    1.3487    3.5977 C   0  0  0  0  0  0  0  0  0  0  0  0
   -2.9907    2.0367    4.0540 S   0  0  0  0  0  0  0  0  0  0  0  0
   -2.2521    2.7252    5.4565 C   0  0  0  0  0  0  0  0  0  0  0  0
   -0.9241    2.4394    5.5640 C   0  0  0  0  0  0  0  0  0  0  0  0
   -0.4788    1.6499    4.4899 C   0  0  0  0  0  0  0  0  0  0  0  0
   -1.0625   -2.4874   -2.9487 C   0  0  0  0  0  0  0  0  0  0  0  0
   -2.0325   -3.6404   -2.6113 C   0  0  0  0  0  0  0  0  0  0  0  0
   -2.4103   -4.5343   -3.7852 C   0  0  0  0  0  0  0  0  0  0  0  0
   -1.6977   -1.4752   -3.9151 C   0  0  0  0  0  0  0  0  0  0  0  0
   -0.8009   -0.2687   -4.1680 C   0  0  0  0  0  0  0  0  0  0  0  0
    0.2639   -2.9900   -3.4549 C   0  0  0  0  0  0  0  0  0  0  0  0
    0.7460   -3.6324   -4.6093 C   0  0  0  0  0  0  0  0  0  0  0  0
    2.0909   -3.8418   -4.5430 C   0  0  0  0  0  0  0  0  0  0  0  0
    2.8056   -3.2561   -3.0835 S   0  0  0  0  0  0  0  0  0  0  0  0
    1.2638   -2.7132   -2.5490 C   0  0  0  0  0  0  0  0  0  0  0  0
    0.7123    3.6936    3.3149 H   0  0  0  0  0  0  0  0  0  0  0  0
    1.3356    2.7456    1.9645 H   0  0  0  0  0  0  0  0  0  0  0  0
    2.4063    3.8410    2.8431 H   0  0  0  0  0  0  0  0  0  0  0  0
    2.1960    2.4391    4.8829 H   0  0  0  0  0  0  0  0  0  0  0  0
    2.8359    1.5091    3.5230 H   0  0  0  0  0  0  0  0  0  0  0  0
    0.2785   -0.6978    5.2810 H   0  0  0  0  0  0  0  0  0  0  0  0
    1.3225    0.4686    6.0936 H   0  0  0  0  0  0  0  0  0  0  0  0
    3.2641   -0.3548    4.7245 H   0  0  0  0  0  0  0  0  0  0  0  0
    2.5223   -1.6219    5.6940 H   0  0  0  0  0  0  0  0  0  0  0  0
    2.1931   -1.5428    3.9670 H   0  0  0  0  0  0  0  0  0  0  0  0
    2.2383   -0.4141    1.9713 H   0  0  0  0  0  0  0  0  0  0  0  0
    2.4161   -1.6371   -0.1223 H   0  0  0  0  0  0  0  0  0  0  0  0
   -2.4685   -1.0285   -0.8848 H   0  0  0  0  0  0  0  0  0  0  0  0
   -2.6394    0.2220    1.2076 H   0  0  0  0  0  0  0  0  0  0  0  0
   -2.8582    3.3074    6.1224 H   0  0  0  0  0  0  0  0  0  0  0  0
   -0.3073    2.7879    6.3730 H   0  0  0  0  0  0  0  0  0  0  0  0
   -1.5656   -4.2548   -1.8368 H   0  0  0  0  0  0  0  0  0  0  0  0
   -2.9380   -3.2041   -2.1839 H   0  0  0  0  0  0  0  0  0  0  0  0
   -2.8960   -3.9672   -4.5749 H   0  0  0  0  0  0  0  0  0  0  0  0
   -3.1024   -5.3030   -3.4477 H   0  0  0  0  0  0  0  0  0  0  0  0
   -1.5320   -5.0264   -4.1937 H   0  0  0  0  0  0  0  0  0  0  0  0
   -2.6488   -1.1398   -3.4963 H   0  0  0  0  0  0  0  0  0  0  0  0
   -1.9014   -1.9710   -4.8654 H   0  0  0  0  0  0  0  0  0  0  0  0
    0.1467   -0.5800   -4.6021 H   0  0  0  0  0  0  0  0  0  0  0  0
   -0.5947    0.2589   -3.2394 H   0  0  0  0  0  0  0  0  0  0  0  0
   -1.2844    0.4204   -4.8568 H   0  0  0  0  0  0  0  0  0  0  0  0
    0.1494   -3.9185   -5.4570 H   0  0  0  0  0  0  0  0  0  0  0  0
    2.7221   -4.3110   -5.2724 H   0  0  0  0  0  0  0  0  0  0  0  0
  1  2  1  0  0  0  0
  2  3  1  0  0  0  0
  3  4  1  0  0  0  0
  4  5  1  0  0  0  0
  3  6  1  0  0  0  0
  6  7  2  0  0  0  0
  7  8  1  0  0  0  0
  8  9  2  0  0  0  0
  9 10  1  0  0  0  0
 10 11  2  0  0  0  0
 11 12  1  0  0  0  0
 12 13  2  0  0  0  0
 13 14  1  0  0  0  0
 14 15  2  0  0  0  0
 15 16  1  0  0  0  0
 16 17  1  0  0  0  0
 17 18  1  0  0  0  0
 18 19  2  0  0  0  0
 19 20  1  0  0  0  0
 11 21  1  0  0  0  0
 21 22  1  0  0  0  0
 22 23  1  0  0  0  0
 21 24  1  0  0  0  0
 24 25  1  0  0  0  0
 21 26  1  0  0  0  0
 26 27  1  0  0  0  0
 27 28  2  0  0  0  0
 28 29  1  0  0  0  0
 29 30  1  0  0  0  0
 20  3  1  0  0  0  0
 30 26  2  0  0  0  0
 15  6  1  0  0  0  0
 20 16  2  0  0  0  0
 13  8  1  0  0  0  0
 30 10  1  0  0  0  0
  1 31  1  0  0  0  0
  1 32  1  0  0  0  0
  1 33  1  0  0  0  0
  2 34  1  0  0  0  0
  2 35  1  0  0  0  0
  4 36  1  0  0  0  0
  4 37  1  0  0  0  0
  5 38  1  0  0  0  0
  5 39  1  0  0  0  0
  5 40  1  0  0  0  0
  7 41  1  0  0  0  0
  9 42  1  0  0  0  0
 12 43  1  0  0  0  0
 14 44  1  0  0  0  0
 18 45  1  0  0  0  0
 19 46  1  0  0  0  0
 22 47  1  0  0  0  0
 22 48  1  0  0  0  0
 23 49  1  0  0  0  0
 23 50  1  0  0  0  0
 23 51  1  0  0  0  0
 24 52  1  0  0  0  0
 24 53  1  0  0  0  0
 25 54  1  0  0  0  0
 25 55  1  0  0  0  0
 25 56  1  0  0  0  0
 27 57  1  0  0  0  0
 28 58  1  0  0  0  0
M  END
