
  xtb     01172214443D
 energy: -44.725731190062 gnorm: 0.000853554824 xtb: 6.4.1 (unknown)
 22 23  0     0  0            999 V2000
   -0.9507   -0.4305    3.6887 C   0  0  0  0  0  0  0  0  0  0  0  0
   -0.2055   -0.3209    2.5869 C   0  0  0  0  0  0  0  0  0  0  0  0
    1.1574   -0.9381    2.4984 C   0  0  0  0  0  0  0  0  0  0  0  0
    1.7191   -1.5619    3.3636 O   0  0  0  0  0  0  0  0  0  0  0  0
    1.6455   -0.6163    1.1425 C   0  0  0  0  0  0  0  0  0  0  0  0
    2.8478   -0.9679    0.5622 C   0  0  0  0  0  0  0  0  0  0  0  0
    3.0827   -0.5496   -0.7422 C   0  0  0  0  0  0  0  0  0  0  0  0
    4.5623   -0.9632   -1.5143 Cl  0  0  0  0  0  0  0  0  0  0  0  0
    2.1360    0.1999   -1.4372 C   0  0  0  0  0  0  0  0  0  0  0  0
    0.9331    0.5500   -0.8490 C   0  0  0  0  0  0  0  0  0  0  0  0
    0.6768    0.1405    0.4550 C   0  0  0  0  0  0  0  0  0  0  0  0
   -0.4814    0.3478    1.3127 C   0  0  0  0  0  0  0  0  0  0  0  0
   -1.6151    1.0356    0.9926 C   0  0  0  0  0  0  0  0  0  0  0  0
   -2.7226    1.2004    1.8549 C   0  0  0  0  0  0  0  0  0  0  0  0
   -3.6539    1.3657    2.5035 N   0  0  0  0  0  0  0  0  0  0  0  0
   -1.8344    1.6765   -0.2477 C   0  0  0  0  0  0  0  0  0  0  0  0
   -2.0655    2.2164   -1.2329 N   0  0  0  0  0  0  0  0  0  0  0  0
   -0.5489   -0.9759    4.5283 H   0  0  0  0  0  0  0  0  0  0  0  0
   -1.9339   -0.0072    3.7968 H   0  0  0  0  0  0  0  0  0  0  0  0
    3.5731   -1.5488    1.1100 H   0  0  0  0  0  0  0  0  0  0  0  0
    2.3475    0.5093   -2.4488 H   0  0  0  0  0  0  0  0  0  0  0  0
    0.2174    1.1306   -1.4077 H   0  0  0  0  0  0  0  0  0  0  0  0
  1  2  2  0  0  0  0
  2  3  1  0  0  0  0
  3  4  2  0  0  0  0
  3  5  1  0  0  0  0
  5  6  2  0  0  0  0
  6  7  1  0  0  0  0
  7  8  1  0  0  0  0
  7  9  2  0  0  0  0
  9 10  1  0  0  0  0
 10 11  2  0  0  0  0
 11 12  1  0  0  0  0
 12 13  2  0  0  0  0
 13 14  1  0  0  0  0
 14 15  3  0  0  0  0
 13 16  1  0  0  0  0
 16 17  3  0  0  0  0
 12  2  1  0  0  0  0
 11  5  1  0  0  0  0
  1 18  1  0  0  0  0
  1 19  1  0  0  0  0
  6 20  1  0  0  0  0
  9 21  1  0  0  0  0
 10 22  1  0  0  0  0
M  END
