
  xtb     01172214443D
 energy: -44.899002696666 gnorm: 0.000740523682 xtb: 6.4.1 (unknown)
 22 23  0     0  0            999 V2000
    2.8997   -1.4629   -0.0624 C   0  0  0  0  0  0  0  0  0  0  0  0
    1.7106   -0.9394    0.2427 C   0  0  0  0  0  0  0  0  0  0  0  0
    0.4492   -1.4560   -0.3851 C   0  0  0  0  0  0  0  0  0  0  0  0
    0.3701   -2.3602   -1.1764 O   0  0  0  0  0  0  0  0  0  0  0  0
   -0.6306   -0.6218    0.1778 C   0  0  0  0  0  0  0  0  0  0  0  0
   -1.9952   -0.6444   -0.0595 C   0  0  0  0  0  0  0  0  0  0  0  0
   -2.5274   -1.5226   -0.9106 F   0  0  0  0  0  0  0  0  0  0  0  0
   -2.8303    0.2548    0.5908 C   0  0  0  0  0  0  0  0  0  0  0  0
   -2.2906    1.1727    1.4769 C   0  0  0  0  0  0  0  0  0  0  0  0
   -0.9272    1.2172    1.7333 C   0  0  0  0  0  0  0  0  0  0  0  0
   -0.0946    0.3182    1.0821 C   0  0  0  0  0  0  0  0  0  0  0  0
    1.3535    0.1476    1.1537 C   0  0  0  0  0  0  0  0  0  0  0  0
    2.2148    0.8651    1.9288 C   0  0  0  0  0  0  0  0  0  0  0  0
    3.6154    0.6723    1.9575 C   0  0  0  0  0  0  0  0  0  0  0  0
    4.7556    0.5730    2.0257 N   0  0  0  0  0  0  0  0  0  0  0  0
    1.8313    1.8995    2.8129 C   0  0  0  0  0  0  0  0  0  0  0  0
    1.5852    2.7441    3.5486 N   0  0  0  0  0  0  0  0  0  0  0  0
    2.9349   -2.2742   -0.7727 H   0  0  0  0  0  0  0  0  0  0  0  0
    3.8328   -1.1267    0.3540 H   0  0  0  0  0  0  0  0  0  0  0  0
   -3.8902    0.2238    0.3936 H   0  0  0  0  0  0  0  0  0  0  0  0
   -2.9444    1.8695    1.9782 H   0  0  0  0  0  0  0  0  0  0  0  0
   -0.5360    1.9429    2.4263 H   0  0  0  0  0  0  0  0  0  0  0  0
  1  2  2  0  0  0  0
  2  3  1  0  0  0  0
  3  4  2  0  0  0  0
  3  5  1  0  0  0  0
  5  6  2  0  0  0  0
  6  7  1  0  0  0  0
  6  8  1  0  0  0  0
  8  9  2  0  0  0  0
  9 10  1  0  0  0  0
 10 11  2  0  0  0  0
 11 12  1  0  0  0  0
 12 13  2  0  0  0  0
 13 14  1  0  0  0  0
 14 15  3  0  0  0  0
 13 16  1  0  0  0  0
 16 17  3  0  0  0  0
 12  2  1  0  0  0  0
 11  5  1  0  0  0  0
  1 18  1  0  0  0  0
  1 19  1  0  0  0  0
  8 20  1  0  0  0  0
  9 21  1  0  0  0  0
 10 22  1  0  0  0  0
M  END
