
  xtb     01172214443D
 energy: -44.902521089433 gnorm: 0.000739458421 xtb: 6.4.1 (unknown)
 22 23  0     0  0            999 V2000
    0.5451   -1.2578    3.7297 C   0  0  0  0  0  0  0  0  0  0  0  0
    0.5655   -0.8733    2.4517 C   0  0  0  0  0  0  0  0  0  0  0  0
    1.1056   -1.7643    1.3745 C   0  0  0  0  0  0  0  0  0  0  0  0
    1.5479   -2.8764    1.5184 O   0  0  0  0  0  0  0  0  0  0  0  0
    0.9766   -0.9896    0.1243 C   0  0  0  0  0  0  0  0  0  0  0  0
    1.3455   -1.3628   -1.1536 C   0  0  0  0  0  0  0  0  0  0  0  0
    1.1220   -0.4418   -2.1649 C   0  0  0  0  0  0  0  0  0  0  0  0
    1.4658   -0.7579   -3.4211 F   0  0  0  0  0  0  0  0  0  0  0  0
    0.5538    0.8031   -1.9251 C   0  0  0  0  0  0  0  0  0  0  0  0
    0.1870    1.1659   -0.6406 C   0  0  0  0  0  0  0  0  0  0  0  0
    0.3985    0.2653    0.3978 C   0  0  0  0  0  0  0  0  0  0  0  0
    0.1245    0.3753    1.8253 C   0  0  0  0  0  0  0  0  0  0  0  0
   -0.4387    1.4407    2.4629 C   0  0  0  0  0  0  0  0  0  0  0  0
   -0.6736    1.5087    3.8553 C   0  0  0  0  0  0  0  0  0  0  0  0
   -0.8853    1.6290    4.9760 N   0  0  0  0  0  0  0  0  0  0  0  0
   -0.8635    2.6242    1.8172 C   0  0  0  0  0  0  0  0  0  0  0  0
   -1.2281    3.6048    1.3473 N   0  0  0  0  0  0  0  0  0  0  0  0
    0.9259   -2.2363    3.9773 H   0  0  0  0  0  0  0  0  0  0  0  0
    0.1723   -0.6518    4.5362 H   0  0  0  0  0  0  0  0  0  0  0  0
    1.7881   -2.3255   -1.3540 H   0  0  0  0  0  0  0  0  0  0  0  0
    0.4046    1.4790   -2.7525 H   0  0  0  0  0  0  0  0  0  0  0  0
   -0.2529    2.1339   -0.4660 H   0  0  0  0  0  0  0  0  0  0  0  0
  1  2  2  0  0  0  0
  2  3  1  0  0  0  0
  3  4  2  0  0  0  0
  3  5  1  0  0  0  0
  5  6  2  0  0  0  0
  6  7  1  0  0  0  0
  7  8  1  0  0  0  0
  7  9  2  0  0  0  0
  9 10  1  0  0  0  0
 10 11  2  0  0  0  0
 11 12  1  0  0  0  0
 12 13  2  0  0  0  0
 13 14  1  0  0  0  0
 14 15  3  0  0  0  0
 13 16  1  0  0  0  0
 16 17  3  0  0  0  0
 12  2  1  0  0  0  0
 11  5  1  0  0  0  0
  1 18  1  0  0  0  0
  1 19  1  0  0  0  0
  6 20  1  0  0  0  0
  9 21  1  0  0  0  0
 10 22  1  0  0  0  0
M  END
