
  xtb     01172214463D
 energy: -176.201009490241 gnorm: 0.000213259399 xtb: 6.4.1 (unknown)
118129  0     0  0            999 V2000
   -2.8991   -2.7104   -3.5731 C   0  0  0  0  0  0  0  0  0  0  0  0
   -2.9048   -1.2023   -3.8028 C   0  0  0  0  0  0  0  0  0  0  0  0
   -1.6042   -0.6546   -3.7643 O   0  0  0  0  0  0  0  0  0  0  0  0
   -0.9820   -0.4824   -2.5721 C   0  0  0  0  0  0  0  0  0  0  0  0
   -1.5495   -0.6156   -1.3328 C   0  0  0  0  0  0  0  0  0  0  0  0
   -0.8068   -0.4049   -0.1501 C   0  0  0  0  0  0  0  0  0  0  0  0
    0.5643   -0.0555   -0.1989 C   0  0  0  0  0  0  0  0  0  0  0  0
    1.3143    0.1220    0.9845 C   0  0  0  0  0  0  0  0  0  0  0  0
    0.7531   -0.0370    2.2239 C   0  0  0  0  0  0  0  0  0  0  0  0
    1.3949    0.0658    3.4139 O   0  0  0  0  0  0  0  0  0  0  0  0
    2.7127    0.5714    3.4512 C   0  0  0  0  0  0  0  0  0  0  0  0
    2.7631    2.0781    3.2200 C   0  0  0  0  0  0  0  0  0  0  0  0
   -0.6312   -0.3640    2.3108 C   0  0  0  0  0  0  0  0  0  0  0  0
   -1.4425   -0.5495    3.4547 C   0  0  0  0  0  0  0  0  0  0  0  0
   -2.7545   -0.8250    3.1308 C   0  0  0  0  0  0  0  0  0  0  0  0
   -3.0527   -0.9016    1.4350 S   0  0  0  0  0  0  0  0  0  0  0  0
   -1.3701   -0.5331    1.1307 C   0  0  0  0  0  0  0  0  0  0  0  0
   -3.5207   -0.9408    4.3231 C   0  0  0  0  0  0  0  0  0  0  0  0
   -5.1533   -1.2215    4.7753 S   0  0  0  0  0  0  0  0  0  0  0  0
   -4.7157   -1.0493    6.4392 C   0  0  0  0  0  0  0  0  0  0  0  0
   -3.3902   -0.7942    6.6299 C   0  0  0  0  0  0  0  0  0  0  0  0
   -2.6939   -0.7316    5.4126 C   0  0  0  0  0  0  0  0  0  0  0  0
   -1.2597   -0.5117    4.9588 C   0  0  0  0  0  0  0  0  0  0  0  0
   -0.4349   -1.6713    5.4830 C   0  0  0  0  0  0  0  0  0  0  0  0
    0.1034   -2.6347    4.6434 C   0  0  0  0  0  0  0  0  0  0  0  0
    0.8091   -3.7061    5.1621 C   0  0  0  0  0  0  0  0  0  0  0  0
    0.9935   -3.8491    6.5292 C   0  0  0  0  0  0  0  0  0  0  0  0
    1.7081   -5.0437    7.0926 C   0  0  0  0  0  0  0  0  0  0  0  0
    0.7095   -6.1599    7.4055 C   0  0  0  0  0  0  0  0  0  0  0  0
    0.4500   -2.8850    7.3688 C   0  0  0  0  0  0  0  0  0  0  0  0
   -0.2548   -1.8144    6.8551 C   0  0  0  0  0  0  0  0  0  0  0  0
   -0.7478    0.8519    5.3863 C   0  0  0  0  0  0  0  0  0  0  0  0
   -1.5262    1.9693    5.1071 C   0  0  0  0  0  0  0  0  0  0  0  0
   -1.1041    3.2339    5.4694 C   0  0  0  0  0  0  0  0  0  0  0  0
    0.1063    3.4199    6.1245 C   0  0  0  0  0  0  0  0  0  0  0  0
    0.5822    4.7948    6.5001 C   0  0  0  0  0  0  0  0  0  0  0  0
    1.5350    5.3510    5.4399 C   0  0  0  0  0  0  0  0  0  0  0  0
    0.8874    2.3028    6.3877 C   0  0  0  0  0  0  0  0  0  0  0  0
    0.4709    1.0353    6.0221 C   0  0  0  0  0  0  0  0  0  0  0  0
    1.1238    0.0899   -1.4797 C   0  0  0  0  0  0  0  0  0  0  0  0
    2.7919    0.5188   -1.7877 S   0  0  0  0  0  0  0  0  0  0  0  0
    2.5010    0.4057   -3.4833 C   0  0  0  0  0  0  0  0  0  0  0  0
    1.2045    0.0612   -3.8025 C   0  0  0  0  0  0  0  0  0  0  0  0
    0.3926   -0.1163   -2.6584 C   0  0  0  0  0  0  0  0  0  0  0  0
    1.0254   -0.0196   -5.3049 C   0  0  0  0  0  0  0  0  0  0  0  0
    0.0081    1.0260   -5.7331 C   0  0  0  0  0  0  0  0  0  0  0  0
   -1.2217    0.6976   -6.2829 C   0  0  0  0  0  0  0  0  0  0  0  0
   -2.1266    1.6878   -6.6189 C   0  0  0  0  0  0  0  0  0  0  0  0
   -1.8334    3.0286   -6.4147 C   0  0  0  0  0  0  0  0  0  0  0  0
   -2.8448    4.0917   -6.7360 C   0  0  0  0  0  0  0  0  0  0  0  0
   -3.8170    4.2732   -5.5686 C   0  0  0  0  0  0  0  0  0  0  0  0
   -0.6035    3.3535   -5.8582 C   0  0  0  0  0  0  0  0  0  0  0  0
    0.3039    2.3676   -5.5217 C   0  0  0  0  0  0  0  0  0  0  0  0
    0.7161   -1.4173   -5.7982 C   0  0  0  0  0  0  0  0  0  0  0  0
    0.6699   -2.5064   -4.9401 C   0  0  0  0  0  0  0  0  0  0  0  0
    0.4017   -3.7740   -5.4247 C   0  0  0  0  0  0  0  0  0  0  0  0
    0.1833   -3.9932   -6.7773 C   0  0  0  0  0  0  0  0  0  0  0  0
   -0.1645   -5.3631   -7.2854 C   0  0  0  0  0  0  0  0  0  0  0  0
   -1.6652   -5.6233   -7.1391 C   0  0  0  0  0  0  0  0  0  0  0  0
    0.2513   -2.9049   -7.6373 C   0  0  0  0  0  0  0  0  0  0  0  0
    0.5199   -1.6375   -7.1573 C   0  0  0  0  0  0  0  0  0  0  0  0
    2.4231    0.3532   -5.7667 C   0  0  0  0  0  0  0  0  0  0  0  0
    3.0893    0.5216   -6.9904 C   0  0  0  0  0  0  0  0  0  0  0  0
    4.3954    0.8670   -6.8081 C   0  0  0  0  0  0  0  0  0  0  0  0
    4.8498    0.9967   -5.1447 S   0  0  0  0  0  0  0  0  0  0  0  0
    3.2500    0.5793   -4.6803 C   0  0  0  0  0  0  0  0  0  0  0  0
   -2.5363   -2.9462   -2.5755 H   0  0  0  0  0  0  0  0  0  0  0  0
   -2.2445   -3.1851   -4.3008 H   0  0  0  0  0  0  0  0  0  0  0  0
   -3.9051   -3.1050   -3.6852 H   0  0  0  0  0  0  0  0  0  0  0  0
   -3.5639   -0.6973   -3.0866 H   0  0  0  0  0  0  0  0  0  0  0  0
   -3.2614   -0.9792   -4.8119 H   0  0  0  0  0  0  0  0  0  0  0  0
   -2.5862   -0.8896   -1.2137 H   0  0  0  0  0  0  0  0  0  0  0  0
    2.3557    0.3771    0.8656 H   0  0  0  0  0  0  0  0  0  0  0  0
    3.0599    0.3376    4.4611 H   0  0  0  0  0  0  0  0  0  0  0  0
    3.3530    0.0416    2.7349 H   0  0  0  0  0  0  0  0  0  0  0  0
    2.4308    2.3289    2.2158 H   0  0  0  0  0  0  0  0  0  0  0  0
    2.1092    2.5740    3.9332 H   0  0  0  0  0  0  0  0  0  0  0  0
    3.7801    2.4367    3.3539 H   0  0  0  0  0  0  0  0  0  0  0  0
   -5.4816   -1.1465    7.1827 H   0  0  0  0  0  0  0  0  0  0  0  0
   -2.9572   -0.6506    7.6027 H   0  0  0  0  0  0  0  0  0  0  0  0
   -0.0223   -2.5568    3.5749 H   0  0  0  0  0  0  0  0  0  0  0  0
    1.2223   -4.4439    4.4886 H   0  0  0  0  0  0  0  0  0  0  0  0
    2.4436   -5.4097    6.3733 H   0  0  0  0  0  0  0  0  0  0  0  0
    2.2342   -4.7647    8.0081 H   0  0  0  0  0  0  0  0  0  0  0  0
   -0.0248   -5.8174    8.1313 H   0  0  0  0  0  0  0  0  0  0  0  0
    0.1820   -6.4579    6.5020 H   0  0  0  0  0  0  0  0  0  0  0  0
    1.2218   -7.0289    7.8122 H   0  0  0  0  0  0  0  0  0  0  0  0
    0.5801   -2.9744    8.4384 H   0  0  0  0  0  0  0  0  0  0  0  0
   -0.6627   -1.0750    7.5281 H   0  0  0  0  0  0  0  0  0  0  0  0
   -2.4740    1.8468    4.6020 H   0  0  0  0  0  0  0  0  0  0  0  0
   -1.7265    4.0888    5.2448 H   0  0  0  0  0  0  0  0  0  0  0  0
   -0.2734    5.4653    6.6013 H   0  0  0  0  0  0  0  0  0  0  0  0
    1.1001    4.7557    7.4611 H   0  0  0  0  0  0  0  0  0  0  0  0
    2.4200    4.7240    5.3565 H   0  0  0  0  0  0  0  0  0  0  0  0
    1.0446    5.3821    4.4693 H   0  0  0  0  0  0  0  0  0  0  0  0
    1.8493    6.3587    5.7024 H   0  0  0  0  0  0  0  0  0  0  0  0
    1.8374    2.4247    6.8899 H   0  0  0  0  0  0  0  0  0  0  0  0
    1.1052    0.1880    6.2298 H   0  0  0  0  0  0  0  0  0  0  0  0
   -1.4813   -0.3363   -6.4464 H   0  0  0  0  0  0  0  0  0  0  0  0
   -3.0800    1.4121   -7.0487 H   0  0  0  0  0  0  0  0  0  0  0  0
   -2.3384    5.0385   -6.9339 H   0  0  0  0  0  0  0  0  0  0  0  0
   -3.4058    3.8109   -7.6302 H   0  0  0  0  0  0  0  0  0  0  0  0
   -4.3411    3.3420   -5.3649 H   0  0  0  0  0  0  0  0  0  0  0  0
   -4.5508    5.0426   -5.7984 H   0  0  0  0  0  0  0  0  0  0  0  0
   -3.2774    4.5636   -4.6700 H   0  0  0  0  0  0  0  0  0  0  0  0
   -0.3524    4.3907   -5.6855 H   0  0  0  0  0  0  0  0  0  0  0  0
    1.2539    2.6442   -5.0868 H   0  0  0  0  0  0  0  0  0  0  0  0
    0.8402   -2.3734   -3.8831 H   0  0  0  0  0  0  0  0  0  0  0  0
    0.3657   -4.6081   -4.7374 H   0  0  0  0  0  0  0  0  0  0  0  0
    0.3871   -6.1180   -6.7210 H   0  0  0  0  0  0  0  0  0  0  0  0
    0.1156   -5.4509   -8.3370 H   0  0  0  0  0  0  0  0  0  0  0  0
   -1.9196   -6.6119   -7.5143 H   0  0  0  0  0  0  0  0  0  0  0  0
   -2.2333   -4.8827   -7.6981 H   0  0  0  0  0  0  0  0  0  0  0  0
   -1.9603   -5.5630   -6.0937 H   0  0  0  0  0  0  0  0  0  0  0  0
    0.0941   -3.0516   -8.6969 H   0  0  0  0  0  0  0  0  0  0  0  0
    0.5647   -0.8060   -7.8451 H   0  0  0  0  0  0  0  0  0  0  0  0
    2.6436    0.4037   -7.9609 H   0  0  0  0  0  0  0  0  0  0  0  0
    5.1369    1.0604   -7.5576 H   0  0  0  0  0  0  0  0  0  0  0  0
  1  2  1  0  0  0  0
  2  3  1  0  0  0  0
  3  4  1  0  0  0  0
  4  5  2  0  0  0  0
  5  6  1  0  0  0  0
  6  7  2  0  0  0  0
  7  8  1  0  0  0  0
  8  9  2  0  0  0  0
  9 10  1  0  0  0  0
 10 11  1  0  0  0  0
 11 12  1  0  0  0  0
  9 13  1  0  0  0  0
 13 14  1  0  0  0  0
 14 15  2  0  0  0  0
 15 16  1  0  0  0  0
 16 17  1  0  0  0  0
 15 18  1  0  0  0  0
 18 19  1  0  0  0  0
 19 20  1  0  0  0  0
 20 21  2  0  0  0  0
 21 22  1  0  0  0  0
 22 23  1  0  0  0  0
 23 24  1  0  0  0  0
 24 25  2  0  0  0  0
 25 26  1  0  0  0  0
 26 27  2  0  0  0  0
 27 28  1  0  0  0  0
 28 29  1  0  0  0  0
 27 30  1  0  0  0  0
 30 31  2  0  0  0  0
 23 32  1  0  0  0  0
 32 33  2  0  0  0  0
 33 34  1  0  0  0  0
 34 35  2  0  0  0  0
 35 36  1  0  0  0  0
 36 37  1  0  0  0  0
 35 38  1  0  0  0  0
 38 39  2  0  0  0  0
  7 40  1  0  0  0  0
 40 41  1  0  0  0  0
 41 42  1  0  0  0  0
 42 43  2  0  0  0  0
 43 44  1  0  0  0  0
 43 45  1  0  0  0  0
 45 46  1  0  0  0  0
 46 47  2  0  0  0  0
 47 48  1  0  0  0  0
 48 49  2  0  0  0  0
 49 50  1  0  0  0  0
 50 51  1  0  0  0  0
 49 52  1  0  0  0  0
 52 53  2  0  0  0  0
 45 54  1  0  0  0  0
 54 55  2  0  0  0  0
 55 56  1  0  0  0  0
 56 57  2  0  0  0  0
 57 58  1  0  0  0  0
 58 59  1  0  0  0  0
 57 60  1  0  0  0  0
 60 61  2  0  0  0  0
 45 62  1  0  0  0  0
 62 63  1  0  0  0  0
 63 64  2  0  0  0  0
 64 65  1  0  0  0  0
 65 66  1  0  0  0  0
 44  4  1  0  0  0  0
 53 46  1  0  0  0  0
 61 54  1  0  0  0  0
 66 62  2  0  0  0  0
 17  6  1  0  0  0  0
 22 18  2  0  0  0  0
 31 24  1  0  0  0  0
 39 32  1  0  0  0  0
 44 40  2  0  0  0  0
 17 13  2  0  0  0  0
 66 42  1  0  0  0  0
 23 14  1  0  0  0  0
  1 67  1  0  0  0  0
  1 68  1  0  0  0  0
  1 69  1  0  0  0  0
  2 70  1  0  0  0  0
  2 71  1  0  0  0  0
  5 72  1  0  0  0  0
  8 73  1  0  0  0  0
 11 74  1  0  0  0  0
 11 75  1  0  0  0  0
 12 76  1  0  0  0  0
 12 77  1  0  0  0  0
 12 78  1  0  0  0  0
 20 79  1  0  0  0  0
 21 80  1  0  0  0  0
 25 81  1  0  0  0  0
 26 82  1  0  0  0  0
 28 83  1  0  0  0  0
 28 84  1  0  0  0  0
 29 85  1  0  0  0  0
 29 86  1  0  0  0  0
 29 87  1  0  0  0  0
 30 88  1  0  0  0  0
 31 89  1  0  0  0  0
 33 90  1  0  0  0  0
 34 91  1  0  0  0  0
 36 92  1  0  0  0  0
 36 93  1  0  0  0  0
 37 94  1  0  0  0  0
 37 95  1  0  0  0  0
 37 96  1  0  0  0  0
 38 97  1  0  0  0  0
 39 98  1  0  0  0  0
 47 99  1  0  0  0  0
 48100  1  0  0  0  0
 50101  1  0  0  0  0
 50102  1  0  0  0  0
 51103  1  0  0  0  0
 51104  1  0  0  0  0
 51105  1  0  0  0  0
 52106  1  0  0  0  0
 53107  1  0  0  0  0
 55108  1  0  0  0  0
 56109  1  0  0  0  0
 58110  1  0  0  0  0
 58111  1  0  0  0  0
 59112  1  0  0  0  0
 59113  1  0  0  0  0
 59114  1  0  0  0  0
 60115  1  0  0  0  0
 61116  1  0  0  0  0
 63117  1  0  0  0  0
 64118  1  0  0  0  0
M  END
