
  xtb     01172214463D
 energy: -84.055033581356 gnorm: 0.000365349919 xtb: 6.4.1 (unknown)
 50 57  0     0  0            999 V2000
    4.2143    0.1460    7.1533 C   0  0  0  0  0  0  0  0  0  0  0  0
    3.3812   -1.1066    6.9125 C   0  0  0  0  0  0  0  0  0  0  0  0
    2.6917   -1.0382    5.6263 N   0  0  0  0  0  0  0  0  0  0  0  0
    3.3921   -1.5339    4.5288 C   0  0  0  0  0  0  0  0  0  0  0  0
    4.5021   -2.0073    4.6632 O   0  0  0  0  0  0  0  0  0  0  0  0
    2.7016   -1.4483    3.2340 C   0  0  0  0  0  0  0  0  0  0  0  0
    3.2550   -1.9063    2.0493 C   0  0  0  0  0  0  0  0  0  0  0  0
    2.5852   -1.8129    0.8167 C   0  0  0  0  0  0  0  0  0  0  0  0
    1.3305   -1.2454    0.7751 C   0  0  0  0  0  0  0  0  0  0  0  0
    0.3254   -0.9579   -0.2445 C   0  0  0  0  0  0  0  0  0  0  0  0
    0.3372   -1.1945   -1.6078 C   0  0  0  0  0  0  0  0  0  0  0  0
   -0.7759   -0.8054   -2.3370 C   0  0  0  0  0  0  0  0  0  0  0  0
   -1.8897   -0.1859   -1.7070 C   0  0  0  0  0  0  0  0  0  0  0  0
   -1.9023    0.0511   -0.3410 C   0  0  0  0  0  0  0  0  0  0  0  0
   -0.7915   -0.3367    0.3872 C   0  0  0  0  0  0  0  0  0  0  0  0
   -0.5084   -0.2226    1.8153 C   0  0  0  0  0  0  0  0  0  0  0  0
   -1.1525    0.2660    2.9310 C   0  0  0  0  0  0  0  0  0  0  0  0
   -0.5127    0.1893    4.1806 C   0  0  0  0  0  0  0  0  0  0  0  0
    0.7484   -0.3619    4.3388 C   0  0  0  0  0  0  0  0  0  0  0  0
    1.4202   -0.8669    3.2099 C   0  0  0  0  0  0  0  0  0  0  0  0
    0.7756   -0.7826    1.9876 C   0  0  0  0  0  0  0  0  0  0  0  0
    1.4319   -0.4437    5.6376 C   0  0  0  0  0  0  0  0  0  0  0  0
    0.9495   -0.0313    6.6728 O   0  0  0  0  0  0  0  0  0  0  0  0
   -2.8895    0.1024   -2.7278 C   0  0  0  0  0  0  0  0  0  0  0  0
   -4.1371    0.6743   -2.7467 C   0  0  0  0  0  0  0  0  0  0  0  0
   -4.8105    0.7766   -3.9791 C   0  0  0  0  0  0  0  0  0  0  0  0
   -4.2737    0.3294   -5.1623 C   0  0  0  0  0  0  0  0  0  0  0  0
   -2.9912   -0.2647   -5.1810 C   0  0  0  0  0  0  0  0  0  0  0  0
   -2.2808   -0.7790   -6.2896 C   0  0  0  0  0  0  0  0  0  0  0  0
   -1.0319   -1.3251   -6.1165 C   0  0  0  0  0  0  0  0  0  0  0  0
   -0.3992   -1.4048   -4.8610 C   0  0  0  0  0  0  0  0  0  0  0  0
   -1.0604   -0.9150   -3.7625 C   0  0  0  0  0  0  0  0  0  0  0  0
   -2.3442   -0.3549   -3.9485 C   0  0  0  0  0  0  0  0  0  0  0  0
    3.5749    1.0259    7.1583 H   0  0  0  0  0  0  0  0  0  0  0  0
    4.7170    0.0732    8.1136 H   0  0  0  0  0  0  0  0  0  0  0  0
    4.9639    0.2531    6.3726 H   0  0  0  0  0  0  0  0  0  0  0  0
    4.0216   -1.9901    6.8944 H   0  0  0  0  0  0  0  0  0  0  0  0
    2.6197   -1.2103    7.6874 H   0  0  0  0  0  0  0  0  0  0  0  0
    4.2397   -2.3491    2.0880 H   0  0  0  0  0  0  0  0  0  0  0  0
    3.0671   -2.1870   -0.0744 H   0  0  0  0  0  0  0  0  0  0  0  0
    1.1831   -1.6648   -2.0866 H   0  0  0  0  0  0  0  0  0  0  0  0
   -2.7483    0.5218    0.1372 H   0  0  0  0  0  0  0  0  0  0  0  0
   -2.1363    0.7071    2.8689 H   0  0  0  0  0  0  0  0  0  0  0  0
   -1.0122    0.5720    5.0588 H   0  0  0  0  0  0  0  0  0  0  0  0
   -4.6100    1.0439   -1.8486 H   0  0  0  0  0  0  0  0  0  0  0  0
   -5.7926    1.2279   -3.9866 H   0  0  0  0  0  0  0  0  0  0  0  0
   -4.8293    0.4299   -6.0836 H   0  0  0  0  0  0  0  0  0  0  0  0
   -2.7255   -0.7402   -7.2736 H   0  0  0  0  0  0  0  0  0  0  0  0
   -0.5055   -1.7128   -6.9772 H   0  0  0  0  0  0  0  0  0  0  0  0
    0.5843   -1.8452   -4.7867 H   0  0  0  0  0  0  0  0  0  0  0  0
  1  2  1  0  0  0  0
  2  3  1  0  0  0  0
  3  4  1  0  0  0  0
  4  5  2  0  0  0  0
  4  6  1  0  0  0  0
  6  7  2  0  0  0  0
  7  8  1  0  0  0  0
  8  9  2  0  0  0  0
  9 10  1  0  0  0  0
 10 11  2  0  0  0  0
 11 12  1  0  0  0  0
 12 13  2  0  0  0  0
 13 14  1  0  0  0  0
 14 15  2  0  0  0  0
 15 16  1  0  0  0  0
 16 17  2  0  0  0  0
 17 18  1  0  0  0  0
 18 19  2  0  0  0  0
 19 20  1  0  0  0  0
 20 21  2  0  0  0  0
 19 22  1  0  0  0  0
 22 23  2  0  0  0  0
 13 24  1  0  0  0  0
 24 25  2  0  0  0  0
 25 26  1  0  0  0  0
 26 27  2  0  0  0  0
 27 28  1  0  0  0  0
 28 29  1  0  0  0  0
 29 30  2  0  0  0  0
 30 31  1  0  0  0  0
 31 32  2  0  0  0  0
 32 33  1  0  0  0  0
 22  3  1  0  0  0  0
 33 24  1  0  0  0  0
 20  6  1  0  0  0  0
 33 28  2  0  0  0  0
 21  9  1  0  0  0  0
 15 10  1  0  0  0  0
 21 16  1  0  0  0  0
 32 12  1  0  0  0  0
  1 34  1  0  0  0  0
  1 35  1  0  0  0  0
  1 36  1  0  0  0  0
  2 37  1  0  0  0  0
  2 38  1  0  0  0  0
  7 39  1  0  0  0  0
  8 40  1  0  0  0  0
 11 41  1  0  0  0  0
 14 42  1  0  0  0  0
 17 43  1  0  0  0  0
 18 44  1  0  0  0  0
 25 45  1  0  0  0  0
 26 46  1  0  0  0  0
 27 47  1  0  0  0  0
 29 48  1  0  0  0  0
 30 49  1  0  0  0  0
 31 50  1  0  0  0  0
M  END
