
  xtb     01172214483D
 energy: -167.413159588907 gnorm: 0.000563521934 xtb: 6.4.1 (unknown)
111123  0     0  0            999 V2000
    1.6097   -1.5250    8.1352 C   0  0  0  0  0  0  0  0  0  0  0  0
    1.3950   -0.1131    7.5866 C   0  0  0  0  0  0  0  0  0  0  0  0
    1.6741   -0.0748    6.1114 C   0  0  0  0  0  0  0  0  0  0  0  0
    0.6661   -0.3206    5.1898 C   0  0  0  0  0  0  0  0  0  0  0  0
    0.9267   -0.3225    3.8312 C   0  0  0  0  0  0  0  0  0  0  0  0
    2.2070   -0.0675    3.3623 C   0  0  0  0  0  0  0  0  0  0  0  0
    2.5421   -0.1059    1.8822 C   0  0  0  0  0  0  0  0  0  0  0  0
    3.4740    1.0227    1.4885 C   0  0  0  0  0  0  0  0  0  0  0  0
    4.4908    0.8284    0.5646 C   0  0  0  0  0  0  0  0  0  0  0  0
    5.3183    1.8748    0.2011 C   0  0  0  0  0  0  0  0  0  0  0  0
    5.1475    3.1414    0.7424 C   0  0  0  0  0  0  0  0  0  0  0  0
    6.0264    4.2829    0.3182 C   0  0  0  0  0  0  0  0  0  0  0  0
    5.4595    4.9611   -0.9305 C   0  0  0  0  0  0  0  0  0  0  0  0
    4.1159    3.3357    1.6516 C   0  0  0  0  0  0  0  0  0  0  0  0
    3.2892    2.2924    2.0214 C   0  0  0  0  0  0  0  0  0  0  0  0
    1.3200   -0.0770    0.9781 C   0  0  0  0  0  0  0  0  0  0  0  0
    0.3992    0.9330    0.8226 C   0  0  0  0  0  0  0  0  0  0  0  0
   -0.6596    0.7000   -0.0492 C   0  0  0  0  0  0  0  0  0  0  0  0
   -0.7845   -0.5064   -0.7728 C   0  0  0  0  0  0  0  0  0  0  0  0
    0.1385   -1.5142   -0.6186 C   0  0  0  0  0  0  0  0  0  0  0  0
    1.1904   -1.2881    0.2639 C   0  0  0  0  0  0  0  0  0  0  0  0
    2.2825   -2.1249    0.6616 C   0  0  0  0  0  0  0  0  0  0  0  0
    2.8104   -3.7305    0.2765 S   0  0  0  0  0  0  0  0  0  0  0  0
    4.1427   -3.5344    1.3712 C   0  0  0  0  0  0  0  0  0  0  0  0
    4.1522   -2.2795    1.9915 C   0  0  0  0  0  0  0  0  0  0  0  0
    5.4906   -2.0792    3.0844 S   0  0  0  0  0  0  0  0  0  0  0  0
    6.0378   -3.6885    2.7069 C   0  0  0  0  0  0  0  0  0  0  0  0
    7.1252   -4.4728    3.1374 C   0  0  0  0  0  0  0  0  0  0  0  0
    7.1196   -5.6922    2.5401 C   0  0  0  0  0  0  0  0  0  0  0  0
    5.7990   -5.9235    1.4420 S   0  0  0  0  0  0  0  0  0  0  0  0
    5.2195   -4.3337    1.7831 C   0  0  0  0  0  0  0  0  0  0  0  0
    3.0868   -1.4761    1.5758 C   0  0  0  0  0  0  0  0  0  0  0  0
   -2.0463   -0.4917   -1.6361 C   0  0  0  0  0  0  0  0  0  0  0  0
   -1.6393   -0.5429   -3.0966 C   0  0  0  0  0  0  0  0  0  0  0  0
   -1.1090   -1.7105   -3.6371 C   0  0  0  0  0  0  0  0  0  0  0  0
   -0.7100   -1.7623   -4.9585 C   0  0  0  0  0  0  0  0  0  0  0  0
   -0.8205   -0.6502   -5.7832 C   0  0  0  0  0  0  0  0  0  0  0  0
   -0.4295   -0.7220   -7.2311 C   0  0  0  0  0  0  0  0  0  0  0  0
   -1.6197   -1.1602   -8.0870 C   0  0  0  0  0  0  0  0  0  0  0  0
   -1.3434    0.5151   -5.2422 C   0  0  0  0  0  0  0  0  0  0  0  0
   -1.7428    0.5714   -3.9188 C   0  0  0  0  0  0  0  0  0  0  0  0
   -2.9873   -1.6079   -1.2156 C   0  0  0  0  0  0  0  0  0  0  0  0
   -3.2424   -1.7759    0.1418 C   0  0  0  0  0  0  0  0  0  0  0  0
   -4.1153   -2.7502    0.5832 C   0  0  0  0  0  0  0  0  0  0  0  0
   -4.7609   -3.5892   -0.3169 C   0  0  0  0  0  0  0  0  0  0  0  0
   -5.7498   -4.6141    0.1578 C   0  0  0  0  0  0  0  0  0  0  0  0
   -7.1524   -4.0066    0.2292 C   0  0  0  0  0  0  0  0  0  0  0  0
   -4.5094   -3.4164   -1.6699 C   0  0  0  0  0  0  0  0  0  0  0  0
   -3.6383   -2.4381   -2.1169 C   0  0  0  0  0  0  0  0  0  0  0  0
   -2.6425    0.8421   -1.2415 C   0  0  0  0  0  0  0  0  0  0  0  0
   -1.8071    1.4958   -0.3569 C   0  0  0  0  0  0  0  0  0  0  0  0
   -2.3752    3.0447    0.1815 S   0  0  0  0  0  0  0  0  0  0  0  0
   -3.7858    2.8276   -0.8012 C   0  0  0  0  0  0  0  0  0  0  0  0
   -4.9640    3.4962   -1.1466 C   0  0  0  0  0  0  0  0  0  0  0  0
   -5.8331    4.9593   -0.8532 S   0  0  0  0  0  0  0  0  0  0  0  0
   -7.0915    4.4290   -1.9253 C   0  0  0  0  0  0  0  0  0  0  0  0
   -6.8747    3.2087   -2.4832 C   0  0  0  0  0  0  0  0  0  0  0  0
   -5.6528    2.6619   -2.0418 C   0  0  0  0  0  0  0  0  0  0  0  0
   -4.9295    1.5200   -2.2674 N   0  0  0  0  0  0  0  0  0  0  0  0
   -5.3811    0.3911   -3.0361 C   0  0  0  0  0  0  0  0  0  0  0  0
   -6.3751   -0.4582   -2.2463 C   0  0  0  0  0  0  0  0  0  0  0  0
   -3.7945    1.5992   -1.5021 C   0  0  0  0  0  0  0  0  0  0  0  0
    3.2239    0.1623    4.2816 C   0  0  0  0  0  0  0  0  0  0  0  0
    2.9586    0.1588    5.6369 C   0  0  0  0  0  0  0  0  0  0  0  0
    0.9471   -2.2288    7.6364 H   0  0  0  0  0  0  0  0  0  0  0  0
    2.6358   -1.8437    7.9657 H   0  0  0  0  0  0  0  0  0  0  0  0
    1.4080   -1.5542    9.2037 H   0  0  0  0  0  0  0  0  0  0  0  0
    0.3644    0.1939    7.7765 H   0  0  0  0  0  0  0  0  0  0  0  0
    2.0594    0.5798    8.1070 H   0  0  0  0  0  0  0  0  0  0  0  0
   -0.3394   -0.5115    5.5374 H   0  0  0  0  0  0  0  0  0  0  0  0
    0.1260   -0.5203    3.1340 H   0  0  0  0  0  0  0  0  0  0  0  0
    4.6434   -0.1474    0.1268 H   0  0  0  0  0  0  0  0  0  0  0  0
    6.1123    1.7016   -0.5116 H   0  0  0  0  0  0  0  0  0  0  0  0
    6.0966    5.0154    1.1249 H   0  0  0  0  0  0  0  0  0  0  0  0
    7.0317    3.9151    0.1023 H   0  0  0  0  0  0  0  0  0  0  0  0
    4.4613    5.3449   -0.7317 H   0  0  0  0  0  0  0  0  0  0  0  0
    5.3938    4.2494   -1.7505 H   0  0  0  0  0  0  0  0  0  0  0  0
    6.0959    5.7881   -1.2373 H   0  0  0  0  0  0  0  0  0  0  0  0
    3.9611    4.3155    2.0811 H   0  0  0  0  0  0  0  0  0  0  0  0
    2.5030    2.4615    2.7428 H   0  0  0  0  0  0  0  0  0  0  0  0
    0.4707    1.8630    1.3649 H   0  0  0  0  0  0  0  0  0  0  0  0
    0.0602   -2.4591   -1.1323 H   0  0  0  0  0  0  0  0  0  0  0  0
    7.8632   -4.1473    3.8467 H   0  0  0  0  0  0  0  0  0  0  0  0
    7.8192   -6.4930    2.6727 H   0  0  0  0  0  0  0  0  0  0  0  0
   -1.0164   -2.5941   -3.0246 H   0  0  0  0  0  0  0  0  0  0  0  0
   -0.3025   -2.6817   -5.3548 H   0  0  0  0  0  0  0  0  0  0  0  0
    0.3872   -1.4354   -7.3586 H   0  0  0  0  0  0  0  0  0  0  0  0
   -0.0844    0.2570   -7.5696 H   0  0  0  0  0  0  0  0  0  0  0  0
   -1.3373   -1.2082   -9.1362 H   0  0  0  0  0  0  0  0  0  0  0  0
   -1.9684   -2.1426   -7.7760 H   0  0  0  0  0  0  0  0  0  0  0  0
   -2.4419   -0.4557   -7.9805 H   0  0  0  0  0  0  0  0  0  0  0  0
   -1.4362    1.3966   -5.8607 H   0  0  0  0  0  0  0  0  0  0  0  0
   -2.1348    1.4989   -3.5294 H   0  0  0  0  0  0  0  0  0  0  0  0
   -2.7495   -1.1339    0.8577 H   0  0  0  0  0  0  0  0  0  0  0  0
   -4.2966   -2.8636    1.6426 H   0  0  0  0  0  0  0  0  0  0  0  0
   -5.7603   -5.4645   -0.5270 H   0  0  0  0  0  0  0  0  0  0  0  0
   -5.4632   -4.9754    1.1474 H   0  0  0  0  0  0  0  0  0  0  0  0
   -7.4610   -3.6500   -0.7511 H   0  0  0  0  0  0  0  0  0  0  0  0
   -7.8714   -4.7468    0.5723 H   0  0  0  0  0  0  0  0  0  0  0  0
   -7.1652   -3.1646    0.9178 H   0  0  0  0  0  0  0  0  0  0  0  0
   -5.0018   -4.0552   -2.3896 H   0  0  0  0  0  0  0  0  0  0  0  0
   -3.4708   -2.3330   -3.1788 H   0  0  0  0  0  0  0  0  0  0  0  0
   -7.9336    5.0750   -2.0749 H   0  0  0  0  0  0  0  0  0  0  0  0
   -7.5545    2.7357   -3.1686 H   0  0  0  0  0  0  0  0  0  0  0  0
   -4.5077   -0.2035   -3.3094 H   0  0  0  0  0  0  0  0  0  0  0  0
   -5.8513    0.7638   -3.9518 H   0  0  0  0  0  0  0  0  0  0  0  0
   -7.2531    0.1297   -1.9883 H   0  0  0  0  0  0  0  0  0  0  0  0
   -5.9153   -0.8189   -1.3294 H   0  0  0  0  0  0  0  0  0  0  0  0
   -6.6860   -1.3143   -2.8385 H   0  0  0  0  0  0  0  0  0  0  0  0
    4.2281    0.3526    3.9311 H   0  0  0  0  0  0  0  0  0  0  0  0
    3.7612    0.3437    6.3367 H   0  0  0  0  0  0  0  0  0  0  0  0
  1  2  1  0  0  0  0
  2  3  1  0  0  0  0
  3  4  2  0  0  0  0
  4  5  1  0  0  0  0
  5  6  2  0  0  0  0
  6  7  1  0  0  0  0
  7  8  1  0  0  0  0
  8  9  2  0  0  0  0
  9 10  1  0  0  0  0
 10 11  2  0  0  0  0
 11 12  1  0  0  0  0
 12 13  1  0  0  0  0
 11 14  1  0  0  0  0
 14 15  2  0  0  0  0
  7 16  1  0  0  0  0
 16 17  2  0  0  0  0
 17 18  1  0  0  0  0
 18 19  2  0  0  0  0
 19 20  1  0  0  0  0
 20 21  2  0  0  0  0
 21 22  1  0  0  0  0
 22 23  1  0  0  0  0
 23 24  1  0  0  0  0
 24 25  2  0  0  0  0
 25 26  1  0  0  0  0
 26 27  1  0  0  0  0
 27 28  1  0  0  0  0
 28 29  2  0  0  0  0
 29 30  1  0  0  0  0
 30 31  1  0  0  0  0
 25 32  1  0  0  0  0
 19 33  1  0  0  0  0
 33 34  1  0  0  0  0
 34 35  2  0  0  0  0
 35 36  1  0  0  0  0
 36 37  2  0  0  0  0
 37 38  1  0  0  0  0
 38 39  1  0  0  0  0
 37 40  1  0  0  0  0
 40 41  2  0  0  0  0
 33 42  1  0  0  0  0
 42 43  2  0  0  0  0
 43 44  1  0  0  0  0
 44 45  2  0  0  0  0
 45 46  1  0  0  0  0
 46 47  1  0  0  0  0
 45 48  1  0  0  0  0
 48 49  2  0  0  0  0
 33 50  1  0  0  0  0
 50 51  2  0  0  0  0
 51 52  1  0  0  0  0
 52 53  1  0  0  0  0
 53 54  1  0  0  0  0
 54 55  1  0  0  0  0
 55 56  1  0  0  0  0
 56 57  2  0  0  0  0
 57 58  1  0  0  0  0
 58 59  1  0  0  0  0
 59 60  1  0  0  0  0
 60 61  1  0  0  0  0
 59 62  1  0  0  0  0
  6 63  1  0  0  0  0
 63 64  2  0  0  0  0
 64  3  1  0  0  0  0
 32  7  1  0  0  0  0
 41 34  1  0  0  0  0
 49 42  1  0  0  0  0
 62 50  1  0  0  0  0
 15  8  1  0  0  0  0
 21 16  1  0  0  0  0
 32 22  2  0  0  0  0
 62 53  2  0  0  0  0
 51 18  1  0  0  0  0
 58 54  2  0  0  0  0
 31 24  1  0  0  0  0
 31 27  2  0  0  0  0
  1 65  1  0  0  0  0
  1 66  1  0  0  0  0
  1 67  1  0  0  0  0
  2 68  1  0  0  0  0
  2 69  1  0  0  0  0
  4 70  1  0  0  0  0
  5 71  1  0  0  0  0
  9 72  1  0  0  0  0
 10 73  1  0  0  0  0
 12 74  1  0  0  0  0
 12 75  1  0  0  0  0
 13 76  1  0  0  0  0
 13 77  1  0  0  0  0
 13 78  1  0  0  0  0
 14 79  1  0  0  0  0
 15 80  1  0  0  0  0
 17 81  1  0  0  0  0
 20 82  1  0  0  0  0
 28 83  1  0  0  0  0
 29 84  1  0  0  0  0
 35 85  1  0  0  0  0
 36 86  1  0  0  0  0
 38 87  1  0  0  0  0
 38 88  1  0  0  0  0
 39 89  1  0  0  0  0
 39 90  1  0  0  0  0
 39 91  1  0  0  0  0
 40 92  1  0  0  0  0
 41 93  1  0  0  0  0
 43 94  1  0  0  0  0
 44 95  1  0  0  0  0
 46 96  1  0  0  0  0
 46 97  1  0  0  0  0
 47 98  1  0  0  0  0
 47 99  1  0  0  0  0
 47100  1  0  0  0  0
 48101  1  0  0  0  0
 49102  1  0  0  0  0
 56103  1  0  0  0  0
 57104  1  0  0  0  0
 60105  1  0  0  0  0
 60106  1  0  0  0  0
 61107  1  0  0  0  0
 61108  1  0  0  0  0
 61109  1  0  0  0  0
 63110  1  0  0  0  0
 64111  1  0  0  0  0
M  END
