
  xtb     01172214483D
 energy: -77.383253771886 gnorm: 0.000511438462 xtb: 6.4.1 (unknown)
 44 48  0     0  0            999 V2000
    0.8720   -7.5787    1.5530 C   0  0  0  0  0  0  0  0  0  0  0  0
    1.7326   -7.0308    0.4116 C   0  0  0  0  0  0  0  0  0  0  0  0
    1.9197   -5.5592    0.5466 C   0  0  0  0  0  0  0  0  0  0  0  0
    2.9913   -4.8825    1.0429 C   0  0  0  0  0  0  0  0  0  0  0  0
    2.8080   -3.4860    1.0697 C   0  0  0  0  0  0  0  0  0  0  0  0
    1.5849   -3.0930    0.6031 C   0  0  0  0  0  0  0  0  0  0  0  0
    1.0553   -1.7466    0.5094 C   0  0  0  0  0  0  0  0  0  0  0  0
    1.8452   -0.6818    0.0429 C   0  0  0  0  0  0  0  0  0  0  0  0
    3.1704   -0.7233   -0.4865 C   0  0  0  0  0  0  0  0  0  0  0  0
    3.6201    0.4858   -0.8760 C   0  0  0  0  0  0  0  0  0  0  0  0
    2.4761    1.7623   -0.6356 S   0  0  0  0  0  0  0  0  0  0  0  0
    1.3201    0.6305    0.0110 C   0  0  0  0  0  0  0  0  0  0  0  0
    0.0229    0.9390    0.4021 C   0  0  0  0  0  0  0  0  0  0  0  0
   -0.5006    2.2923    0.3091 C   0  0  0  0  0  0  0  0  0  0  0  0
    0.3010    3.6386    1.0611 S   0  0  0  0  0  0  0  0  0  0  0  0
   -0.8751    4.7653    0.4770 C   0  0  0  0  0  0  0  0  0  0  0  0
   -0.8061    6.2112    0.8263 C   0  0  0  0  0  0  0  0  0  0  0  0
   -1.5959    6.5042    2.1046 C   0  0  0  0  0  0  0  0  0  0  0  0
   -1.8302    4.1195   -0.2498 C   0  0  0  0  0  0  0  0  0  0  0  0
   -3.1597    4.9091   -0.9949 Cl  0  0  0  0  0  0  0  0  0  0  0  0
   -1.6194    2.7186   -0.3505 C   0  0  0  0  0  0  0  0  0  0  0  0
   -2.6383    1.6924   -1.2759 Cl  0  0  0  0  0  0  0  0  0  0  0  0
   -0.7689   -0.1213    0.8661 C   0  0  0  0  0  0  0  0  0  0  0  0
   -2.0967   -0.0686    1.3846 C   0  0  0  0  0  0  0  0  0  0  0  0
   -2.5551   -1.2762    1.7685 C   0  0  0  0  0  0  0  0  0  0  0  0
   -1.4159   -2.5560    1.5375 S   0  0  0  0  0  0  0  0  0  0  0  0
   -0.2453   -1.4342    0.8967 C   0  0  0  0  0  0  0  0  0  0  0  0
    0.6427   -4.4717    0.1137 S   0  0  0  0  0  0  0  0  0  0  0  0
    1.3411   -7.3722    2.5124 H   0  0  0  0  0  0  0  0  0  0  0  0
    0.7476   -8.6538    1.4499 H   0  0  0  0  0  0  0  0  0  0  0  0
   -0.1097   -7.1105    1.5411 H   0  0  0  0  0  0  0  0  0  0  0  0
    1.2485   -7.2554   -0.5416 H   0  0  0  0  0  0  0  0  0  0  0  0
    2.7114   -7.5155    0.4237 H   0  0  0  0  0  0  0  0  0  0  0  0
    3.8901   -5.3684    1.3798 H   0  0  0  0  0  0  0  0  0  0  0  0
    3.5363   -2.7983    1.4613 H   0  0  0  0  0  0  0  0  0  0  0  0
    3.7382   -1.6296   -0.5881 H   0  0  0  0  0  0  0  0  0  0  0  0
    4.5721    0.7277   -1.3067 H   0  0  0  0  0  0  0  0  0  0  0  0
    0.2369    6.4991    0.9667 H   0  0  0  0  0  0  0  0  0  0  0  0
   -1.2229    6.7919    0.0008 H   0  0  0  0  0  0  0  0  0  0  0  0
   -1.5397    7.5628    2.3438 H   0  0  0  0  0  0  0  0  0  0  0  0
   -2.6399    6.2316    1.9724 H   0  0  0  0  0  0  0  0  0  0  0  0
   -1.1900    5.9354    2.9377 H   0  0  0  0  0  0  0  0  0  0  0  0
   -2.6629    0.8404    1.4705 H   0  0  0  0  0  0  0  0  0  0  0  0
   -3.5139   -1.5149    2.1854 H   0  0  0  0  0  0  0  0  0  0  0  0
  1  2  1  0  0  0  0
  2  3  1  0  0  0  0
  3  4  2  0  0  0  0
  4  5  1  0  0  0  0
  5  6  2  0  0  0  0
  6  7  1  0  0  0  0
  7  8  2  0  0  0  0
  8  9  1  0  0  0  0
  9 10  2  0  0  0  0
 10 11  1  0  0  0  0
 11 12  1  0  0  0  0
 12 13  2  0  0  0  0
 13 14  1  0  0  0  0
 14 15  1  0  0  0  0
 15 16  1  0  0  0  0
 16 17  1  0  0  0  0
 17 18  1  0  0  0  0
 16 19  2  0  0  0  0
 19 20  1  0  0  0  0
 19 21  1  0  0  0  0
 21 22  1  0  0  0  0
 13 23  1  0  0  0  0
 23 24  1  0  0  0  0
 24 25  2  0  0  0  0
 25 26  1  0  0  0  0
 26 27  1  0  0  0  0
  6 28  1  0  0  0  0
 28  3  1  0  0  0  0
 27  7  1  0  0  0  0
 12  8  1  0  0  0  0
 21 14  2  0  0  0  0
 27 23  2  0  0  0  0
  1 29  1  0  0  0  0
  1 30  1  0  0  0  0
  1 31  1  0  0  0  0
  2 32  1  0  0  0  0
  2 33  1  0  0  0  0
  4 34  1  0  0  0  0
  5 35  1  0  0  0  0
  9 36  1  0  0  0  0
 10 37  1  0  0  0  0
 17 38  1  0  0  0  0
 17 39  1  0  0  0  0
 18 40  1  0  0  0  0
 18 41  1  0  0  0  0
 18 42  1  0  0  0  0
 24 43  1  0  0  0  0
 25 44  1  0  0  0  0
M  END
