
  xtb     01172214483D
 energy: -38.574818047387 gnorm: 0.000415966699 xtb: 6.4.1 (unknown)
 20 21  0     0  0            999 V2000
    0.3799    1.4170    3.6329 C   0  0  0  0  0  0  0  0  0  0  0  0
   -0.4630    0.2685    3.0864 C   0  0  0  0  0  0  0  0  0  0  0  0
   -0.0347   -0.0770    1.7606 N   0  0  0  0  0  0  0  0  0  0  0  0
    0.9055   -0.9572    1.5597 N   0  0  0  0  0  0  0  0  0  0  0  0
    1.0570   -0.9762    0.2261 C   0  0  0  0  0  0  0  0  0  0  0  0
    1.9054   -1.7141   -0.6053 C   0  0  0  0  0  0  0  0  0  0  0  0
    1.8049   -1.4927   -1.9543 C   0  0  0  0  0  0  0  0  0  0  0  0
    2.8245   -2.3710   -3.0318 Cl  0  0  0  0  0  0  0  0  0  0  0  0
    0.8833   -0.5590   -2.4954 C   0  0  0  0  0  0  0  0  0  0  0  0
    0.8261   -0.3462   -4.2052 Cl  0  0  0  0  0  0  0  0  0  0  0  0
    0.0418    0.1740   -1.6995 C   0  0  0  0  0  0  0  0  0  0  0  0
    0.1278   -0.0348   -0.3195 C   0  0  0  0  0  0  0  0  0  0  0  0
   -0.5400    0.5075    0.7109 N   0  0  0  0  0  0  0  0  0  0  0  0
    0.0495    1.6721    4.6357 H   0  0  0  0  0  0  0  0  0  0  0  0
    0.2782    2.2923    2.9961 H   0  0  0  0  0  0  0  0  0  0  0  0
    1.4272    1.1279    3.6708 H   0  0  0  0  0  0  0  0  0  0  0  0
   -0.3494   -0.6197    3.7103 H   0  0  0  0  0  0  0  0  0  0  0  0
   -1.5132    0.5595    3.0270 H   0  0  0  0  0  0  0  0  0  0  0  0
    2.6058   -2.4237   -0.1983 H   0  0  0  0  0  0  0  0  0  0  0  0
   -0.6564    0.8816   -2.1138 H   0  0  0  0  0  0  0  0  0  0  0  0
  1  2  1  0  0  0  0
  2  3  1  0  0  0  0
  3  4  1  0  0  0  0
  4  5  2  0  0  0  0
  5  6  1  0  0  0  0
  6  7  2  0  0  0  0
  7  8  1  0  0  0  0
  7  9  1  0  0  0  0
  9 10  1  0  0  0  0
  9 11  2  0  0  0  0
 11 12  1  0  0  0  0
 12 13  2  0  0  0  0
 13  3  1  0  0  0  0
 12  5  1  0  0  0  0
  1 14  1  0  0  0  0
  1 15  1  0  0  0  0
  1 16  1  0  0  0  0
  2 17  1  0  0  0  0
  2 18  1  0  0  0  0
  6 19  1  0  0  0  0
 11 20  1  0  0  0  0
M  END
