
  xtb     01172214483D
 energy: -86.171696138574 gnorm: 0.000603773539 xtb: 6.4.1 (unknown)
 44 48  0     0  0            999 V2000
   -3.1357   -6.6755    2.1376 C   0  0  0  0  0  0  0  0  0  0  0  0
   -1.6283   -6.7789    1.8939 C   0  0  0  0  0  0  0  0  0  0  0  0
   -0.9744   -5.4475    2.0265 C   0  0  0  0  0  0  0  0  0  0  0  0
   -1.1012   -4.2401    0.7944 S   0  0  0  0  0  0  0  0  0  0  0  0
   -0.1904   -3.0782    1.7123 C   0  0  0  0  0  0  0  0  0  0  0  0
    0.0872   -1.7456    1.2039 C   0  0  0  0  0  0  0  0  0  0  0  0
    1.3773   -1.1946    1.2616 C   0  0  0  0  0  0  0  0  0  0  0  0
    2.5824   -1.7988    1.7284 C   0  0  0  0  0  0  0  0  0  0  0  0
    3.6456   -0.9745    1.6521 C   0  0  0  0  0  0  0  0  0  0  0  0
    3.2703    0.5829    1.0025 S   0  0  0  0  0  0  0  0  0  0  0  0
    1.6031    0.1227    0.7980 C   0  0  0  0  0  0  0  0  0  0  0  0
    0.5965    0.9244    0.2691 C   0  0  0  0  0  0  0  0  0  0  0  0
    0.8560    2.2878   -0.1612 C   0  0  0  0  0  0  0  0  0  0  0  0
    2.2142    2.6902   -1.1688 S   0  0  0  0  0  0  0  0  0  0  0  0
    1.8083    4.3713   -1.1998 C   0  0  0  0  0  0  0  0  0  0  0  0
    2.6566    5.3728   -1.9036 C   0  0  0  0  0  0  0  0  0  0  0  0
    3.9203    5.6830   -1.0980 C   0  0  0  0  0  0  0  0  0  0  0  0
    0.6868    4.5914   -0.4588 C   0  0  0  0  0  0  0  0  0  0  0  0
    0.1364    5.8049   -0.2997 F   0  0  0  0  0  0  0  0  0  0  0  0
    0.1434    3.4201    0.1224 C   0  0  0  0  0  0  0  0  0  0  0  0
   -0.9392    3.4441    0.9119 F   0  0  0  0  0  0  0  0  0  0  0  0
   -0.6841    0.3573    0.1704 C   0  0  0  0  0  0  0  0  0  0  0  0
   -1.8693    0.9277   -0.3817 C   0  0  0  0  0  0  0  0  0  0  0  0
   -2.9332    0.1046   -0.3025 C   0  0  0  0  0  0  0  0  0  0  0  0
   -2.5778   -1.4189    0.4330 S   0  0  0  0  0  0  0  0  0  0  0  0
   -0.9112   -0.9578    0.6399 C   0  0  0  0  0  0  0  0  0  0  0  0
    0.1780   -3.6263    2.9099 C   0  0  0  0  0  0  0  0  0  0  0  0
    0.8569   -2.9651    3.8574 F   0  0  0  0  0  0  0  0  0  0  0  0
   -0.2711   -4.9576    3.0852 C   0  0  0  0  0  0  0  0  0  0  0  0
   -0.0149   -5.6718    4.1921 F   0  0  0  0  0  0  0  0  0  0  0  0
   -3.5876   -5.9952    1.4193 H   0  0  0  0  0  0  0  0  0  0  0  0
   -3.5975   -7.6534    2.0327 H   0  0  0  0  0  0  0  0  0  0  0  0
   -3.3325   -6.3039    3.1403 H   0  0  0  0  0  0  0  0  0  0  0  0
   -1.4499   -7.1738    0.8916 H   0  0  0  0  0  0  0  0  0  0  0  0
   -1.1827   -7.4592    2.6225 H   0  0  0  0  0  0  0  0  0  0  0  0
    2.6434   -2.8061    2.0952 H   0  0  0  0  0  0  0  0  0  0  0  0
    4.6588   -1.1793    1.9375 H   0  0  0  0  0  0  0  0  0  0  0  0
    2.9387    4.9855   -2.8848 H   0  0  0  0  0  0  0  0  0  0  0  0
    2.0740    6.2859   -2.0420 H   0  0  0  0  0  0  0  0  0  0  0  0
    3.6583    6.0906   -0.1246 H   0  0  0  0  0  0  0  0  0  0  0  0
    4.5046    4.7776   -0.9504 H   0  0  0  0  0  0  0  0  0  0  0  0
    4.5294    6.4110   -1.6269 H   0  0  0  0  0  0  0  0  0  0  0  0
   -1.9131    1.9059   -0.8223 H   0  0  0  0  0  0  0  0  0  0  0  0
   -3.9346    0.2893   -0.6389 H   0  0  0  0  0  0  0  0  0  0  0  0
  1  2  1  0  0  0  0
  2  3  1  0  0  0  0
  3  4  1  0  0  0  0
  4  5  1  0  0  0  0
  5  6  1  0  0  0  0
  6  7  2  0  0  0  0
  7  8  1  0  0  0  0
  8  9  2  0  0  0  0
  9 10  1  0  0  0  0
 10 11  1  0  0  0  0
 11 12  2  0  0  0  0
 12 13  1  0  0  0  0
 13 14  1  0  0  0  0
 14 15  1  0  0  0  0
 15 16  1  0  0  0  0
 16 17  1  0  0  0  0
 15 18  2  0  0  0  0
 18 19  1  0  0  0  0
 18 20  1  0  0  0  0
 20 21  1  0  0  0  0
 12 22  1  0  0  0  0
 22 23  1  0  0  0  0
 23 24  2  0  0  0  0
 24 25  1  0  0  0  0
 25 26  1  0  0  0  0
  5 27  2  0  0  0  0
 27 28  1  0  0  0  0
 27 29  1  0  0  0  0
 29 30  1  0  0  0  0
 29  3  2  0  0  0  0
 26  6  1  0  0  0  0
 11  7  1  0  0  0  0
 20 13  2  0  0  0  0
 26 22  2  0  0  0  0
  1 31  1  0  0  0  0
  1 32  1  0  0  0  0
  1 33  1  0  0  0  0
  2 34  1  0  0  0  0
  2 35  1  0  0  0  0
  8 36  1  0  0  0  0
  9 37  1  0  0  0  0
 16 38  1  0  0  0  0
 16 39  1  0  0  0  0
 17 40  1  0  0  0  0
 17 41  1  0  0  0  0
 17 42  1  0  0  0  0
 23 43  1  0  0  0  0
 24 44  1  0  0  0  0
M  END
