
  xtb     01172214483D
 energy: -19.050406934682 gnorm: 0.000253451654 xtb: 6.4.1 (unknown)
 15 15  0     0  0            999 V2000
   -0.5981   -1.0517    1.9569 C   0  0  0  0  0  0  0  0  0  0  0  0
    0.5489   -0.2919    1.3617 C   0  0  0  0  0  0  0  0  0  0  0  0
    0.6014   -0.0415   -0.0037 C   0  0  0  0  0  0  0  0  0  0  0  0
    1.6491    0.6768   -0.5519 C   0  0  0  0  0  0  0  0  0  0  0  0
    2.6624    1.1567    0.2600 C   0  0  0  0  0  0  0  0  0  0  0  0
    2.6202    0.9134    1.6220 C   0  0  0  0  0  0  0  0  0  0  0  0
    1.5710    0.1948    2.1669 C   0  0  0  0  0  0  0  0  0  0  0  0
   -1.0059   -1.7626    1.2418 H   0  0  0  0  0  0  0  0  0  0  0  0
   -1.3950   -0.3619    2.2377 H   0  0  0  0  0  0  0  0  0  0  0  0
   -0.2871   -1.5874    2.8508 H   0  0  0  0  0  0  0  0  0  0  0  0
   -0.1861   -0.4147   -0.6436 H   0  0  0  0  0  0  0  0  0  0  0  0
    1.6755    0.8615   -1.6162 H   0  0  0  0  0  0  0  0  0  0  0  0
    3.4815    1.7168   -0.1669 H   0  0  0  0  0  0  0  0  0  0  0  0
    3.4081    1.2837    2.2622 H   0  0  0  0  0  0  0  0  0  0  0  0
    1.5448    0.0070    3.2313 H   0  0  0  0  0  0  0  0  0  0  0  0
  1  2  1  0  0  0  0
  2  3  2  0  0  0  0
  3  4  1  0  0  0  0
  4  5  2  0  0  0  0
  5  6  1  0  0  0  0
  6  7  2  0  0  0  0
  7  2  1  0  0  0  0
  1  8  1  0  0  0  0
  1  9  1  0  0  0  0
  1 10  1  0  0  0  0
  3 11  1  0  0  0  0
  4 12  1  0  0  0  0
  5 13  1  0  0  0  0
  6 14  1  0  0  0  0
  7 15  1  0  0  0  0
M  END
