
  xtb     01172214483D
 energy: -101.250552589330 gnorm: 0.000542208596 xtb: 6.4.1 (unknown)
 50 56  0     0  0            999 V2000
    5.9021   -1.9436    4.8029 C   0  0  0  0  0  0  0  0  0  0  0  0
    6.1329   -0.9855    3.6325 C   0  0  0  0  0  0  0  0  0  0  0  0
    5.0274   -1.0765    2.6387 C   0  0  0  0  0  0  0  0  0  0  0  0
    3.4559   -0.4246    2.9538 S   0  0  0  0  0  0  0  0  0  0  0  0
    2.8254   -0.9923    1.4410 C   0  0  0  0  0  0  0  0  0  0  0  0
    1.4437   -0.7765    1.0303 C   0  0  0  0  0  0  0  0  0  0  0  0
    0.9268    0.4967    0.8362 C   0  0  0  0  0  0  0  0  0  0  0  0
    1.8290    1.9814    1.0568 S   0  0  0  0  0  0  0  0  0  0  0  0
    0.4569    2.9051    0.5236 C   0  0  0  0  0  0  0  0  0  0  0  0
    0.2320    4.2804    0.3220 C   0  0  0  0  0  0  0  0  0  0  0  0
   -1.0213    4.5034   -0.1525 C   0  0  0  0  0  0  0  0  0  0  0  0
   -1.9502    3.0629   -0.3590 S   0  0  0  0  0  0  0  0  0  0  0  0
   -0.6301    2.1070    0.2089 C   0  0  0  0  0  0  0  0  0  0  0  0
   -0.3979    0.7169    0.3838 C   0  0  0  0  0  0  0  0  0  0  0  0
   -1.2476   -0.3689    0.1367 C   0  0  0  0  0  0  0  0  0  0  0  0
   -2.6294   -0.1531   -0.2742 C   0  0  0  0  0  0  0  0  0  0  0  0
   -3.2597   -0.7210   -1.7870 S   0  0  0  0  0  0  0  0  0  0  0  0
   -4.8313   -0.0692   -1.4719 C   0  0  0  0  0  0  0  0  0  0  0  0
   -5.9367   -0.1604   -2.4658 C   0  0  0  0  0  0  0  0  0  0  0  0
   -5.7060    0.7975   -3.6364 C   0  0  0  0  0  0  0  0  0  0  0  0
   -4.8455    0.5479   -0.2580 C   0  0  0  0  0  0  0  0  0  0  0  0
   -5.9349    1.1396    0.2542 F   0  0  0  0  0  0  0  0  0  0  0  0
   -3.6042    0.5014    0.4219 C   0  0  0  0  0  0  0  0  0  0  0  0
   -3.4164    1.0212    1.6417 F   0  0  0  0  0  0  0  0  0  0  0  0
   -0.7308   -1.6421    0.3308 C   0  0  0  0  0  0  0  0  0  0  0  0
   -1.6330   -3.1268    0.1101 S   0  0  0  0  0  0  0  0  0  0  0  0
   -0.2609   -4.0505    0.6433 C   0  0  0  0  0  0  0  0  0  0  0  0
   -0.0359   -5.4259    0.8448 C   0  0  0  0  0  0  0  0  0  0  0  0
    1.2173   -5.6488    1.3194 C   0  0  0  0  0  0  0  0  0  0  0  0
    2.1462   -4.2084    1.5258 S   0  0  0  0  0  0  0  0  0  0  0  0
    0.8261   -3.2524    0.9580 C   0  0  0  0  0  0  0  0  0  0  0  0
    0.5940   -1.8623    0.7832 C   0  0  0  0  0  0  0  0  0  0  0  0
    3.8002   -1.6470    0.7449 C   0  0  0  0  0  0  0  0  0  0  0  0
    3.6123   -2.1667   -0.4749 F   0  0  0  0  0  0  0  0  0  0  0  0
    5.0415   -1.6936    1.4247 C   0  0  0  0  0  0  0  0  0  0  0  0
    6.1308   -2.2854    0.9124 F   0  0  0  0  0  0  0  0  0  0  0  0
    5.8427   -2.9689    4.4467 H   0  0  0  0  0  0  0  0  0  0  0  0
    4.9737   -1.6980    5.3128 H   0  0  0  0  0  0  0  0  0  0  0  0
    6.7215   -1.8689    5.5125 H   0  0  0  0  0  0  0  0  0  0  0  0
    7.0694   -1.2354    3.1301 H   0  0  0  0  0  0  0  0  0  0  0  0
    6.2012    0.0369    4.0098 H   0  0  0  0  0  0  0  0  0  0  0  0
    0.9560    5.0495    0.5157 H   0  0  0  0  0  0  0  0  0  0  0  0
   -1.4723    5.4437   -0.4001 H   0  0  0  0  0  0  0  0  0  0  0  0
   -6.8733    0.0895   -1.9635 H   0  0  0  0  0  0  0  0  0  0  0  0
   -6.0050   -1.1829   -2.8430 H   0  0  0  0  0  0  0  0  0  0  0  0
   -4.7775    0.5520   -4.1461 H   0  0  0  0  0  0  0  0  0  0  0  0
   -5.6466    1.8229   -3.2803 H   0  0  0  0  0  0  0  0  0  0  0  0
   -6.5253    0.7227   -4.3460 H   0  0  0  0  0  0  0  0  0  0  0  0
   -0.7599   -6.1949    0.6511 H   0  0  0  0  0  0  0  0  0  0  0  0
    1.6683   -6.5892    1.5669 H   0  0  0  0  0  0  0  0  0  0  0  0
  1  2  1  0  0  0  0
  2  3  1  0  0  0  0
  3  4  1  0  0  0  0
  4  5  1  0  0  0  0
  5  6  1  0  0  0  0
  6  7  2  0  0  0  0
  7  8  1  0  0  0  0
  8  9  1  0  0  0  0
  9 10  1  0  0  0  0
 10 11  2  0  0  0  0
 11 12  1  0  0  0  0
 12 13  1  0  0  0  0
 13 14  1  0  0  0  0
 14 15  2  0  0  0  0
 15 16  1  0  0  0  0
 16 17  1  0  0  0  0
 17 18  1  0  0  0  0
 18 19  1  0  0  0  0
 19 20  1  0  0  0  0
 18 21  2  0  0  0  0
 21 22  1  0  0  0  0
 21 23  1  0  0  0  0
 23 24  1  0  0  0  0
 15 25  1  0  0  0  0
 25 26  1  0  0  0  0
 26 27  1  0  0  0  0
 27 28  1  0  0  0  0
 28 29  2  0  0  0  0
 29 30  1  0  0  0  0
 30 31  1  0  0  0  0
 31 32  1  0  0  0  0
  5 33  2  0  0  0  0
 33 34  1  0  0  0  0
 33 35  1  0  0  0  0
 35 36  1  0  0  0  0
 35  3  2  0  0  0  0
 32  6  1  0  0  0  0
 14  7  1  0  0  0  0
 23 16  2  0  0  0  0
 32 25  2  0  0  0  0
 13  9  2  0  0  0  0
 31 27  2  0  0  0  0
  1 37  1  0  0  0  0
  1 38  1  0  0  0  0
  1 39  1  0  0  0  0
  2 40  1  0  0  0  0
  2 41  1  0  0  0  0
 10 42  1  0  0  0  0
 11 43  1  0  0  0  0
 19 44  1  0  0  0  0
 19 45  1  0  0  0  0
 20 46  1  0  0  0  0
 20 47  1  0  0  0  0
 20 48  1  0  0  0  0
 28 49  1  0  0  0  0
 29 50  1  0  0  0  0
M  END
