
  xtb     01172214493D
 energy: -26.350368938562 gnorm: 0.000514633354 xtb: 6.4.1 (unknown)
 17 17  0     0  0            999 V2000
   -0.5844    0.0997   -1.2946 C   0  0  0  0  0  0  0  0  0  0  0  0
    0.1822    0.7433   -0.1474 C   0  0  0  0  0  0  0  0  0  0  0  0
    0.8296   -0.2926    0.7506 C   0  0  0  0  0  0  0  0  0  0  0  0
    0.7301   -1.4822    0.5522 O   0  0  0  0  0  0  0  0  0  0  0  0
    1.5981    0.2325    1.8955 C   0  0  0  0  0  0  0  0  0  0  0  0
    2.2562   -0.6342    2.8167 C   0  0  0  0  0  0  0  0  0  0  0  0
    2.9062    0.0335    3.7950 C   0  0  0  0  0  0  0  0  0  0  0  0
    2.7400    1.7418    3.6290 S   0  0  0  0  0  0  0  0  0  0  0  0
    1.7831    1.5486    2.2243 C   0  0  0  0  0  0  0  0  0  0  0  0
   -1.3648   -0.5498   -0.9065 H   0  0  0  0  0  0  0  0  0  0  0  0
   -1.0391    0.8608   -1.9239 H   0  0  0  0  0  0  0  0  0  0  0  0
    0.0852   -0.5054   -1.9004 H   0  0  0  0  0  0  0  0  0  0  0  0
    0.9670    1.3981   -0.5342 H   0  0  0  0  0  0  0  0  0  0  0  0
   -0.4880    1.3535    0.4631 H   0  0  0  0  0  0  0  0  0  0  0  0
    2.2226   -1.7038    2.7199 H   0  0  0  0  0  0  0  0  0  0  0  0
    3.4778   -0.3600    4.6114 H   0  0  0  0  0  0  0  0  0  0  0  0
    1.4150    2.4232    1.7263 H   0  0  0  0  0  0  0  0  0  0  0  0
  1  2  1  0  0  0  0
  2  3  1  0  0  0  0
  3  4  2  0  0  0  0
  3  5  1  0  0  0  0
  5  6  1  0  0  0  0
  6  7  2  0  0  0  0
  7  8  1  0  0  0  0
  8  9  1  0  0  0  0
  9  5  2  0  0  0  0
  1 10  1  0  0  0  0
  1 11  1  0  0  0  0
  1 12  1  0  0  0  0
  2 13  1  0  0  0  0
  2 14  1  0  0  0  0
  6 15  1  0  0  0  0
  7 16  1  0  0  0  0
  9 17  1  0  0  0  0
M  END
