
  xtb     01172214493D
 energy: -21.354131286283 gnorm: 0.000590678958 xtb: 6.4.1 (unknown)
 12 13  0     0  0            999 V2000
   -0.5976   -1.7605    1.5830 C   0  0  0  0  0  0  0  0  0  0  0  0
    0.4019   -2.2953    0.8375 C   0  0  0  0  0  0  0  0  0  0  0  0
    1.4607   -1.3770    0.6791 C   0  0  0  0  0  0  0  0  0  0  0  0
    2.9914   -1.3956   -0.1222 S   0  0  0  0  0  0  0  0  0  0  0  0
    3.3036    0.2251    0.4051 C   0  0  0  0  0  0  0  0  0  0  0  0
    2.3042    0.7598    1.1506 C   0  0  0  0  0  0  0  0  0  0  0  0
    1.2453   -0.1584    1.3090 C   0  0  0  0  0  0  0  0  0  0  0  0
   -0.2854   -0.1398    2.1103 S   0  0  0  0  0  0  0  0  0  0  0  0
   -1.5236   -2.2190    1.8680 H   0  0  0  0  0  0  0  0  0  0  0  0
    0.3877   -3.2864    0.4234 H   0  0  0  0  0  0  0  0  0  0  0  0
    4.2297    0.6836    0.1201 H   0  0  0  0  0  0  0  0  0  0  0  0
    2.3184    1.7509    1.5647 H   0  0  0  0  0  0  0  0  0  0  0  0
  1  2  2  0  0  0  0
  2  3  1  0  0  0  0
  3  4  1  0  0  0  0
  4  5  1  0  0  0  0
  5  6  2  0  0  0  0
  6  7  1  0  0  0  0
  7  8  1  0  0  0  0
  8  1  1  0  0  0  0
  7  3  2  0  0  0  0
  1  9  1  0  0  0  0
  2 10  1  0  0  0  0
  5 11  1  0  0  0  0
  6 12  1  0  0  0  0
M  END
