
  xtb     01172214493D
 energy: -108.138246013295 gnorm: 0.000281800417 xtb: 6.4.1 (unknown)
 74 78  0     0  0            999 V2000
    6.9416    1.0386    6.5777 C   0  0  0  0  0  0  0  0  0  0  0  0
    6.0632    1.2510    5.3500 C   0  0  0  0  0  0  0  0  0  0  0  0
    5.3225   -0.3787    4.6784 Si  0  0  0  0  0  4  0  0  0  0  0  0
    4.0259   -1.0366    5.9225 C   0  0  0  0  0  0  0  0  0  0  0  0
    3.5337   -2.4529    5.6419 C   0  0  0  0  0  0  0  0  0  0  0  0
    6.6950   -1.6610    4.2983 C   0  0  0  0  0  0  0  0  0  0  0  0
    6.3383   -2.6408    3.1828 C   0  0  0  0  0  0  0  0  0  0  0  0
    4.4201    0.0040    3.0610 C   0  0  0  0  0  0  0  0  0  0  0  0
    2.7491   -0.3566    2.8175 S   0  0  0  0  0  0  0  0  0  0  0  0
    2.7660    0.2371    1.1825 C   0  0  0  0  0  0  0  0  0  0  0  0
    1.5991    0.1584    0.3274 C   0  0  0  0  0  0  0  0  0  0  0  0
    0.2951    0.4045    0.7927 C   0  0  0  0  0  0  0  0  0  0  0  0
   -0.1213    0.8386    2.0869 C   0  0  0  0  0  0  0  0  0  0  0  0
   -1.4545    1.0124    2.1804 C   0  0  0  0  0  0  0  0  0  0  0  0
   -2.3046    0.6650    0.7159 S   0  0  0  0  0  0  0  0  0  0  0  0
   -0.8072    0.2722   -0.0839 C   0  0  0  0  0  0  0  0  0  0  0  0
   -0.6815   -0.0824   -1.4228 C   0  0  0  0  0  0  0  0  0  0  0  0
   -1.8301   -0.1901   -2.3022 C   0  0  0  0  0  0  0  0  0  0  0  0
   -1.9722    0.3153   -3.5642 C   0  0  0  0  0  0  0  0  0  0  0  0
   -3.2340    0.0156   -4.1140 C   0  0  0  0  0  0  0  0  0  0  0  0
   -3.7055    0.5491   -5.6775 Cl  0  0  0  0  0  0  0  0  0  0  0  0
   -4.0588   -0.7224   -3.3150 C   0  0  0  0  0  0  0  0  0  0  0  0
   -5.8355   -1.2833   -3.6348 Si  0  0  0  0  0  4  0  0  0  0  0  0
   -6.3129   -2.3112   -2.0956 C   0  0  0  0  0  0  0  0  0  0  0  0
   -7.7422   -2.8413   -2.1211 C   0  0  0  0  0  0  0  0  0  0  0  0
   -6.9014    0.3002   -3.7810 C   0  0  0  0  0  0  0  0  0  0  0  0
   -6.7140    1.2569   -2.6060 C   0  0  0  0  0  0  0  0  0  0  0  0
   -5.8842   -2.3336   -5.2341 C   0  0  0  0  0  0  0  0  0  0  0  0
   -7.2474   -2.3333   -5.9189 C   0  0  0  0  0  0  0  0  0  0  0  0
   -3.2635   -1.0437   -1.8163 S   0  0  0  0  0  0  0  0  0  0  0  0
    0.6195   -0.3304   -1.8886 C   0  0  0  0  0  0  0  0  0  0  0  0
    1.0191   -0.7792   -3.1831 C   0  0  0  0  0  0  0  0  0  0  0  0
    2.3489   -0.9685   -3.2849 C   0  0  0  0  0  0  0  0  0  0  0  0
    3.2098   -0.6123   -1.8275 S   0  0  0  0  0  0  0  0  0  0  0  0
    1.7228   -0.1991   -1.0150 C   0  0  0  0  0  0  0  0  0  0  0  0
    4.0171    0.6832    0.8530 C   0  0  0  0  0  0  0  0  0  0  0  0
    4.9292    0.5485    1.9163 C   0  0  0  0  0  0  0  0  0  0  0  0
    6.5737    1.0232    1.7790 Cl  0  0  0  0  0  0  0  0  0  0  0  0
    7.7725    0.3779    6.3439 H   0  0  0  0  0  0  0  0  0  0  0  0
    6.3710    0.5926    7.3883 H   0  0  0  0  0  0  0  0  0  0  0  0
    7.3482    1.9847    6.9301 H   0  0  0  0  0  0  0  0  0  0  0  0
    5.2600    1.9442    5.6036 H   0  0  0  0  0  0  0  0  0  0  0  0
    6.6558    1.7365    4.5756 H   0  0  0  0  0  0  0  0  0  0  0  0
    4.4496   -1.0091    6.9272 H   0  0  0  0  0  0  0  0  0  0  0  0
    3.1665   -0.3638    5.9331 H   0  0  0  0  0  0  0  0  0  0  0  0
    4.3564   -3.1618    5.6871 H   0  0  0  0  0  0  0  0  0  0  0  0
    2.7882   -2.7524    6.3765 H   0  0  0  0  0  0  0  0  0  0  0  0
    3.0792   -2.5128    4.6561 H   0  0  0  0  0  0  0  0  0  0  0  0
    6.9249   -2.2227    5.2050 H   0  0  0  0  0  0  0  0  0  0  0  0
    7.6111   -1.1381    4.0201 H   0  0  0  0  0  0  0  0  0  0  0  0
    7.1422   -3.3592    3.0323 H   0  0  0  0  0  0  0  0  0  0  0  0
    6.1776   -2.1113    2.2471 H   0  0  0  0  0  0  0  0  0  0  0  0
    5.4303   -3.1891    3.4195 H   0  0  0  0  0  0  0  0  0  0  0  0
    0.5550    1.0220    2.9006 H   0  0  0  0  0  0  0  0  0  0  0  0
   -2.0175    1.3323    3.0353 H   0  0  0  0  0  0  0  0  0  0  0  0
   -1.2288    0.9096   -4.0637 H   0  0  0  0  0  0  0  0  0  0  0  0
   -6.1754   -1.7035   -1.2000 H   0  0  0  0  0  0  0  0  0  0  0  0
   -5.6259   -3.1533   -1.9958 H   0  0  0  0  0  0  0  0  0  0  0  0
   -7.8881   -3.5099   -2.9656 H   0  0  0  0  0  0  0  0  0  0  0  0
   -7.9658   -3.3943   -1.2104 H   0  0  0  0  0  0  0  0  0  0  0  0
   -8.4549   -2.0246   -2.2051 H   0  0  0  0  0  0  0  0  0  0  0  0
   -6.6534    0.8252   -4.7044 H   0  0  0  0  0  0  0  0  0  0  0  0
   -7.9548    0.0282   -3.8549 H   0  0  0  0  0  0  0  0  0  0  0  0
   -6.9913    0.7790   -1.6698 H   0  0  0  0  0  0  0  0  0  0  0  0
   -5.6752    1.5701   -2.5305 H   0  0  0  0  0  0  0  0  0  0  0  0
   -7.3299    2.1456   -2.7309 H   0  0  0  0  0  0  0  0  0  0  0  0
   -5.1407   -1.9673   -5.9417 H   0  0  0  0  0  0  0  0  0  0  0  0
   -5.6049   -3.3622   -5.0005 H   0  0  0  0  0  0  0  0  0  0  0  0
   -7.5223   -1.3264   -6.2215 H   0  0  0  0  0  0  0  0  0  0  0  0
   -7.2314   -2.9625   -6.8071 H   0  0  0  0  0  0  0  0  0  0  0  0
   -8.0186   -2.7082   -5.2512 H   0  0  0  0  0  0  0  0  0  0  0  0
    0.3259   -0.9670   -3.9820 H   0  0  0  0  0  0  0  0  0  0  0  0
    2.9061   -1.2997   -4.1393 H   0  0  0  0  0  0  0  0  0  0  0  0
    4.2759    1.1206   -0.0932 H   0  0  0  0  0  0  0  0  0  0  0  0
  1  2  1  0  0  0  0
  2  3  1  0  0  0  0
  3  4  1  0  0  0  0
  4  5  1  0  0  0  0
  3  6  1  0  0  0  0
  6  7  1  0  0  0  0
  3  8  1  0  0  0  0
  8  9  1  0  0  0  0
  9 10  1  0  0  0  0
 10 11  1  0  0  0  0
 11 12  2  0  0  0  0
 12 13  1  0  0  0  0
 13 14  2  0  0  0  0
 14 15  1  0  0  0  0
 15 16  1  0  0  0  0
 16 17  2  0  0  0  0
 17 18  1  0  0  0  0
 18 19  2  0  0  0  0
 19 20  1  0  0  0  0
 20 21  1  0  0  0  0
 20 22  2  0  0  0  0
 22 23  1  0  0  0  0
 23 24  1  0  0  0  0
 24 25  1  0  0  0  0
 23 26  1  0  0  0  0
 26 27  1  0  0  0  0
 23 28  1  0  0  0  0
 28 29  1  0  0  0  0
 22 30  1  0  0  0  0
 17 31  1  0  0  0  0
 31 32  1  0  0  0  0
 32 33  2  0  0  0  0
 33 34  1  0  0  0  0
 34 35  1  0  0  0  0
 10 36  2  0  0  0  0
 36 37  1  0  0  0  0
 37 38  1  0  0  0  0
 37  8  2  0  0  0  0
 35 11  1  0  0  0  0
 16 12  1  0  0  0  0
 30 18  1  0  0  0  0
 35 31  2  0  0  0  0
  1 39  1  0  0  0  0
  1 40  1  0  0  0  0
  1 41  1  0  0  0  0
  2 42  1  0  0  0  0
  2 43  1  0  0  0  0
  4 44  1  0  0  0  0
  4 45  1  0  0  0  0
  5 46  1  0  0  0  0
  5 47  1  0  0  0  0
  5 48  1  0  0  0  0
  6 49  1  0  0  0  0
  6 50  1  0  0  0  0
  7 51  1  0  0  0  0
  7 52  1  0  0  0  0
  7 53  1  0  0  0  0
 13 54  1  0  0  0  0
 14 55  1  0  0  0  0
 19 56  1  0  0  0  0
 24 57  1  0  0  0  0
 24 58  1  0  0  0  0
 25 59  1  0  0  0  0
 25 60  1  0  0  0  0
 25 61  1  0  0  0  0
 26 62  1  0  0  0  0
 26 63  1  0  0  0  0
 27 64  1  0  0  0  0
 27 65  1  0  0  0  0
 27 66  1  0  0  0  0
 28 67  1  0  0  0  0
 28 68  1  0  0  0  0
 29 69  1  0  0  0  0
 29 70  1  0  0  0  0
 29 71  1  0  0  0  0
 32 72  1  0  0  0  0
 33 73  1  0  0  0  0
 36 74  1  0  0  0  0
M  END
