
  xtb     01172214493D
 energy: -54.676218043044 gnorm: 0.000408040711 xtb: 6.4.1 (unknown)
 34 37  0     0  0            999 V2000
   -2.4835   -5.8019    1.3173 C   0  0  0  0  0  0  0  0  0  0  0  0
   -1.2166   -5.6855    0.4748 C   0  0  0  0  0  0  0  0  0  0  0  0
   -0.6227   -4.3894    0.6361 N   0  0  0  0  0  0  0  0  0  0  0  0
    0.2493   -4.1495    1.5789 N   0  0  0  0  0  0  0  0  0  0  0  0
    0.5326   -2.8469    1.4413 C   0  0  0  0  0  0  0  0  0  0  0  0
    1.4038   -2.0045    2.1579 C   0  0  0  0  0  0  0  0  0  0  0  0
    1.4742   -0.7014    1.7707 C   0  0  0  0  0  0  0  0  0  0  0  0
    0.7084   -0.1936    0.6876 C   0  0  0  0  0  0  0  0  0  0  0  0
   -0.1708   -1.0026   -0.0577 C   0  0  0  0  0  0  0  0  0  0  0  0
   -0.9338   -0.4958   -1.1432 C   0  0  0  0  0  0  0  0  0  0  0  0
   -0.8640    0.8076   -1.5300 C   0  0  0  0  0  0  0  0  0  0  0  0
    0.0004    1.6520   -0.8076 C   0  0  0  0  0  0  0  0  0  0  0  0
    0.2816    2.9553   -0.9434 N   0  0  0  0  0  0  0  0  0  0  0  0
    1.1544    3.1950   -0.0013 N   0  0  0  0  0  0  0  0  0  0  0  0
    1.6809    4.5116    0.2172 C   0  0  0  0  0  0  0  0  0  0  0  0
    0.8006    5.2842    1.1953 C   0  0  0  0  0  0  0  0  0  0  0  0
    1.4918    2.1877    0.7606 N   0  0  0  0  0  0  0  0  0  0  0  0
    0.7759    1.1618    0.2837 C   0  0  0  0  0  0  0  0  0  0  0  0
   -0.2430   -2.3567    0.3501 C   0  0  0  0  0  0  0  0  0  0  0  0
   -0.9610   -3.3819   -0.1250 N   0  0  0  0  0  0  0  0  0  0  0  0
   -3.2074   -5.0511    1.0100 H   0  0  0  0  0  0  0  0  0  0  0  0
   -2.9235   -6.7871    1.1908 H   0  0  0  0  0  0  0  0  0  0  0  0
   -2.2480   -5.6541    2.3684 H   0  0  0  0  0  0  0  0  0  0  0  0
   -1.4492   -5.8117   -0.5844 H   0  0  0  0  0  0  0  0  0  0  0  0
   -0.4790   -6.4260    0.7899 H   0  0  0  0  0  0  0  0  0  0  0  0
    1.9826   -2.3969    2.9785 H   0  0  0  0  0  0  0  0  0  0  0  0
    2.1223   -0.0046    2.2800 H   0  0  0  0  0  0  0  0  0  0  0  0
   -1.5783   -1.1937   -1.6557 H   0  0  0  0  0  0  0  0  0  0  0  0
   -1.4396    1.1990   -2.3533 H   0  0  0  0  0  0  0  0  0  0  0  0
    1.7122    5.0172   -0.7498 H   0  0  0  0  0  0  0  0  0  0  0  0
    2.6905    4.4004    0.6175 H   0  0  0  0  0  0  0  0  0  0  0  0
   -0.2084    5.3727    0.8001 H   0  0  0  0  0  0  0  0  0  0  0  0
    0.7600    4.7669    2.1509 H   0  0  0  0  0  0  0  0  0  0  0  0
    1.2056    6.2800    1.3515 H   0  0  0  0  0  0  0  0  0  0  0  0
  1  2  1  0  0  0  0
  2  3  1  0  0  0  0
  3  4  1  0  0  0  0
  4  5  2  0  0  0  0
  5  6  1  0  0  0  0
  6  7  2  0  0  0  0
  7  8  1  0  0  0  0
  8  9  2  0  0  0  0
  9 10  1  0  0  0  0
 10 11  2  0  0  0  0
 11 12  1  0  0  0  0
 12 13  2  0  0  0  0
 13 14  1  0  0  0  0
 14 15  1  0  0  0  0
 15 16  1  0  0  0  0
 14 17  1  0  0  0  0
 17 18  2  0  0  0  0
  9 19  1  0  0  0  0
 19 20  2  0  0  0  0
 20  3  1  0  0  0  0
 19  5  1  0  0  0  0
 18  8  1  0  0  0  0
 18 12  1  0  0  0  0
  1 21  1  0  0  0  0
  1 22  1  0  0  0  0
  1 23  1  0  0  0  0
  2 24  1  0  0  0  0
  2 25  1  0  0  0  0
  6 26  1  0  0  0  0
  7 27  1  0  0  0  0
 10 28  1  0  0  0  0
 11 29  1  0  0  0  0
 15 30  1  0  0  0  0
 15 31  1  0  0  0  0
 16 32  1  0  0  0  0
 16 33  1  0  0  0  0
 16 34  1  0  0  0  0
M  END
