
  xtb     01172214503D
 energy: -48.074813608801 gnorm: 0.000946935765 xtb: 6.4.1 (unknown)
 25 26  0     0  0            999 V2000
   -1.1570    2.6202    2.3646 C   0  0  0  0  0  0  0  0  0  0  0  0
   -0.5486    1.5639    1.8217 C   0  0  0  0  0  0  0  0  0  0  0  0
    0.9465    1.4681    1.7535 C   0  0  0  0  0  0  0  0  0  0  0  0
    1.7348    2.2826    2.1674 O   0  0  0  0  0  0  0  0  0  0  0  0
    1.2273    0.1872    1.0822 C   0  0  0  0  0  0  0  0  0  0  0  0
    2.4545   -0.3653    0.7667 C   0  0  0  0  0  0  0  0  0  0  0  0
    2.5084   -1.5932    0.1177 C   0  0  0  0  0  0  0  0  0  0  0  0
    3.7995   -2.2340   -0.2690 C   0  0  0  0  0  0  0  0  0  0  0  0
    1.2934   -2.2169   -0.1834 C   0  0  0  0  0  0  0  0  0  0  0  0
    1.3329   -3.4052   -0.8102 F   0  0  0  0  0  0  0  0  0  0  0  0
    0.0513   -1.6898    0.1243 C   0  0  0  0  0  0  0  0  0  0  0  0
    0.0172   -0.4606    0.7684 C   0  0  0  0  0  0  0  0  0  0  0  0
   -1.1054    0.3540    1.2120 C   0  0  0  0  0  0  0  0  0  0  0  0
   -2.4282    0.0496    1.0836 C   0  0  0  0  0  0  0  0  0  0  0  0
   -2.9178   -1.1383    0.4944 C   0  0  0  0  0  0  0  0  0  0  0  0
   -3.3704   -2.0838    0.0293 N   0  0  0  0  0  0  0  0  0  0  0  0
   -3.4865    0.8784    1.5205 C   0  0  0  0  0  0  0  0  0  0  0  0
   -4.3899    1.5046    1.8487 N   0  0  0  0  0  0  0  0  0  0  0  0
   -0.5460    3.4153    2.7624 H   0  0  0  0  0  0  0  0  0  0  0  0
   -2.2242    2.7335    2.4316 H   0  0  0  0  0  0  0  0  0  0  0  0
    3.3606    0.1612    1.0251 H   0  0  0  0  0  0  0  0  0  0  0  0
    3.7718   -3.3030   -0.0663 H   0  0  0  0  0  0  0  0  0  0  0  0
    3.9671   -2.1093   -1.3394 H   0  0  0  0  0  0  0  0  0  0  0  0
    4.6304   -1.7838    0.2665 H   0  0  0  0  0  0  0  0  0  0  0  0
   -0.8361   -2.2400   -0.1425 H   0  0  0  0  0  0  0  0  0  0  0  0
  1  2  2  0  0  0  0
  2  3  1  0  0  0  0
  3  4  2  0  0  0  0
  3  5  1  0  0  0  0
  5  6  2  0  0  0  0
  6  7  1  0  0  0  0
  7  8  1  0  0  0  0
  7  9  2  0  0  0  0
  9 10  1  0  0  0  0
  9 11  1  0  0  0  0
 11 12  2  0  0  0  0
 12 13  1  0  0  0  0
 13 14  2  0  0  0  0
 14 15  1  0  0  0  0
 15 16  3  0  0  0  0
 14 17  1  0  0  0  0
 17 18  3  0  0  0  0
 13  2  1  0  0  0  0
 12  5  1  0  0  0  0
  1 19  1  0  0  0  0
  1 20  1  0  0  0  0
  6 21  1  0  0  0  0
  8 22  1  0  0  0  0
  8 23  1  0  0  0  0
  8 24  1  0  0  0  0
 11 25  1  0  0  0  0
M  END
