
  xtb     01172214503D
 energy: -47.020725932873 gnorm: 0.000573304955 xtb: 6.4.1 (unknown)
 28 29  0     0  0            999 V2000
   -2.3520   -2.8086   -2.2526 C   0  0  0  0  0  0  0  0  0  0  0  0
   -1.5626   -1.9608   -1.5916 C   0  0  0  0  0  0  0  0  0  0  0  0
   -1.3155   -2.1001   -0.1180 C   0  0  0  0  0  0  0  0  0  0  0  0
   -1.7823   -2.9473    0.6059 O   0  0  0  0  0  0  0  0  0  0  0  0
   -0.4029   -1.0022    0.2303 C   0  0  0  0  0  0  0  0  0  0  0  0
    0.1425   -0.6822    1.4582 C   0  0  0  0  0  0  0  0  0  0  0  0
    0.9971    0.4090    1.5666 C   0  0  0  0  0  0  0  0  0  0  0  0
    1.5940    0.7619    2.8900 C   0  0  0  0  0  0  0  0  0  0  0  0
    1.2949    1.1745    0.4258 C   0  0  0  0  0  0  0  0  0  0  0  0
    2.2129    2.3495    0.5300 C   0  0  0  0  0  0  0  0  0  0  0  0
    0.7422    0.8480   -0.8075 C   0  0  0  0  0  0  0  0  0  0  0  0
   -0.1096   -0.2413   -0.9172 C   0  0  0  0  0  0  0  0  0  0  0  0
   -0.8078   -0.7981   -2.0653 C   0  0  0  0  0  0  0  0  0  0  0  0
   -0.7707   -0.3283   -3.3461 C   0  0  0  0  0  0  0  0  0  0  0  0
   -1.4616   -0.9075   -4.4337 C   0  0  0  0  0  0  0  0  0  0  0  0
   -1.9905   -1.3301   -5.3599 N   0  0  0  0  0  0  0  0  0  0  0  0
   -0.0357    0.8061   -3.7557 C   0  0  0  0  0  0  0  0  0  0  0  0
    0.5394    1.7184   -4.1473 N   0  0  0  0  0  0  0  0  0  0  0  0
   -2.8197   -3.6102   -1.7026 H   0  0  0  0  0  0  0  0  0  0  0  0
   -2.5547   -2.7462   -3.3068 H   0  0  0  0  0  0  0  0  0  0  0  0
   -0.1001   -1.2840    2.3213 H   0  0  0  0  0  0  0  0  0  0  0  0
    1.2623    0.0704    3.6593 H   0  0  0  0  0  0  0  0  0  0  0  0
    2.6819    0.7310    2.8396 H   0  0  0  0  0  0  0  0  0  0  0  0
    1.3080    1.7717    3.1821 H   0  0  0  0  0  0  0  0  0  0  0  0
    2.3376    2.8291   -0.4367 H   0  0  0  0  0  0  0  0  0  0  0  0
    3.1916    2.0387    0.8939 H   0  0  0  0  0  0  0  0  0  0  0  0
    1.8184    3.0813    1.2339 H   0  0  0  0  0  0  0  0  0  0  0  0
    0.9858    1.4500   -1.6684 H   0  0  0  0  0  0  0  0  0  0  0  0
  1  2  2  0  0  0  0
  2  3  1  0  0  0  0
  3  4  2  0  0  0  0
  3  5  1  0  0  0  0
  5  6  2  0  0  0  0
  6  7  1  0  0  0  0
  7  8  1  0  0  0  0
  7  9  2  0  0  0  0
  9 10  1  0  0  0  0
  9 11  1  0  0  0  0
 11 12  2  0  0  0  0
 12 13  1  0  0  0  0
 13 14  2  0  0  0  0
 14 15  1  0  0  0  0
 15 16  3  0  0  0  0
 14 17  1  0  0  0  0
 17 18  3  0  0  0  0
 13  2  1  0  0  0  0
 12  5  1  0  0  0  0
  1 19  1  0  0  0  0
  1 20  1  0  0  0  0
  6 21  1  0  0  0  0
  8 22  1  0  0  0  0
  8 23  1  0  0  0  0
  8 24  1  0  0  0  0
 10 25  1  0  0  0  0
 10 26  1  0  0  0  0
 10 27  1  0  0  0  0
 11 28  1  0  0  0  0
M  END
