
  xtb     01172214503D
 energy: -44.758280763606 gnorm: 0.000545390242 xtb: 6.4.1 (unknown)
 23 24  0     0  0            999 V2000
   -1.5247   -1.0337    2.9610 C   0  0  0  0  0  0  0  0  0  0  0  0
   -0.7318   -0.6939    1.9430 C   0  0  0  0  0  0  0  0  0  0  0  0
   -0.5500   -1.5775    0.7514 C   0  0  0  0  0  0  0  0  0  0  0  0
   -1.0613   -2.6638    0.5479 O   0  0  0  0  0  0  0  0  0  0  0  0
    0.3709   -0.8721   -0.1249 C   0  0  0  0  0  0  0  0  0  0  0  0
    0.8388   -1.3079   -1.3630 C   0  0  0  0  0  0  0  0  0  0  0  0
    0.4617   -2.4766   -1.8850 O   0  0  0  0  0  0  0  0  0  0  0  0
    1.7272   -0.4636   -2.0420 C   0  0  0  0  0  0  0  0  0  0  0  0
    2.1063    0.7422   -1.4835 C   0  0  0  0  0  0  0  0  0  0  0  0
    1.6373    1.1759   -0.2446 C   0  0  0  0  0  0  0  0  0  0  0  0
    0.7575    0.3582    0.4430 C   0  0  0  0  0  0  0  0  0  0  0  0
    0.0892    0.5046    1.7313 C   0  0  0  0  0  0  0  0  0  0  0  0
    0.2033    1.5618    2.5842 C   0  0  0  0  0  0  0  0  0  0  0  0
   -0.4636    1.6683    3.8254 C   0  0  0  0  0  0  0  0  0  0  0  0
   -0.9755    1.8149    4.8412 N   0  0  0  0  0  0  0  0  0  0  0  0
    1.0085    2.6968    2.3356 C   0  0  0  0  0  0  0  0  0  0  0  0
    1.6425    3.6411    2.1892 N   0  0  0  0  0  0  0  0  0  0  0  0
   -2.0468   -1.9766    2.9156 H   0  0  0  0  0  0  0  0  0  0  0  0
   -1.6793   -0.4237    3.8335 H   0  0  0  0  0  0  0  0  0  0  0  0
   -0.1552   -2.9209   -1.2714 H   0  0  0  0  0  0  0  0  0  0  0  0
    2.1053   -0.7742   -3.0027 H   0  0  0  0  0  0  0  0  0  0  0  0
    2.7925    1.3741   -2.0268 H   0  0  0  0  0  0  0  0  0  0  0  0
    1.9618    2.1236    0.1506 H   0  0  0  0  0  0  0  0  0  0  0  0
  1  2  2  0  0  0  0
  2  3  1  0  0  0  0
  3  4  2  0  0  0  0
  3  5  1  0  0  0  0
  5  6  2  0  0  0  0
  6  7  1  0  0  0  0
  6  8  1  0  0  0  0
  8  9  2  0  0  0  0
  9 10  1  0  0  0  0
 10 11  2  0  0  0  0
 11 12  1  0  0  0  0
 12 13  2  0  0  0  0
 13 14  1  0  0  0  0
 14 15  3  0  0  0  0
 13 16  1  0  0  0  0
 16 17  3  0  0  0  0
 12  2  1  0  0  0  0
 11  5  1  0  0  0  0
  1 18  1  0  0  0  0
  1 19  1  0  0  0  0
  7 20  1  0  0  0  0
  8 21  1  0  0  0  0
  9 22  1  0  0  0  0
 10 23  1  0  0  0  0
M  END
