
  xtb     01172214503D
 energy: -98.009971049231 gnorm: 0.000869300796 xtb: 6.4.1 (unknown)
 64 70  0     0  0            999 V2000
    5.4223   -0.8980    4.3051 C   0  0  0  0  0  0  0  0  0  0  0  0
    5.4708    0.2117    3.2538 C   0  0  0  0  0  0  0  0  0  0  0  0
    4.0880    0.6952    2.9397 C   0  0  0  0  0  0  0  0  0  0  0  0
    3.2723    0.0706    1.9699 C   0  0  0  0  0  0  0  0  0  0  0  0
    2.0288    0.6264    1.8463 C   0  0  0  0  0  0  0  0  0  0  0  0
    0.9839    0.2130    0.9406 C   0  0  0  0  0  0  0  0  0  0  0  0
    0.1521    1.0779    0.2812 C   0  0  0  0  0  0  0  0  0  0  0  0
    0.2702    2.8289    0.3979 S   0  0  0  0  0  0  0  0  0  0  0  0
   -1.1364    2.9999   -0.6150 C   0  0  0  0  0  0  0  0  0  0  0  0
   -1.7858    4.1266   -1.1531 C   0  0  0  0  0  0  0  0  0  0  0  0
   -2.8202    3.7544   -1.9512 C   0  0  0  0  0  0  0  0  0  0  0  0
   -3.0246    2.0429   -2.0532 S   0  0  0  0  0  0  0  0  0  0  0  0
   -1.6871    1.7907   -0.9890 C   0  0  0  0  0  0  0  0  0  0  0  0
   -0.9699    0.6413   -0.5262 C   0  0  0  0  0  0  0  0  0  0  0  0
   -1.1541   -0.6825   -0.8215 C   0  0  0  0  0  0  0  0  0  0  0  0
   -2.2789   -1.2419   -1.5101 C   0  0  0  0  0  0  0  0  0  0  0  0
   -2.2720   -2.2794   -2.4064 C   0  0  0  0  0  0  0  0  0  0  0  0
   -3.5545   -2.6764   -2.8404 C   0  0  0  0  0  0  0  0  0  0  0  0
   -3.7529   -3.8092   -3.8004 C   0  0  0  0  0  0  0  0  0  0  0  0
   -3.6787   -5.1476   -3.0638 C   0  0  0  0  0  0  0  0  0  0  0  0
   -4.5524   -1.9626   -2.2376 C   0  0  0  0  0  0  0  0  0  0  0  0
   -6.0269   -2.0393   -2.4440 C   0  0  0  0  0  0  0  0  0  0  0  0
   -6.4810   -1.0303   -3.5020 C   0  0  0  0  0  0  0  0  0  0  0  0
   -3.9170   -0.7700   -1.1519 S   0  0  0  0  0  0  0  0  0  0  0  0
   -0.0389   -1.6239   -0.4541 C   0  0  0  0  0  0  0  0  0  0  0  0
   -0.5779   -3.3704   -0.1491 S   0  0  0  0  0  0  0  0  0  0  0  0
    0.3591   -3.4673    1.3193 C   0  0  0  0  0  0  0  0  0  0  0  0
    0.5494   -4.4540    2.2008 C   0  0  0  0  0  0  0  0  0  0  0  0
    1.4033   -4.0761    3.3614 C   0  0  0  0  0  0  0  0  0  0  0  0
    1.8962   -2.3223    3.1036 S   0  0  0  0  0  0  0  0  0  0  0  0
    0.9855   -2.2036    1.6246 C   0  0  0  0  0  0  0  0  0  0  0  0
    0.7315   -1.1899    0.7635 C   0  0  0  0  0  0  0  0  0  0  0  0
    1.8434    1.9521    2.9545 S   0  0  0  0  0  0  0  0  0  0  0  0
    3.4472    1.7227    3.5721 C   0  0  0  0  0  0  0  0  0  0  0  0
    3.9561    2.6514    4.6221 C   0  0  0  0  0  0  0  0  0  0  0  0
    4.3994    3.9818    4.0071 C   0  0  0  0  0  0  0  0  0  0  0  0
    4.8004   -1.7182    3.9545 H   0  0  0  0  0  0  0  0  0  0  0  0
    4.9950   -0.5229    5.2322 H   0  0  0  0  0  0  0  0  0  0  0  0
    6.4222   -1.2751    4.5084 H   0  0  0  0  0  0  0  0  0  0  0  0
    5.9255   -0.1771    2.3405 H   0  0  0  0  0  0  0  0  0  0  0  0
    6.0887    1.0356    3.6144 H   0  0  0  0  0  0  0  0  0  0  0  0
    3.6112   -0.7417    1.3516 H   0  0  0  0  0  0  0  0  0  0  0  0
   -1.4957    5.1423   -0.9588 H   0  0  0  0  0  0  0  0  0  0  0  0
   -3.4931    4.3862   -2.4961 H   0  0  0  0  0  0  0  0  0  0  0  0
   -1.3666   -2.7215   -2.7838 H   0  0  0  0  0  0  0  0  0  0  0  0
   -4.7158   -3.7174   -4.3042 H   0  0  0  0  0  0  0  0  0  0  0  0
   -2.9688   -3.7717   -4.5597 H   0  0  0  0  0  0  0  0  0  0  0  0
   -4.4713   -5.2149   -2.3216 H   0  0  0  0  0  0  0  0  0  0  0  0
   -2.7248   -5.2419   -2.5501 H   0  0  0  0  0  0  0  0  0  0  0  0
   -3.7842   -5.9744   -3.7624 H   0  0  0  0  0  0  0  0  0  0  0  0
   -6.5347   -1.8224   -1.5020 H   0  0  0  0  0  0  0  0  0  0  0  0
   -6.3028   -3.0488   -2.7541 H   0  0  0  0  0  0  0  0  0  0  0  0
   -7.5575   -1.0881   -3.6429 H   0  0  0  0  0  0  0  0  0  0  0  0
   -5.9924   -1.2313   -4.4527 H   0  0  0  0  0  0  0  0  0  0  0  0
   -6.2224   -0.0209   -3.1905 H   0  0  0  0  0  0  0  0  0  0  0  0
    0.6469   -1.6961   -1.3141 H   0  0  0  0  0  0  0  0  0  0  0  0
    0.1379   -5.4438    2.1313 H   0  0  0  0  0  0  0  0  0  0  0  0
    2.3129   -4.6766    3.4321 H   0  0  0  0  0  0  0  0  0  0  0  0
    0.8686   -4.1448    4.3113 H   0  0  0  0  0  0  0  0  0  0  0  0
    3.1643    2.8414    5.3506 H   0  0  0  0  0  0  0  0  0  0  0  0
    4.7950    2.1881    5.1448 H   0  0  0  0  0  0  0  0  0  0  0  0
    5.1930    3.8183    3.2806 H   0  0  0  0  0  0  0  0  0  0  0  0
    4.7662    4.6533    4.7798 H   0  0  0  0  0  0  0  0  0  0  0  0
    3.5618    4.4565    3.5004 H   0  0  0  0  0  0  0  0  0  0  0  0
  1  2  1  0  0  0  0
  2  3  1  0  0  0  0
  3  4  1  0  0  0  0
  4  5  2  0  0  0  0
  5  6  1  0  0  0  0
  6  7  2  0  0  0  0
  7  8  1  0  0  0  0
  8  9  1  0  0  0  0
  9 10  1  0  0  0  0
 10 11  2  0  0  0  0
 11 12  1  0  0  0  0
 12 13  1  0  0  0  0
 13 14  1  0  0  0  0
 14 15  2  0  0  0  0
 15 16  1  0  0  0  0
 16 17  2  0  0  0  0
 17 18  1  0  0  0  0
 18 19  1  0  0  0  0
 19 20  1  0  0  0  0
 18 21  2  0  0  0  0
 21 22  1  0  0  0  0
 22 23  1  0  0  0  0
 21 24  1  0  0  0  0
 15 25  1  0  0  0  0
 25 26  1  0  0  0  0
 26 27  1  0  0  0  0
 27 28  2  0  0  0  0
 28 29  1  0  0  0  0
 29 30  1  0  0  0  0
 30 31  1  0  0  0  0
 31 32  2  0  0  0  0
  5 33  1  0  0  0  0
 33 34  1  0  0  0  0
 34 35  1  0  0  0  0
 35 36  1  0  0  0  0
 34  3  2  0  0  0  0
 32  6  1  0  0  0  0
 14  7  1  0  0  0  0
 24 16  1  0  0  0  0
 32 25  1  0  0  0  0
 13  9  2  0  0  0  0
 31 27  1  0  0  0  0
  1 37  1  0  0  0  0
  1 38  1  0  0  0  0
  1 39  1  0  0  0  0
  2 40  1  0  0  0  0
  2 41  1  0  0  0  0
  4 42  1  0  0  0  0
 10 43  1  0  0  0  0
 11 44  1  0  0  0  0
 17 45  1  0  0  0  0
 19 46  1  0  0  0  0
 19 47  1  0  0  0  0
 20 48  1  0  0  0  0
 20 49  1  0  0  0  0
 20 50  1  0  0  0  0
 22 51  1  0  0  0  0
 22 52  1  0  0  0  0
 23 53  1  0  0  0  0
 23 54  1  0  0  0  0
 23 55  1  0  0  0  0
 25 56  1  0  0  0  0
 28 57  1  0  0  0  0
 29 58  1  0  0  0  0
 29 59  1  0  0  0  0
 35 60  1  0  0  0  0
 35 61  1  0  0  0  0
 36 62  1  0  0  0  0
 36 63  1  0  0  0  0
 36 64  1  0  0  0  0
M  END
