
  xtb     01172214503D
 energy: -59.703540644907 gnorm: 0.000344554880 xtb: 6.4.1 (unknown)
 36 39  0     0  0            999 V2000
    0.3239   -4.1484    3.2398 C   0  0  0  0  0  0  0  0  0  0  0  0
    0.0654   -3.0134    2.3980 N   0  0  0  0  0  0  0  0  0  0  0  0
    1.0013   -2.4911    1.5253 C   0  0  0  0  0  0  0  0  0  0  0  0
    2.1493   -2.8599    1.4791 O   0  0  0  0  0  0  0  0  0  0  0  0
    0.3391   -1.3257    0.8518 C   0  0  0  0  0  0  0  0  0  0  0  0
    0.9732   -0.4894   -0.0164 C   0  0  0  0  0  0  0  0  0  0  0  0
    2.0809   -0.9161   -0.9336 C   0  0  0  0  0  0  0  0  0  0  0  0
    2.5422   -2.0141   -1.1278 O   0  0  0  0  0  0  0  0  0  0  0  0
    2.3993    0.1927   -1.6947 N   0  0  0  0  0  0  0  0  0  0  0  0
    3.4192    0.1854   -2.7062 C   0  0  0  0  0  0  0  0  0  0  0  0
    1.6438    1.2820   -1.3250 C   0  0  0  0  0  0  0  0  0  0  0  0
    1.7212    2.5835   -1.7823 C   0  0  0  0  0  0  0  0  0  0  0  0
    0.8885    3.5267   -1.1968 C   0  0  0  0  0  0  0  0  0  0  0  0
    0.0351    3.1826   -0.1579 C   0  0  0  0  0  0  0  0  0  0  0  0
   -0.0445    1.8767    0.2987 C   0  0  0  0  0  0  0  0  0  0  0  0
    0.7307    0.9022   -0.3157 C   0  0  0  0  0  0  0  0  0  0  0  0
   -1.0009   -1.2735    1.3866 C   0  0  0  0  0  0  0  0  0  0  0  0
   -2.1261   -0.5381    1.0381 C   0  0  0  0  0  0  0  0  0  0  0  0
   -3.3265   -0.8084    1.6753 C   0  0  0  0  0  0  0  0  0  0  0  0
   -3.4193   -1.8097    2.6318 C   0  0  0  0  0  0  0  0  0  0  0  0
   -2.3254   -2.6035    2.9470 C   0  0  0  0  0  0  0  0  0  0  0  0
   -1.1298   -2.3370    2.3079 C   0  0  0  0  0  0  0  0  0  0  0  0
    1.3608   -4.4410    3.0779 H   0  0  0  0  0  0  0  0  0  0  0  0
    0.1798   -3.8881    4.2906 H   0  0  0  0  0  0  0  0  0  0  0  0
   -0.3336   -4.9815    2.9807 H   0  0  0  0  0  0  0  0  0  0  0  0
    3.0020    0.4708   -3.6740 H   0  0  0  0  0  0  0  0  0  0  0  0
    4.2292    0.8706   -2.4457 H   0  0  0  0  0  0  0  0  0  0  0  0
    3.8089   -0.8304   -2.7645 H   0  0  0  0  0  0  0  0  0  0  0  0
    2.4143    2.8630   -2.5602 H   0  0  0  0  0  0  0  0  0  0  0  0
    0.9238    4.5496   -1.5409 H   0  0  0  0  0  0  0  0  0  0  0  0
   -0.5731    3.9447    0.3052 H   0  0  0  0  0  0  0  0  0  0  0  0
   -0.6810    1.6320    1.1336 H   0  0  0  0  0  0  0  0  0  0  0  0
   -2.0781    0.2140    0.2672 H   0  0  0  0  0  0  0  0  0  0  0  0
   -4.2040   -0.2337    1.4204 H   0  0  0  0  0  0  0  0  0  0  0  0
   -4.3636   -1.9915    3.1229 H   0  0  0  0  0  0  0  0  0  0  0  0
   -2.4121   -3.4090    3.6591 H   0  0  0  0  0  0  0  0  0  0  0  0
  1  2  1  0  0  0  0
  2  3  1  0  0  0  0
  3  4  2  0  0  0  0
  3  5  1  0  0  0  0
  5  6  2  0  0  0  0
  6  7  1  0  0  0  0
  7  8  2  0  0  0  0
  7  9  1  0  0  0  0
  9 10  1  0  0  0  0
  9 11  1  0  0  0  0
 11 12  2  0  0  0  0
 12 13  1  0  0  0  0
 13 14  2  0  0  0  0
 14 15  1  0  0  0  0
 15 16  2  0  0  0  0
  5 17  1  0  0  0  0
 17 18  2  0  0  0  0
 18 19  1  0  0  0  0
 19 20  2  0  0  0  0
 20 21  1  0  0  0  0
 21 22  2  0  0  0  0
 22  2  1  0  0  0  0
 16  6  1  0  0  0  0
 22 17  1  0  0  0  0
 16 11  1  0  0  0  0
  1 23  1  0  0  0  0
  1 24  1  0  0  0  0
  1 25  1  0  0  0  0
 10 26  1  0  0  0  0
 10 27  1  0  0  0  0
 10 28  1  0  0  0  0
 12 29  1  0  0  0  0
 13 30  1  0  0  0  0
 14 31  1  0  0  0  0
 15 32  1  0  0  0  0
 18 33  1  0  0  0  0
 19 34  1  0  0  0  0
 20 35  1  0  0  0  0
 21 36  1  0  0  0  0
M  END
