
  xtb     01172214503D
 energy: -48.771960523433 gnorm: 0.000368415792 xtb: 6.4.1 (unknown)
 22 23  0     0  0            999 V2000
   -2.6543   -0.6414    0.9166 C   0  0  0  0  0  0  0  0  0  0  0  0
   -1.3334   -0.5076    1.0562 C   0  0  0  0  0  0  0  0  0  0  0  0
   -0.5333   -1.4582    1.8946 C   0  0  0  0  0  0  0  0  0  0  0  0
   -0.9590   -2.3998    2.5156 O   0  0  0  0  0  0  0  0  0  0  0  0
    0.8624   -0.9910    1.7899 C   0  0  0  0  0  0  0  0  0  0  0  0
    1.9939   -1.5303    2.3703 C   0  0  0  0  0  0  0  0  0  0  0  0
    3.2172   -0.9197    2.1277 C   0  0  0  0  0  0  0  0  0  0  0  0
    4.6452   -1.5604    2.8281 Cl  0  0  0  0  0  0  0  0  0  0  0  0
    3.2880    0.2187    1.3116 C   0  0  0  0  0  0  0  0  0  0  0  0
    4.8062    0.9629    1.0203 Cl  0  0  0  0  0  0  0  0  0  0  0  0
    2.1484    0.7589    0.7294 C   0  0  0  0  0  0  0  0  0  0  0  0
    0.9237    0.1507    0.9678 C   0  0  0  0  0  0  0  0  0  0  0  0
   -0.4134    0.4845    0.4942 C   0  0  0  0  0  0  0  0  0  0  0  0
   -0.7484    1.5251   -0.3205 C   0  0  0  0  0  0  0  0  0  0  0  0
    0.1745    2.4654   -0.8335 C   0  0  0  0  0  0  0  0  0  0  0  0
    0.8746    3.2578   -1.2775 N   0  0  0  0  0  0  0  0  0  0  0  0
   -2.0610    1.8053   -0.7646 C   0  0  0  0  0  0  0  0  0  0  0  0
   -3.0987    2.0859   -1.1638 N   0  0  0  0  0  0  0  0  0  0  0  0
   -3.1440   -1.4562    1.4265 H   0  0  0  0  0  0  0  0  0  0  0  0
   -3.2677    0.0137    0.3240 H   0  0  0  0  0  0  0  0  0  0  0  0
    1.9242   -2.4060    2.9961 H   0  0  0  0  0  0  0  0  0  0  0  0
    2.2413    1.6340    0.1073 H   0  0  0  0  0  0  0  0  0  0  0  0
  1  2  2  0  0  0  0
  2  3  1  0  0  0  0
  3  4  2  0  0  0  0
  3  5  1  0  0  0  0
  5  6  2  0  0  0  0
  6  7  1  0  0  0  0
  7  8  1  0  0  0  0
  7  9  2  0  0  0  0
  9 10  1  0  0  0  0
  9 11  1  0  0  0  0
 11 12  2  0  0  0  0
 12 13  1  0  0  0  0
 13 14  2  0  0  0  0
 14 15  1  0  0  0  0
 15 16  3  0  0  0  0
 14 17  1  0  0  0  0
 17 18  3  0  0  0  0
 13  2  1  0  0  0  0
 12  5  1  0  0  0  0
  1 19  1  0  0  0  0
  1 20  1  0  0  0  0
  6 21  1  0  0  0  0
 11 22  1  0  0  0  0
M  END
