
  xtb     01172214503D
 energy: -31.853782478266 gnorm: 0.000348800073 xtb: 6.4.1 (unknown)
 16 17  0     0  0            999 V2000
   -0.9363    1.3946    0.6650 C   0  0  0  0  0  0  0  0  0  0  0  0
    0.3053    0.6685    0.7682 N   0  0  0  0  0  0  0  0  0  0  0  0
    0.5199   -0.3232    1.7219 C   0  0  0  0  0  0  0  0  0  0  0  0
   -0.2859   -0.6680    2.5464 O   0  0  0  0  0  0  0  0  0  0  0  0
    1.8970   -0.7878    1.4714 C   0  0  0  0  0  0  0  0  0  0  0  0
    2.7703   -1.6972    1.9689 C   0  0  0  0  0  0  0  0  0  0  0  0
    4.2627   -1.6406    1.1009 S   0  0  0  0  0  0  0  0  0  0  0  0
    3.6988   -0.3805    0.0625 C   0  0  0  0  0  0  0  0  0  0  0  0
    2.4276   -0.0354    0.3820 C   0  0  0  0  0  0  0  0  0  0  0  0
    1.3916    0.9129   -0.0680 C   0  0  0  0  0  0  0  0  0  0  0  0
    1.4127    1.7406   -0.9411 O   0  0  0  0  0  0  0  0  0  0  0  0
   -1.6211    0.8884   -0.0182 H   0  0  0  0  0  0  0  0  0  0  0  0
   -1.3915    1.4477    1.6528 H   0  0  0  0  0  0  0  0  0  0  0  0
   -0.7250    2.3928    0.2845 H   0  0  0  0  0  0  0  0  0  0  0  0
    2.6437   -2.3897    2.7766 H   0  0  0  0  0  0  0  0  0  0  0  0
    4.3380    0.0129   -0.7020 H   0  0  0  0  0  0  0  0  0  0  0  0
  1  2  1  0  0  0  0
  2  3  1  0  0  0  0
  3  4  2  0  0  0  0
  3  5  1  0  0  0  0
  5  6  2  0  0  0  0
  6  7  1  0  0  0  0
  7  8  1  0  0  0  0
  8  9  2  0  0  0  0
  9 10  1  0  0  0  0
 10 11  2  0  0  0  0
 10  2  1  0  0  0  0
  9  5  1  0  0  0  0
  1 12  1  0  0  0  0
  1 13  1  0  0  0  0
  1 14  1  0  0  0  0
  6 15  1  0  0  0  0
  8 16  1  0  0  0  0
M  END
