
  xtb     01172214503D
 energy: -42.016778656670 gnorm: 0.000350241426 xtb: 6.4.1 (unknown)
 21 22  0     0  0            999 V2000
   -0.7608   -2.0735    3.7267 C   0  0  0  0  0  0  0  0  0  0  0  0
    0.6797   -1.6360    3.5048 C   0  0  0  0  0  0  0  0  0  0  0  0
    0.7778   -0.6677    2.4595 O   0  0  0  0  0  0  0  0  0  0  0  0
    0.7695   -1.1359    1.2081 C   0  0  0  0  0  0  0  0  0  0  0  0
    0.7117   -2.3054    0.9123 O   0  0  0  0  0  0  0  0  0  0  0  0
    0.8501   -0.0707    0.2047 C   0  0  0  0  0  0  0  0  0  0  0  0
    0.8366   -0.6177   -1.4647 S   0  0  0  0  0  0  0  0  0  0  0  0
    0.9461    1.0310   -2.0126 C   0  0  0  0  0  0  0  0  0  0  0  0
    0.9987    1.6319   -3.2306 C   0  0  0  0  0  0  0  0  0  0  0  0
    1.1048    3.3421   -3.0542 S   0  0  0  0  0  0  0  0  0  0  0  0
    1.0786    3.2563   -1.3442 C   0  0  0  0  0  0  0  0  0  0  0  0
    0.9911    1.9583   -0.9193 C   0  0  0  0  0  0  0  0  0  0  0  0
    0.9329    1.2858    0.3379 C   0  0  0  0  0  0  0  0  0  0  0  0
    0.9670    2.1276    1.8201 Cl  0  0  0  0  0  0  0  0  0  0  0  0
   -0.8089   -2.7438    4.5801 H   0  0  0  0  0  0  0  0  0  0  0  0
   -1.3914   -1.2081    3.9173 H   0  0  0  0  0  0  0  0  0  0  0  0
   -1.1304   -2.5952    2.8473 H   0  0  0  0  0  0  0  0  0  0  0  0
    1.0810   -1.1338    4.3875 H   0  0  0  0  0  0  0  0  0  0  0  0
    1.3030   -2.4989    3.2478 H   0  0  0  0  0  0  0  0  0  0  0  0
    0.9824    1.1901   -4.2050 H   0  0  0  0  0  0  0  0  0  0  0  0
    1.1283    4.1488   -0.7550 H   0  0  0  0  0  0  0  0  0  0  0  0
  1  2  1  0  0  0  0
  2  3  1  0  0  0  0
  3  4  1  0  0  0  0
  4  5  2  0  0  0  0
  4  6  1  0  0  0  0
  6  7  1  0  0  0  0
  7  8  1  0  0  0  0
  8  9  2  0  0  0  0
  9 10  1  0  0  0  0
 10 11  1  0  0  0  0
 11 12  2  0  0  0  0
 12 13  1  0  0  0  0
 13 14  1  0  0  0  0
 13  6  2  0  0  0  0
 12  8  1  0  0  0  0
  1 15  1  0  0  0  0
  1 16  1  0  0  0  0
  1 17  1  0  0  0  0
  2 18  1  0  0  0  0
  2 19  1  0  0  0  0
  9 20  1  0  0  0  0
 11 21  1  0  0  0  0
M  END
