
  xtb     01172214503D
 energy: -58.899387777603 gnorm: 0.000281395469 xtb: 6.4.1 (unknown)
 28 30  0     0  0            999 V2000
   -1.9786   -4.5467    3.4284 C   0  0  0  0  0  0  0  0  0  0  0  0
   -0.6999   -4.8821    2.6838 C   0  0  0  0  0  0  0  0  0  0  0  0
   -0.2441   -3.7033    2.0196 O   0  0  0  0  0  0  0  0  0  0  0  0
    0.6153   -3.8679    1.0077 C   0  0  0  0  0  0  0  0  0  0  0  0
    1.0378   -4.9341    0.6328 O   0  0  0  0  0  0  0  0  0  0  0  0
    0.9625   -2.5797    0.4092 C   0  0  0  0  0  0  0  0  0  0  0  0
    1.7894   -2.3553   -0.6591 C   0  0  0  0  0  0  0  0  0  0  0  0
    1.8819   -0.9952   -0.9825 C   0  0  0  0  0  0  0  0  0  0  0  0
    2.8485   -0.4365   -2.2836 Cl  0  0  0  0  0  0  0  0  0  0  0  0
    1.1290   -0.1661   -0.1646 C   0  0  0  0  0  0  0  0  0  0  0  0
    0.9874    1.2511   -0.2261 C   0  0  0  0  0  0  0  0  0  0  0  0
    1.7978    2.1792   -1.5002 S   0  0  0  0  0  0  0  0  0  0  0  0
    1.1231    3.6617   -0.8897 C   0  0  0  0  0  0  0  0  0  0  0  0
    1.1980    4.9655   -1.2594 C   0  0  0  0  0  0  0  0  0  0  0  0
    0.2649    5.9466   -0.1917 S   0  0  0  0  0  0  0  0  0  0  0  0
   -0.2267    4.6014    0.7512 C   0  0  0  0  0  0  0  0  0  0  0  0
    0.3066    3.4388    0.2650 C   0  0  0  0  0  0  0  0  0  0  0  0
    0.2558    2.0585    0.6071 C   0  0  0  0  0  0  0  0  0  0  0  0
   -0.6512    1.4947    1.9458 Cl  0  0  0  0  0  0  0  0  0  0  0  0
    0.2943   -1.1162    1.0315 S   0  0  0  0  0  0  0  0  0  0  0  0
   -1.7952   -3.7475    4.1413 H   0  0  0  0  0  0  0  0  0  0  0  0
   -2.3331   -5.4250    3.9596 H   0  0  0  0  0  0  0  0  0  0  0  0
   -2.7445   -4.2191    2.7304 H   0  0  0  0  0  0  0  0  0  0  0  0
    0.0830   -5.2189    3.3731 H   0  0  0  0  0  0  0  0  0  0  0  0
   -0.8601   -5.6675    1.9368 H   0  0  0  0  0  0  0  0  0  0  0  0
    2.3029   -3.1384   -1.1852 H   0  0  0  0  0  0  0  0  0  0  0  0
    1.7298    5.4102   -2.0747 H   0  0  0  0  0  0  0  0  0  0  0  0
   -0.8691    4.7389    1.5964 H   0  0  0  0  0  0  0  0  0  0  0  0
  1  2  1  0  0  0  0
  2  3  1  0  0  0  0
  3  4  1  0  0  0  0
  4  5  2  0  0  0  0
  4  6  1  0  0  0  0
  6  7  2  0  0  0  0
  7  8  1  0  0  0  0
  8  9  1  0  0  0  0
  8 10  2  0  0  0  0
 10 11  1  0  0  0  0
 11 12  1  0  0  0  0
 12 13  1  0  0  0  0
 13 14  2  0  0  0  0
 14 15  1  0  0  0  0
 15 16  1  0  0  0  0
 16 17  2  0  0  0  0
 17 18  1  0  0  0  0
 18 19  1  0  0  0  0
 10 20  1  0  0  0  0
 20  6  1  0  0  0  0
 18 11  2  0  0  0  0
 17 13  1  0  0  0  0
  1 21  1  0  0  0  0
  1 22  1  0  0  0  0
  1 23  1  0  0  0  0
  2 24  1  0  0  0  0
  2 25  1  0  0  0  0
  7 26  1  0  0  0  0
 14 27  1  0  0  0  0
 16 28  1  0  0  0  0
M  END
