
  xtb     01172214513D
 energy: -103.327137502492 gnorm: 0.000446266087 xtb: 6.4.1 (unknown)
 66 73  0     0  0            999 V2000
    5.8081    2.9205    4.1659 C   0  0  0  0  0  0  0  0  0  0  0  0
    5.9413    3.3894    2.7169 C   0  0  0  0  0  0  0  0  0  0  0  0
    5.5980    2.2886    1.7659 C   0  0  0  0  0  0  0  0  0  0  0  0
    6.4874    1.6067    0.9968 C   0  0  0  0  0  0  0  0  0  0  0  0
    5.7729    0.3657    0.0178 S   0  0  0  0  0  0  0  0  0  0  0  0
    4.2081    0.7524    0.6490 C   0  0  0  0  0  0  0  0  0  0  0  0
    4.2852    1.7944    1.5691 C   0  0  0  0  0  0  0  0  0  0  0  0
    2.7360    2.2339    2.2441 S   0  0  0  0  0  0  0  0  0  0  0  0
    1.9923    1.0081    1.2767 C   0  0  0  0  0  0  0  0  0  0  0  0
    0.7164    0.4562    1.0561 C   0  0  0  0  0  0  0  0  0  0  0  0
   -0.5117    0.7411    1.7015 C   0  0  0  0  0  0  0  0  0  0  0  0
   -0.5960    1.6974    2.6352 N   0  0  0  0  0  0  0  0  0  0  0  0
   -1.7547    1.8733    3.2340 C   0  0  0  0  0  0  0  0  0  0  0  0
   -1.8253    2.9462    4.2715 C   0  0  0  0  0  0  0  0  0  0  0  0
   -2.8793    1.0754    2.9094 C   0  0  0  0  0  0  0  0  0  0  0  0
   -4.1944    1.2546    3.5954 C   0  0  0  0  0  0  0  0  0  0  0  0
   -2.8113    0.1413    1.9847 N   0  0  0  0  0  0  0  0  0  0  0  0
   -1.6393   -0.0404    1.3626 C   0  0  0  0  0  0  0  0  0  0  0  0
   -1.5045   -0.9862    0.3171 C   0  0  0  0  0  0  0  0  0  0  0  0
   -2.4852   -1.7803   -0.3040 C   0  0  0  0  0  0  0  0  0  0  0  0
   -4.1786   -2.1096   -0.1703 S   0  0  0  0  0  0  0  0  0  0  0  0
   -4.0684   -3.1328   -1.5811 C   0  0  0  0  0  0  0  0  0  0  0  0
   -5.0228   -3.9027   -2.2896 C   0  0  0  0  0  0  0  0  0  0  0  0
   -6.4739   -3.9623   -1.9371 C   0  0  0  0  0  0  0  0  0  0  0  0
   -7.1705   -2.6468   -2.2863 C   0  0  0  0  0  0  0  0  0  0  0  0
   -4.4418   -4.5369   -3.3422 C   0  0  0  0  0  0  0  0  0  0  0  0
   -2.7423   -4.2317   -3.5029 S   0  0  0  0  0  0  0  0  0  0  0  0
   -2.7823   -3.2050   -2.1095 C   0  0  0  0  0  0  0  0  0  0  0  0
   -1.8717   -2.4327   -1.3705 C   0  0  0  0  0  0  0  0  0  0  0  0
   -0.5455   -2.0935   -1.4239 N   0  0  0  0  0  0  0  0  0  0  0  0
    0.2305   -2.4326   -2.5917 C   0  0  0  0  0  0  0  0  0  0  0  0
    0.7508   -3.8690   -2.5347 C   0  0  0  0  0  0  0  0  0  0  0  0
   -0.2889   -1.2192   -0.3829 C   0  0  0  0  0  0  0  0  0  0  0  0
    0.8769   -0.5594    0.0766 C   0  0  0  0  0  0  0  0  0  0  0  0
    2.2220   -0.6391   -0.2663 N   0  0  0  0  0  0  0  0  0  0  0  0
    2.9796   -1.7734   -0.7457 C   0  0  0  0  0  0  0  0  0  0  0  0
    3.1208   -2.8365    0.3428 C   0  0  0  0  0  0  0  0  0  0  0  0
    2.8880    0.3057    0.4764 C   0  0  0  0  0  0  0  0  0  0  0  0
    4.7889    2.5990    4.3654 H   0  0  0  0  0  0  0  0  0  0  0  0
    6.0564    3.7302    4.8475 H   0  0  0  0  0  0  0  0  0  0  0  0
    6.4795    2.0862    4.3575 H   0  0  0  0  0  0  0  0  0  0  0  0
    6.9617    3.7277    2.5283 H   0  0  0  0  0  0  0  0  0  0  0  0
    5.2600    4.2267    2.5474 H   0  0  0  0  0  0  0  0  0  0  0  0
    7.5469    1.7561    0.9311 H   0  0  0  0  0  0  0  0  0  0  0  0
   -0.8543    3.4261    4.3526 H   0  0  0  0  0  0  0  0  0  0  0  0
   -2.5744    3.6891    4.0010 H   0  0  0  0  0  0  0  0  0  0  0  0
   -2.1018    2.5248    5.2371 H   0  0  0  0  0  0  0  0  0  0  0  0
   -4.5685    2.2663    3.4449 H   0  0  0  0  0  0  0  0  0  0  0  0
   -4.0901    1.0898    4.6670 H   0  0  0  0  0  0  0  0  0  0  0  0
   -4.9069    0.5426    3.1888 H   0  0  0  0  0  0  0  0  0  0  0  0
   -6.5698   -4.1450   -0.8643 H   0  0  0  0  0  0  0  0  0  0  0  0
   -6.9459   -4.7866   -2.4746 H   0  0  0  0  0  0  0  0  0  0  0  0
   -8.2237   -2.6963   -2.0213 H   0  0  0  0  0  0  0  0  0  0  0  0
   -7.0887   -2.4462   -3.3525 H   0  0  0  0  0  0  0  0  0  0  0  0
   -6.7139   -1.8236   -1.7423 H   0  0  0  0  0  0  0  0  0  0  0  0
   -4.9092   -5.1856   -4.0563 H   0  0  0  0  0  0  0  0  0  0  0  0
    1.0343   -1.7043   -2.7100 H   0  0  0  0  0  0  0  0  0  0  0  0
   -0.4274   -2.3370   -3.4632 H   0  0  0  0  0  0  0  0  0  0  0  0
    1.3979   -4.0643   -3.3856 H   0  0  0  0  0  0  0  0  0  0  0  0
   -0.0849   -4.5628   -2.5731 H   0  0  0  0  0  0  0  0  0  0  0  0
    1.3037   -4.0546   -1.6177 H   0  0  0  0  0  0  0  0  0  0  0  0
    2.5234   -2.2057   -1.6302 H   0  0  0  0  0  0  0  0  0  0  0  0
    3.9682   -1.3979   -1.0243 H   0  0  0  0  0  0  0  0  0  0  0  0
    3.6253   -2.4205    1.2119 H   0  0  0  0  0  0  0  0  0  0  0  0
    2.1407   -3.1935    0.6538 H   0  0  0  0  0  0  0  0  0  0  0  0
    3.7029   -3.6757   -0.0286 H   0  0  0  0  0  0  0  0  0  0  0  0
  1  2  1  0  0  0  0
  2  3  1  0  0  0  0
  3  4  2  0  0  0  0
  4  5  1  0  0  0  0
  5  6  1  0  0  0  0
  6  7  2  0  0  0  0
  7  8  1  0  0  0  0
  8  9  1  0  0  0  0
  9 10  1  0  0  0  0
 10 11  2  0  0  0  0
 11 12  1  0  0  0  0
 12 13  2  0  0  0  0
 13 14  1  0  0  0  0
 13 15  1  0  0  0  0
 15 16  1  0  0  0  0
 15 17  2  0  0  0  0
 17 18  1  0  0  0  0
 18 19  2  0  0  0  0
 19 20  1  0  0  0  0
 20 21  1  0  0  0  0
 21 22  1  0  0  0  0
 22 23  1  0  0  0  0
 23 24  1  0  0  0  0
 24 25  1  0  0  0  0
 23 26  2  0  0  0  0
 26 27  1  0  0  0  0
 27 28  1  0  0  0  0
 28 29  1  0  0  0  0
 29 30  1  0  0  0  0
 30 31  1  0  0  0  0
 31 32  1  0  0  0  0
 30 33  1  0  0  0  0
 33 34  2  0  0  0  0
 34 35  1  0  0  0  0
 35 36  1  0  0  0  0
 36 37  1  0  0  0  0
 35 38  1  0  0  0  0
  7  3  1  0  0  0  0
 38  9  2  0  0  0  0
 38  6  1  0  0  0  0
 34 10  1  0  0  0  0
 18 11  1  0  0  0  0
 33 19  1  0  0  0  0
 29 20  2  0  0  0  0
 28 22  2  0  0  0  0
  1 39  1  0  0  0  0
  1 40  1  0  0  0  0
  1 41  1  0  0  0  0
  2 42  1  0  0  0  0
  2 43  1  0  0  0  0
  4 44  1  0  0  0  0
 14 45  1  0  0  0  0
 14 46  1  0  0  0  0
 14 47  1  0  0  0  0
 16 48  1  0  0  0  0
 16 49  1  0  0  0  0
 16 50  1  0  0  0  0
 24 51  1  0  0  0  0
 24 52  1  0  0  0  0
 25 53  1  0  0  0  0
 25 54  1  0  0  0  0
 25 55  1  0  0  0  0
 26 56  1  0  0  0  0
 31 57  1  0  0  0  0
 31 58  1  0  0  0  0
 32 59  1  0  0  0  0
 32 60  1  0  0  0  0
 32 61  1  0  0  0  0
 36 62  1  0  0  0  0
 36 63  1  0  0  0  0
 37 64  1  0  0  0  0
 37 65  1  0  0  0  0
 37 66  1  0  0  0  0
M  END
