
  xtb     01172214513D
 energy: -14.355674408023 gnorm: 0.000761947389 xtb: 6.4.1 (unknown)
  7  7  0     0  0            999 V2000
    2.4063   -1.8594    2.8096 C   0  0  0  0  0  0  0  0  0  0  0  0
    1.6534   -2.8900    2.7034 N   0  0  0  0  0  0  0  0  0  0  0  0
    1.2432   -3.1199    1.4657 N   0  0  0  0  0  0  0  0  0  0  0  0
    1.6791   -2.2669    0.6156 C   0  0  0  0  0  0  0  0  0  0  0  0
    2.6925   -1.0345    1.3062 S   0  0  0  0  0  0  0  0  0  0  0  0
    2.8305   -1.5216    3.7330 H   0  0  0  0  0  0  0  0  0  0  0  0
    1.4506   -2.2950   -0.4302 H   0  0  0  0  0  0  0  0  0  0  0  0
  1  2  2  0  0  0  0
  2  3  1  0  0  0  0
  3  4  2  0  0  0  0
  4  5  1  0  0  0  0
  5  1  1  0  0  0  0
  1  6  1  0  0  0  0
  4  7  1  0  0  0  0
M  END
