
  xtb     01172214513D
 energy: -99.077148409341 gnorm: 0.000267145096 xtb: 6.4.1 (unknown)
 64 70  0     0  0            999 V2000
    6.3042    4.5996    5.9580 C   0  0  0  0  0  0  0  0  0  0  0  0
    6.8427    5.3748    4.7708 C   0  0  0  0  0  0  0  0  0  0  0  0
    7.5660    4.2786    3.5016 S   0  0  0  0  0  0  0  0  0  0  0  0
    6.1899    3.3896    2.8388 C   0  0  0  0  0  0  0  0  0  0  0  0
    6.5185    2.2237    2.1140 C   0  0  0  0  0  0  0  0  0  0  0  0
    5.5415    1.4608    1.5495 C   0  0  0  0  0  0  0  0  0  0  0  0
    4.1799    1.8137    1.6807 C   0  0  0  0  0  0  0  0  0  0  0  0
    3.1479    1.0379    1.1250 C   0  0  0  0  0  0  0  0  0  0  0  0
    1.8294    1.3977    1.2734 C   0  0  0  0  0  0  0  0  0  0  0  0
    0.7514    0.5843    0.6938 C   0  0  0  0  0  0  0  0  0  0  0  0
   -0.3251    0.1335    1.4690 C   0  0  0  0  0  0  0  0  0  0  0  0
   -0.5405    0.3100    2.8699 C   0  0  0  0  0  0  0  0  0  0  0  0
   -1.6876   -0.2515    3.2989 C   0  0  0  0  0  0  0  0  0  0  0  0
   -2.5864   -1.0424    2.0473 S   0  0  0  0  0  0  0  0  0  0  0  0
   -1.3653   -0.6175    0.8733 C   0  0  0  0  0  0  0  0  0  0  0  0
   -1.3989   -0.9313   -0.4780 C   0  0  0  0  0  0  0  0  0  0  0  0
   -2.5213   -1.6700   -1.0732 C   0  0  0  0  0  0  0  0  0  0  0  0
   -3.2011   -1.1331   -2.1884 C   0  0  0  0  0  0  0  0  0  0  0  0
   -4.2488   -1.7986   -2.7544 C   0  0  0  0  0  0  0  0  0  0  0  0
   -4.6758   -3.0438   -2.2442 C   0  0  0  0  0  0  0  0  0  0  0  0
   -5.7341   -3.7669   -2.8220 C   0  0  0  0  0  0  0  0  0  0  0  0
   -6.1226   -4.9780   -2.3046 C   0  0  0  0  0  0  0  0  0  0  0  0
   -7.4898   -5.8014   -3.0745 S   0  0  0  0  0  0  0  0  0  0  0  0
   -7.0777   -7.5736   -2.8844 C   0  0  0  0  0  0  0  0  0  0  0  0
   -5.7672   -7.9298   -3.5578 C   0  0  0  0  0  0  0  0  0  0  0  0
   -5.4735   -5.5028   -1.1719 C   0  0  0  0  0  0  0  0  0  0  0  0
   -4.4354   -4.8244   -0.6018 C   0  0  0  0  0  0  0  0  0  0  0  0
   -4.0015   -3.5853   -1.1182 C   0  0  0  0  0  0  0  0  0  0  0  0
   -2.9288   -2.8740   -0.5514 C   0  0  0  0  0  0  0  0  0  0  0  0
   -0.3118   -0.4991   -1.2489 C   0  0  0  0  0  0  0  0  0  0  0  0
   -0.0726   -0.7177   -2.6399 C   0  0  0  0  0  0  0  0  0  0  0  0
    1.0760   -0.1588   -3.0683 C   0  0  0  0  0  0  0  0  0  0  0  0
    1.9571    0.6632   -1.8242 S   0  0  0  0  0  0  0  0  0  0  0  0
    0.7379    0.2357   -0.6494 C   0  0  0  0  0  0  0  0  0  0  0  0
    1.5102    2.5749    1.9830 C   0  0  0  0  0  0  0  0  0  0  0  0
    2.4927    3.3496    2.5278 C   0  0  0  0  0  0  0  0  0  0  0  0
    3.8515    2.9911    2.4013 C   0  0  0  0  0  0  0  0  0  0  0  0
    4.8797    3.7701    2.9672 C   0  0  0  0  0  0  0  0  0  0  0  0
    5.5081    3.9235    5.6526 H   0  0  0  0  0  0  0  0  0  0  0  0
    5.9099    5.2887    6.7027 H   0  0  0  0  0  0  0  0  0  0  0  0
    7.0976    4.0110    6.4127 H   0  0  0  0  0  0  0  0  0  0  0  0
    7.6760    6.0120    5.0670 H   0  0  0  0  0  0  0  0  0  0  0  0
    6.0815    5.9958    4.2998 H   0  0  0  0  0  0  0  0  0  0  0  0
    7.5601    1.9549    2.0218 H   0  0  0  0  0  0  0  0  0  0  0  0
    5.7965    0.5690    0.9956 H   0  0  0  0  0  0  0  0  0  0  0  0
    3.4072    0.1347    0.5915 H   0  0  0  0  0  0  0  0  0  0  0  0
    0.1505    0.8257    3.5122 H   0  0  0  0  0  0  0  0  0  0  0  0
   -2.0824   -0.2657    4.2962 H   0  0  0  0  0  0  0  0  0  0  0  0
   -2.8904   -0.1726   -2.5738 H   0  0  0  0  0  0  0  0  0  0  0  0
   -4.7696   -1.3802   -3.6036 H   0  0  0  0  0  0  0  0  0  0  0  0
   -6.2459   -3.3641   -3.6834 H   0  0  0  0  0  0  0  0  0  0  0  0
   -7.9153   -8.0840   -3.3593 H   0  0  0  0  0  0  0  0  0  0  0  0
   -7.0745   -7.8236   -1.8239 H   0  0  0  0  0  0  0  0  0  0  0  0
   -5.5779   -8.9971   -3.4591 H   0  0  0  0  0  0  0  0  0  0  0  0
   -4.9396   -7.3867   -3.1049 H   0  0  0  0  0  0  0  0  0  0  0  0
   -5.8065   -7.6781   -4.6153 H   0  0  0  0  0  0  0  0  0  0  0  0
   -5.8016   -6.4385   -0.7459 H   0  0  0  0  0  0  0  0  0  0  0  0
   -3.9355   -5.2290    0.2667 H   0  0  0  0  0  0  0  0  0  0  0  0
   -2.4118   -3.3013    0.2959 H   0  0  0  0  0  0  0  0  0  0  0  0
   -0.7366   -1.2809   -3.2708 H   0  0  0  0  0  0  0  0  0  0  0  0
    1.4886   -0.1757   -4.0583 H   0  0  0  0  0  0  0  0  0  0  0  0
    0.4732    2.8655    2.0705 H   0  0  0  0  0  0  0  0  0  0  0  0
    2.2398    4.2537    3.0640 H   0  0  0  0  0  0  0  0  0  0  0  0
    4.5984    4.6687    3.4948 H   0  0  0  0  0  0  0  0  0  0  0  0
  1  2  1  0  0  0  0
  2  3  1  0  0  0  0
  3  4  1  0  0  0  0
  4  5  2  0  0  0  0
  5  6  1  0  0  0  0
  6  7  2  0  0  0  0
  7  8  1  0  0  0  0
  8  9  2  0  0  0  0
  9 10  1  0  0  0  0
 10 11  2  0  0  0  0
 11 12  1  0  0  0  0
 12 13  2  0  0  0  0
 13 14  1  0  0  0  0
 14 15  1  0  0  0  0
 15 16  2  0  0  0  0
 16 17  1  0  0  0  0
 17 18  2  0  0  0  0
 18 19  1  0  0  0  0
 19 20  2  0  0  0  0
 20 21  1  0  0  0  0
 21 22  2  0  0  0  0
 22 23  1  0  0  0  0
 23 24  1  0  0  0  0
 24 25  1  0  0  0  0
 22 26  1  0  0  0  0
 26 27  2  0  0  0  0
 27 28  1  0  0  0  0
 28 29  2  0  0  0  0
 16 30  1  0  0  0  0
 30 31  1  0  0  0  0
 31 32  2  0  0  0  0
 32 33  1  0  0  0  0
 33 34  1  0  0  0  0
  9 35  1  0  0  0  0
 35 36  2  0  0  0  0
 36 37  1  0  0  0  0
 37 38  2  0  0  0  0
 38  4  1  0  0  0  0
 37  7  1  0  0  0  0
 34 10  1  0  0  0  0
 15 11  1  0  0  0  0
 29 17  1  0  0  0  0
 34 30  2  0  0  0  0
 28 20  1  0  0  0  0
  1 39  1  0  0  0  0
  1 40  1  0  0  0  0
  1 41  1  0  0  0  0
  2 42  1  0  0  0  0
  2 43  1  0  0  0  0
  5 44  1  0  0  0  0
  6 45  1  0  0  0  0
  8 46  1  0  0  0  0
 12 47  1  0  0  0  0
 13 48  1  0  0  0  0
 18 49  1  0  0  0  0
 19 50  1  0  0  0  0
 21 51  1  0  0  0  0
 24 52  1  0  0  0  0
 24 53  1  0  0  0  0
 25 54  1  0  0  0  0
 25 55  1  0  0  0  0
 25 56  1  0  0  0  0
 26 57  1  0  0  0  0
 27 58  1  0  0  0  0
 29 59  1  0  0  0  0
 31 60  1  0  0  0  0
 32 61  1  0  0  0  0
 35 62  1  0  0  0  0
 36 63  1  0  0  0  0
 38 64  1  0  0  0  0
M  END
