
  xtb     01172214523D
 energy: -90.674433428050 gnorm: 0.000418286984 xtb: 6.4.1 (unknown)
 55 61  0     0  0            999 V2000
    6.7478   -0.0968    4.0911 C   0  0  0  0  0  0  0  0  0  0  0  0
    7.0469   -1.2904    3.2062 C   0  0  0  0  0  0  0  0  0  0  0  0
    7.2430   -0.8099    1.4517 S   0  0  0  0  0  0  0  0  0  0  0  0
    5.6098   -0.3488    1.0373 C   0  0  0  0  0  0  0  0  0  0  0  0
    5.2616    0.5538    0.0748 C   0  0  0  0  0  0  0  0  0  0  0  0
    3.8705    0.6718   -0.0875 C   0  0  0  0  0  0  0  0  0  0  0  0
    3.1451   -0.1238    0.7561 C   0  0  0  0  0  0  0  0  0  0  0  0
    1.7055   -0.2661    0.8319 C   0  0  0  0  0  0  0  0  0  0  0  0
    1.0119   -0.4328    2.0451 C   0  0  0  0  0  0  0  0  0  0  0  0
    1.5268   -0.4260    3.3755 C   0  0  0  0  0  0  0  0  0  0  0  0
    0.5707   -0.5764    4.3140 C   0  0  0  0  0  0  0  0  0  0  0  0
   -1.0229   -0.7364    3.6619 S   0  0  0  0  0  0  0  0  0  0  0  0
   -0.3950   -0.5861    2.0400 C   0  0  0  0  0  0  0  0  0  0  0  0
   -1.1650   -0.5664    0.8865 C   0  0  0  0  0  0  0  0  0  0  0  0
   -2.6285   -0.6808    0.9279 C   0  0  0  0  0  0  0  0  0  0  0  0
   -3.4201    0.2916    0.2772 C   0  0  0  0  0  0  0  0  0  0  0  0
   -4.7816    0.2165    0.3097 C   0  0  0  0  0  0  0  0  0  0  0  0
   -5.4346   -0.8327    0.9911 C   0  0  0  0  0  0  0  0  0  0  0  0
   -6.8392   -0.9398    1.0393 C   0  0  0  0  0  0  0  0  0  0  0  0
   -7.4376   -1.9662    1.7154 C   0  0  0  0  0  0  0  0  0  0  0  0
   -6.6586   -2.9305    2.3742 C   0  0  0  0  0  0  0  0  0  0  0  0
   -5.2945   -2.8552    2.3440 C   0  0  0  0  0  0  0  0  0  0  0  0
   -4.6462   -1.8091    1.6543 C   0  0  0  0  0  0  0  0  0  0  0  0
   -3.2429   -1.7059    1.6051 C   0  0  0  0  0  0  0  0  0  0  0  0
   -0.4744   -0.4082   -0.3245 C   0  0  0  0  0  0  0  0  0  0  0  0
   -1.0117   -0.4306   -1.6387 C   0  0  0  0  0  0  0  0  0  0  0  0
   -0.0727   -0.2904   -2.6160 C   0  0  0  0  0  0  0  0  0  0  0  0
   -0.2772   -0.2594   -4.0307 C   0  0  0  0  0  0  0  0  0  0  0  0
   -1.4619   -0.3552   -4.7181 C   0  0  0  0  0  0  0  0  0  0  0  0
   -1.2961   -0.2818   -6.1124 C   0  0  0  0  0  0  0  0  0  0  0  0
    0.0042   -0.1308   -6.4802 C   0  0  0  0  0  0  0  0  0  0  0  0
    1.0594   -0.0764   -5.1283 S   0  0  0  0  0  0  0  0  0  0  0  0
    1.5413   -0.1218   -1.9549 S   0  0  0  0  0  0  0  0  0  0  0  0
    0.9323   -0.2572   -0.3272 C   0  0  0  0  0  0  0  0  0  0  0  0
    4.2064   -1.0801    1.7566 S   0  0  0  0  0  0  0  0  0  0  0  0
    5.8097    0.3717    3.8006 H   0  0  0  0  0  0  0  0  0  0  0  0
    6.6679   -0.4167    5.1281 H   0  0  0  0  0  0  0  0  0  0  0  0
    7.5418    0.6422    4.0122 H   0  0  0  0  0  0  0  0  0  0  0  0
    7.9989   -1.7501    3.4690 H   0  0  0  0  0  0  0  0  0  0  0  0
    6.2585   -2.0416    3.2546 H   0  0  0  0  0  0  0  0  0  0  0  0
    5.9856    1.1144   -0.4868 H   0  0  0  0  0  0  0  0  0  0  0  0
    3.4194    1.3628   -0.7761 H   0  0  0  0  0  0  0  0  0  0  0  0
    2.5666   -0.3010    3.6141 H   0  0  0  0  0  0  0  0  0  0  0  0
    0.6933   -0.6058    5.3791 H   0  0  0  0  0  0  0  0  0  0  0  0
   -2.9279    1.1106   -0.2274 H   0  0  0  0  0  0  0  0  0  0  0  0
   -5.3820    0.9672   -0.1848 H   0  0  0  0  0  0  0  0  0  0  0  0
   -7.4344   -0.1939    0.5317 H   0  0  0  0  0  0  0  0  0  0  0  0
   -8.5146   -2.0426    1.7489 H   0  0  0  0  0  0  0  0  0  0  0  0
   -7.1489   -3.7332    2.9055 H   0  0  0  0  0  0  0  0  0  0  0  0
   -4.6900   -3.5942    2.8502 H   0  0  0  0  0  0  0  0  0  0  0  0
   -2.6497   -2.4636    2.0969 H   0  0  0  0  0  0  0  0  0  0  0  0
   -2.0583   -0.5675   -1.8396 H   0  0  0  0  0  0  0  0  0  0  0  0
   -2.4153   -0.4742   -4.2369 H   0  0  0  0  0  0  0  0  0  0  0  0
   -2.1099   -0.3384   -6.8130 H   0  0  0  0  0  0  0  0  0  0  0  0
    0.4120   -0.0481   -7.4678 H   0  0  0  0  0  0  0  0  0  0  0  0
  1  2  1  0  0  0  0
  2  3  1  0  0  0  0
  3  4  1  0  0  0  0
  4  5  2  0  0  0  0
  5  6  1  0  0  0  0
  6  7  2  0  0  0  0
  7  8  1  0  0  0  0
  8  9  2  0  0  0  0
  9 10  1  0  0  0  0
 10 11  2  0  0  0  0
 11 12  1  0  0  0  0
 12 13  1  0  0  0  0
 13 14  2  0  0  0  0
 14 15  1  0  0  0  0
 15 16  2  0  0  0  0
 16 17  1  0  0  0  0
 17 18  2  0  0  0  0
 18 19  1  0  0  0  0
 19 20  2  0  0  0  0
 20 21  1  0  0  0  0
 21 22  2  0  0  0  0
 22 23  1  0  0  0  0
 23 24  2  0  0  0  0
 14 25  1  0  0  0  0
 25 26  1  0  0  0  0
 26 27  2  0  0  0  0
 27 28  1  0  0  0  0
 28 29  2  0  0  0  0
 29 30  1  0  0  0  0
 30 31  2  0  0  0  0
 31 32  1  0  0  0  0
 27 33  1  0  0  0  0
 33 34  1  0  0  0  0
  7 35  1  0  0  0  0
 35  4  1  0  0  0  0
 34  8  1  0  0  0  0
 13  9  1  0  0  0  0
 24 15  1  0  0  0  0
 34 25  2  0  0  0  0
 23 18  1  0  0  0  0
 32 28  1  0  0  0  0
  1 36  1  0  0  0  0
  1 37  1  0  0  0  0
  1 38  1  0  0  0  0
  2 39  1  0  0  0  0
  2 40  1  0  0  0  0
  5 41  1  0  0  0  0
  6 42  1  0  0  0  0
 10 43  1  0  0  0  0
 11 44  1  0  0  0  0
 16 45  1  0  0  0  0
 17 46  1  0  0  0  0
 19 47  1  0  0  0  0
 20 48  1  0  0  0  0
 21 49  1  0  0  0  0
 22 50  1  0  0  0  0
 24 51  1  0  0  0  0
 26 52  1  0  0  0  0
 29 53  1  0  0  0  0
 30 54  1  0  0  0  0
 31 55  1  0  0  0  0
M  END
