
  xtb     01172214523D
 energy: -77.840914661361 gnorm: 0.000938564223 xtb: 6.4.1 (unknown)
 48 53  0     0  0            999 V2000
    3.6990    0.6390    6.7231 C   0  0  0  0  0  0  0  0  0  0  0  0
    5.1437    0.4652    6.3024 C   0  0  0  0  0  0  0  0  0  0  0  0
    5.4172   -1.1208    5.4179 S   0  0  0  0  0  0  0  0  0  0  0  0
    4.5270   -0.7805    3.9433 C   0  0  0  0  0  0  0  0  0  0  0  0
    4.9499   -0.0383    2.8824 C   0  0  0  0  0  0  0  0  0  0  0  0
    3.9855    0.0544    1.8636 C   0  0  0  0  0  0  0  0  0  0  0  0
    2.8331   -0.6296    2.1411 C   0  0  0  0  0  0  0  0  0  0  0  0
    1.6426   -0.7370    1.3178 C   0  0  0  0  0  0  0  0  0  0  0  0
    1.1005    0.3888    0.6751 C   0  0  0  0  0  0  0  0  0  0  0  0
    1.5316    1.7477    0.7458 C   0  0  0  0  0  0  0  0  0  0  0  0
    0.7822    2.5771   -0.0077 C   0  0  0  0  0  0  0  0  0  0  0  0
   -0.5032    1.7818   -0.8493 S   0  0  0  0  0  0  0  0  0  0  0  0
   -0.0385    0.2505   -0.1517 C   0  0  0  0  0  0  0  0  0  0  0  0
   -0.6722   -0.9625   -0.3816 C   0  0  0  0  0  0  0  0  0  0  0  0
   -1.8298   -1.0668   -1.2813 C   0  0  0  0  0  0  0  0  0  0  0  0
   -1.8084   -1.9915   -2.3482 C   0  0  0  0  0  0  0  0  0  0  0  0
   -2.8670   -2.0910   -3.2032 C   0  0  0  0  0  0  0  0  0  0  0  0
   -4.0100   -1.2793   -3.0416 C   0  0  0  0  0  0  0  0  0  0  0  0
   -5.1211   -1.3611   -3.9051 C   0  0  0  0  0  0  0  0  0  0  0  0
   -6.2108   -0.5573   -3.7178 C   0  0  0  0  0  0  0  0  0  0  0  0
   -6.2382    0.3655   -2.6601 C   0  0  0  0  0  0  0  0  0  0  0  0
   -5.1765    0.4691   -1.8062 C   0  0  0  0  0  0  0  0  0  0  0  0
   -4.0376   -0.3467   -1.9719 C   0  0  0  0  0  0  0  0  0  0  0  0
   -2.9289   -0.2618   -1.1085 C   0  0  0  0  0  0  0  0  0  0  0  0
   -0.1489   -2.0794    0.2816 C   0  0  0  0  0  0  0  0  0  0  0  0
   -0.6300   -3.4239    0.2570 C   0  0  0  0  0  0  0  0  0  0  0  0
    0.1117   -4.2588    1.0103 C   0  0  0  0  0  0  0  0  0  0  0  0
    1.4364   -3.4825    1.8089 S   0  0  0  0  0  0  0  0  0  0  0  0
    0.9834   -1.9465    1.1188 C   0  0  0  0  0  0  0  0  0  0  0  0
    2.9251   -1.4043    3.6928 S   0  0  0  0  0  0  0  0  0  0  0  0
    3.5872    1.5599    7.2927 H   0  0  0  0  0  0  0  0  0  0  0  0
    3.0474    0.6898    5.8526 H   0  0  0  0  0  0  0  0  0  0  0  0
    3.3821   -0.1971    7.3424 H   0  0  0  0  0  0  0  0  0  0  0  0
    5.8057    0.4083    7.1653 H   0  0  0  0  0  0  0  0  0  0  0  0
    5.4740    1.2683    5.6439 H   0  0  0  0  0  0  0  0  0  0  0  0
    5.9218    0.4194    2.8382 H   0  0  0  0  0  0  0  0  0  0  0  0
    4.1516    0.5721    0.9359 H   0  0  0  0  0  0  0  0  0  0  0  0
    2.3546    2.0777    1.3527 H   0  0  0  0  0  0  0  0  0  0  0  0
    0.8925    3.6375   -0.1268 H   0  0  0  0  0  0  0  0  0  0  0  0
   -0.9294   -2.6037   -2.4894 H   0  0  0  0  0  0  0  0  0  0  0  0
   -2.8424   -2.7950   -4.0232 H   0  0  0  0  0  0  0  0  0  0  0  0
   -5.0948   -2.0724   -4.7187 H   0  0  0  0  0  0  0  0  0  0  0  0
   -7.0597   -0.6252   -4.3825 H   0  0  0  0  0  0  0  0  0  0  0  0
   -7.1076    0.9930   -2.5281 H   0  0  0  0  0  0  0  0  0  0  0  0
   -5.1907    1.1787   -0.9913 H   0  0  0  0  0  0  0  0  0  0  0  0
   -2.9642    0.4399   -0.2873 H   0  0  0  0  0  0  0  0  0  0  0  0
   -1.5007   -3.7275   -0.2957 H   0  0  0  0  0  0  0  0  0  0  0  0
   -0.0310   -5.3105    1.1662 H   0  0  0  0  0  0  0  0  0  0  0  0
  1  2  1  0  0  0  0
  2  3  1  0  0  0  0
  3  4  1  0  0  0  0
  4  5  2  0  0  0  0
  5  6  1  0  0  0  0
  6  7  2  0  0  0  0
  7  8  1  0  0  0  0
  8  9  2  0  0  0  0
  9 10  1  0  0  0  0
 10 11  2  0  0  0  0
 11 12  1  0  0  0  0
 12 13  1  0  0  0  0
 13 14  2  0  0  0  0
 14 15  1  0  0  0  0
 15 16  2  0  0  0  0
 16 17  1  0  0  0  0
 17 18  2  0  0  0  0
 18 19  1  0  0  0  0
 19 20  2  0  0  0  0
 20 21  1  0  0  0  0
 21 22  2  0  0  0  0
 22 23  1  0  0  0  0
 23 24  2  0  0  0  0
 14 25  1  0  0  0  0
 25 26  1  0  0  0  0
 26 27  2  0  0  0  0
 27 28  1  0  0  0  0
 28 29  1  0  0  0  0
  7 30  1  0  0  0  0
 30  4  1  0  0  0  0
 29  8  1  0  0  0  0
 13  9  1  0  0  0  0
 24 15  1  0  0  0  0
 29 25  2  0  0  0  0
 23 18  1  0  0  0  0
  1 31  1  0  0  0  0
  1 32  1  0  0  0  0
  1 33  1  0  0  0  0
  2 34  1  0  0  0  0
  2 35  1  0  0  0  0
  5 36  1  0  0  0  0
  6 37  1  0  0  0  0
 10 38  1  0  0  0  0
 11 39  1  0  0  0  0
 16 40  1  0  0  0  0
 17 41  1  0  0  0  0
 19 42  1  0  0  0  0
 20 43  1  0  0  0  0
 21 44  1  0  0  0  0
 22 45  1  0  0  0  0
 24 46  1  0  0  0  0
 26 47  1  0  0  0  0
 27 48  1  0  0  0  0
M  END
