
  xtb     01172214523D
 energy: -20.434992051588 gnorm: 0.000427722350 xtb: 6.4.1 (unknown)
 14 14  0     0  0            999 V2000
   -0.5192    0.2294    1.4228 C   0  0  0  0  0  0  0  0  0  0  0  0
    0.3462   -0.7408    0.6168 C   0  0  0  0  0  0  0  0  0  0  0  0
    1.7634   -0.2720    0.5695 C   0  0  0  0  0  0  0  0  0  0  0  0
    2.3192    0.5120   -0.3961 C   0  0  0  0  0  0  0  0  0  0  0  0
    3.9674    0.8512   -0.0389 S   0  0  0  0  0  0  0  0  0  0  0  0
    3.7807   -0.0977    1.4040 C   0  0  0  0  0  0  0  0  0  0  0  0
    2.6172   -0.5990    1.5773 N   0  0  0  0  0  0  0  0  0  0  0  0
   -0.1228    0.3353    2.4294 H   0  0  0  0  0  0  0  0  0  0  0  0
   -0.5330    1.2094    0.9507 H   0  0  0  0  0  0  0  0  0  0  0  0
   -1.5394   -0.1407    1.4862 H   0  0  0  0  0  0  0  0  0  0  0  0
    0.3256   -1.7230    1.0906 H   0  0  0  0  0  0  0  0  0  0  0  0
   -0.0435   -0.8283   -0.3988 H   0  0  0  0  0  0  0  0  0  0  0  0
    1.8641    0.9007   -1.2843 H   0  0  0  0  0  0  0  0  0  0  0  0
    4.6020   -0.2370    2.0780 H   0  0  0  0  0  0  0  0  0  0  0  0
  1  2  1  0  0  0  0
  2  3  1  0  0  0  0
  3  4  2  0  0  0  0
  4  5  1  0  0  0  0
  5  6  1  0  0  0  0
  6  7  2  0  0  0  0
  7  3  1  0  0  0  0
  1  8  1  0  0  0  0
  1  9  1  0  0  0  0
  1 10  1  0  0  0  0
  2 11  1  0  0  0  0
  2 12  1  0  0  0  0
  4 13  1  0  0  0  0
  6 14  1  0  0  0  0
M  END
