
  xtb     01172214523D
 energy: -101.682055815114 gnorm: 0.000288956906 xtb: 6.4.1 (unknown)
 74 78  0     0  0            999 V2000
    9.3229   -0.0967    1.8465 C   0  0  0  0  0  0  0  0  0  0  0  0
    7.9218   -0.1080    1.2466 C   0  0  0  0  0  0  0  0  0  0  0  0
    6.7150   -1.2793    2.1623 Si  0  0  0  0  0  4  0  0  0  0  0  0
    6.3864   -0.6079    3.9231 C   0  0  0  0  0  0  0  0  0  0  0  0
    5.5663   -1.5392    4.8104 C   0  0  0  0  0  0  0  0  0  0  0  0
    7.4311   -3.0584    2.1722 C   0  0  0  0  0  0  0  0  0  0  0  0
    6.3789   -4.1604    2.2612 C   0  0  0  0  0  0  0  0  0  0  0  0
    5.0941   -1.2828    1.1994 C   0  0  0  0  0  0  0  0  0  0  0  0
    4.8497   -1.7768   -0.0525 C   0  0  0  0  0  0  0  0  0  0  0  0
    3.5255   -1.6222   -0.4853 C   0  0  0  0  0  0  0  0  0  0  0  0
    2.7233   -0.9884    0.4335 C   0  0  0  0  0  0  0  0  0  0  0  0
    1.3210   -0.6829    0.3152 C   0  0  0  0  0  0  0  0  0  0  0  0
    0.6395    0.2657    1.0986 C   0  0  0  0  0  0  0  0  0  0  0  0
    1.0537    1.1594    2.1352 C   0  0  0  0  0  0  0  0  0  0  0  0
   -0.0460    1.8565    2.4941 C   0  0  0  0  0  0  0  0  0  0  0  0
   -1.1355    1.4950    1.7827 O   0  0  0  0  0  0  0  0  0  0  0  0
   -0.7404    0.5256    0.9210 C   0  0  0  0  0  0  0  0  0  0  0  0
   -1.5602   -0.1095   -0.0200 C   0  0  0  0  0  0  0  0  0  0  0  0
   -2.9527    0.2248   -0.1662 C   0  0  0  0  0  0  0  0  0  0  0  0
   -3.7270    1.0019    0.6631 C   0  0  0  0  0  0  0  0  0  0  0  0
   -5.0438    1.1611    0.2104 C   0  0  0  0  0  0  0  0  0  0  0  0
   -5.3154    0.5255   -0.9700 C   0  0  0  0  0  0  0  0  0  0  0  0
   -6.9442    0.4146   -1.9120 Si  0  0  0  0  0  4  0  0  0  0  0  0
   -7.9921    1.9371   -1.4257 C   0  0  0  0  0  0  0  0  0  0  0  0
   -9.3600    1.9569   -2.0961 C   0  0  0  0  0  0  0  0  0  0  0  0
   -7.8500   -1.1930   -1.3798 C   0  0  0  0  0  0  0  0  0  0  0  0
   -6.9071   -2.3333   -1.0048 C   0  0  0  0  0  0  0  0  0  0  0  0
   -6.6040    0.4351   -3.7968 C   0  0  0  0  0  0  0  0  0  0  0  0
   -6.0135   -0.8607   -4.3437 C   0  0  0  0  0  0  0  0  0  0  0  0
   -3.9018   -0.3031   -1.5258 S   0  0  0  0  0  0  0  0  0  0  0  0
   -0.8806   -1.0703   -0.7931 C   0  0  0  0  0  0  0  0  0  0  0  0
   -1.2909   -1.9749   -1.8223 C   0  0  0  0  0  0  0  0  0  0  0  0
   -0.1886   -2.6700   -2.1781 C   0  0  0  0  0  0  0  0  0  0  0  0
    0.9011   -2.2971   -1.4739 O   0  0  0  0  0  0  0  0  0  0  0  0
    0.5011   -1.3241   -0.6190 C   0  0  0  0  0  0  0  0  0  0  0  0
    3.6465   -0.5987    1.8548 S   0  0  0  0  0  0  0  0  0  0  0  0
    9.7550   -1.0941    1.8296 H   0  0  0  0  0  0  0  0  0  0  0  0
    9.2958    0.2442    2.8783 H   0  0  0  0  0  0  0  0  0  0  0  0
    9.9792    0.5681    1.2874 H   0  0  0  0  0  0  0  0  0  0  0  0
    7.5250    0.9078    1.2534 H   0  0  0  0  0  0  0  0  0  0  0  0
    7.9880   -0.4034    0.1988 H   0  0  0  0  0  0  0  0  0  0  0  0
    7.3358   -0.3998    4.4187 H   0  0  0  0  0  0  0  0  0  0  0  0
    5.8647    0.3473    3.8428 H   0  0  0  0  0  0  0  0  0  0  0  0
    6.0972   -2.4721    4.9821 H   0  0  0  0  0  0  0  0  0  0  0  0
    4.6102   -1.7666    4.3459 H   0  0  0  0  0  0  0  0  0  0  0  0
    5.3723   -1.0778    5.7772 H   0  0  0  0  0  0  0  0  0  0  0  0
    8.0186   -3.2116    1.2653 H   0  0  0  0  0  0  0  0  0  0  0  0
    8.1256   -3.1644    3.0071 H   0  0  0  0  0  0  0  0  0  0  0  0
    5.8017   -4.0734    3.1776 H   0  0  0  0  0  0  0  0  0  0  0  0
    5.6887   -4.0979    1.4236 H   0  0  0  0  0  0  0  0  0  0  0  0
    6.8482   -5.1428    2.2456 H   0  0  0  0  0  0  0  0  0  0  0  0
    5.6155   -2.2422   -0.6483 H   0  0  0  0  0  0  0  0  0  0  0  0
    3.1722   -1.9489   -1.4453 H   0  0  0  0  0  0  0  0  0  0  0  0
    2.0341    1.2675    2.5472 H   0  0  0  0  0  0  0  0  0  0  0  0
   -0.1895    2.6249    3.2289 H   0  0  0  0  0  0  0  0  0  0  0  0
   -3.3600    1.4358    1.5737 H   0  0  0  0  0  0  0  0  0  0  0  0
   -5.7826    1.7373    0.7387 H   0  0  0  0  0  0  0  0  0  0  0  0
   -7.4583    2.8528   -1.6807 H   0  0  0  0  0  0  0  0  0  0  0  0
   -8.1333    1.9529   -0.3449 H   0  0  0  0  0  0  0  0  0  0  0  0
   -9.2573    2.0030   -3.1772 H   0  0  0  0  0  0  0  0  0  0  0  0
   -9.9222    1.0606   -1.8461 H   0  0  0  0  0  0  0  0  0  0  0  0
   -9.9381    2.8219   -1.7749 H   0  0  0  0  0  0  0  0  0  0  0  0
   -8.5078   -1.5271   -2.1837 H   0  0  0  0  0  0  0  0  0  0  0  0
   -8.4940   -0.9803   -0.5245 H   0  0  0  0  0  0  0  0  0  0  0  0
   -6.2811   -2.0479   -0.1628 H   0  0  0  0  0  0  0  0  0  0  0  0
   -6.2550   -2.5872   -1.8363 H   0  0  0  0  0  0  0  0  0  0  0  0
   -7.4689   -3.2232   -0.7257 H   0  0  0  0  0  0  0  0  0  0  0  0
   -7.5342    0.6430   -4.3279 H   0  0  0  0  0  0  0  0  0  0  0  0
   -5.9252    1.2567   -4.0324 H   0  0  0  0  0  0  0  0  0  0  0  0
   -5.8296   -0.7788   -5.4138 H   0  0  0  0  0  0  0  0  0  0  0  0
   -6.6936   -1.6926   -4.1795 H   0  0  0  0  0  0  0  0  0  0  0  0
   -5.0697   -1.0871   -3.8539 H   0  0  0  0  0  0  0  0  0  0  0  0
   -2.2706   -2.0967   -2.2316 H   0  0  0  0  0  0  0  0  0  0  0  0
   -0.0447   -3.4444   -2.9065 H   0  0  0  0  0  0  0  0  0  0  0  0
  1  2  1  0  0  0  0
  2  3  1  0  0  0  0
  3  4  1  0  0  0  0
  4  5  1  0  0  0  0
  3  6  1  0  0  0  0
  6  7  1  0  0  0  0
  3  8  1  0  0  0  0
  8  9  2  0  0  0  0
  9 10  1  0  0  0  0
 10 11  2  0  0  0  0
 11 12  1  0  0  0  0
 12 13  2  0  0  0  0
 13 14  1  0  0  0  0
 14 15  2  0  0  0  0
 15 16  1  0  0  0  0
 16 17  1  0  0  0  0
 17 18  2  0  0  0  0
 18 19  1  0  0  0  0
 19 20  2  0  0  0  0
 20 21  1  0  0  0  0
 21 22  2  0  0  0  0
 22 23  1  0  0  0  0
 23 24  1  0  0  0  0
 24 25  1  0  0  0  0
 23 26  1  0  0  0  0
 26 27  1  0  0  0  0
 23 28  1  0  0  0  0
 28 29  1  0  0  0  0
 22 30  1  0  0  0  0
 18 31  1  0  0  0  0
 31 32  1  0  0  0  0
 32 33  2  0  0  0  0
 33 34  1  0  0  0  0
 34 35  1  0  0  0  0
 11 36  1  0  0  0  0
 36  8  1  0  0  0  0
 35 12  1  0  0  0  0
 17 13  1  0  0  0  0
 30 19  1  0  0  0  0
 35 31  2  0  0  0  0
  1 37  1  0  0  0  0
  1 38  1  0  0  0  0
  1 39  1  0  0  0  0
  2 40  1  0  0  0  0
  2 41  1  0  0  0  0
  4 42  1  0  0  0  0
  4 43  1  0  0  0  0
  5 44  1  0  0  0  0
  5 45  1  0  0  0  0
  5 46  1  0  0  0  0
  6 47  1  0  0  0  0
  6 48  1  0  0  0  0
  7 49  1  0  0  0  0
  7 50  1  0  0  0  0
  7 51  1  0  0  0  0
  9 52  1  0  0  0  0
 10 53  1  0  0  0  0
 14 54  1  0  0  0  0
 15 55  1  0  0  0  0
 20 56  1  0  0  0  0
 21 57  1  0  0  0  0
 24 58  1  0  0  0  0
 24 59  1  0  0  0  0
 25 60  1  0  0  0  0
 25 61  1  0  0  0  0
 25 62  1  0  0  0  0
 26 63  1  0  0  0  0
 26 64  1  0  0  0  0
 27 65  1  0  0  0  0
 27 66  1  0  0  0  0
 27 67  1  0  0  0  0
 28 68  1  0  0  0  0
 28 69  1  0  0  0  0
 29 70  1  0  0  0  0
 29 71  1  0  0  0  0
 29 72  1  0  0  0  0
 32 73  1  0  0  0  0
 33 74  1  0  0  0  0
M  END
