
  xtb     01172214523D
 energy: -88.336804769002 gnorm: 0.000746409151 xtb: 6.4.1 (unknown)
 52 56  0     0  0            999 V2000
    7.6119   -1.9017    2.3251 C   0  0  0  0  0  0  0  0  0  0  0  0
    7.5266   -3.4002    2.1120 C   0  0  0  0  0  0  0  0  0  0  0  0
    6.1487   -4.1464    3.0601 S   0  0  0  0  0  0  0  0  0  0  0  0
    4.7198   -3.2912    2.4584 C   0  0  0  0  0  0  0  0  0  0  0  0
    3.7612   -2.9043    3.3922 C   0  0  0  0  0  0  0  0  0  0  0  0
    2.6053   -2.2588    3.0076 C   0  0  0  0  0  0  0  0  0  0  0  0
    2.3664   -1.9723    1.6649 C   0  0  0  0  0  0  0  0  0  0  0  0
    1.1381   -1.2829    1.2472 C   0  0  0  0  0  0  0  0  0  0  0  0
    0.7499   -0.0640    1.8182 C   0  0  0  0  0  0  0  0  0  0  0  0
    1.4365    0.7103    2.8025 C   0  0  0  0  0  0  0  0  0  0  0  0
    0.7773    1.8371    3.1363 C   0  0  0  0  0  0  0  0  0  0  0  0
   -0.7133    2.0502    2.2821 S   0  0  0  0  0  0  0  0  0  0  0  0
   -0.4523    0.5612    1.4102 C   0  0  0  0  0  0  0  0  0  0  0  0
   -1.3091    0.0144    0.4640 C   0  0  0  0  0  0  0  0  0  0  0  0
   -2.5725    0.6696    0.1005 C   0  0  0  0  0  0  0  0  0  0  0  0
   -2.6040    2.0091   -0.2819 C   0  0  0  0  0  0  0  0  0  0  0  0
   -3.7941    2.6130   -0.6255 C   0  0  0  0  0  0  0  0  0  0  0  0
   -5.0013    1.9171   -0.5855 C   0  0  0  0  0  0  0  0  0  0  0  0
   -6.4645    2.8231   -0.9930 S   0  0  0  0  0  0  0  0  0  0  0  0
   -7.5075    1.6257   -1.9048 C   0  0  0  0  0  0  0  0  0  0  0  0
   -6.8083    1.0834   -3.1352 C   0  0  0  0  0  0  0  0  0  0  0  0
   -4.9580    0.5894   -0.1707 C   0  0  0  0  0  0  0  0  0  0  0  0
   -6.0898   -0.1431   -0.0617 F   0  0  0  0  0  0  0  0  0  0  0  0
   -3.7702   -0.0359    0.1504 C   0  0  0  0  0  0  0  0  0  0  0  0
   -0.9142   -1.1984   -0.1164 C   0  0  0  0  0  0  0  0  0  0  0  0
   -1.5799   -1.9549   -1.1282 C   0  0  0  0  0  0  0  0  0  0  0  0
   -0.9235   -3.0851   -1.4562 C   0  0  0  0  0  0  0  0  0  0  0  0
    0.5492   -3.3141   -0.5769 S   0  0  0  0  0  0  0  0  0  0  0  0
    0.2983   -1.8132    0.2773 C   0  0  0  0  0  0  0  0  0  0  0  0
    3.3069   -2.3689    0.7207 C   0  0  0  0  0  0  0  0  0  0  0  0
    4.4538   -3.0253    1.1189 C   0  0  0  0  0  0  0  0  0  0  0  0
    5.3205   -3.4014    0.1536 F   0  0  0  0  0  0  0  0  0  0  0  0
    7.7035   -1.6713    3.3846 H   0  0  0  0  0  0  0  0  0  0  0  0
    6.7236   -1.4045    1.9390 H   0  0  0  0  0  0  0  0  0  0  0  0
    8.4812   -1.5060    1.8039 H   0  0  0  0  0  0  0  0  0  0  0  0
    7.4152   -3.6571    1.0607 H   0  0  0  0  0  0  0  0  0  0  0  0
    8.4070   -3.9053    2.5094 H   0  0  0  0  0  0  0  0  0  0  0  0
    3.9449   -3.1244    4.4324 H   0  0  0  0  0  0  0  0  0  0  0  0
    1.8718   -1.9835    3.7503 H   0  0  0  0  0  0  0  0  0  0  0  0
    2.3845    0.4251    3.2212 H   0  0  0  0  0  0  0  0  0  0  0  0
    1.0716    2.5883    3.8432 H   0  0  0  0  0  0  0  0  0  0  0  0
   -1.6852    2.5721   -0.3353 H   0  0  0  0  0  0  0  0  0  0  0  0
   -3.8124    3.6464   -0.9342 H   0  0  0  0  0  0  0  0  0  0  0  0
   -7.8155    0.8328   -1.2269 H   0  0  0  0  0  0  0  0  0  0  0  0
   -8.3813    2.2176   -2.1783 H   0  0  0  0  0  0  0  0  0  0  0  0
   -5.9313    0.5014   -2.8583 H   0  0  0  0  0  0  0  0  0  0  0  0
   -7.4882    0.4378   -3.6875 H   0  0  0  0  0  0  0  0  0  0  0  0
   -6.4918    1.8970   -3.7848 H   0  0  0  0  0  0  0  0  0  0  0  0
   -3.7967   -1.0644    0.4763 H   0  0  0  0  0  0  0  0  0  0  0  0
   -2.5007   -1.6451   -1.5877 H   0  0  0  0  0  0  0  0  0  0  0  0
   -1.2050   -3.8241   -2.1808 H   0  0  0  0  0  0  0  0  0  0  0  0
    3.1614   -2.1709   -0.3298 H   0  0  0  0  0  0  0  0  0  0  0  0
  1  2  1  0  0  0  0
  2  3  1  0  0  0  0
  3  4  1  0  0  0  0
  4  5  2  0  0  0  0
  5  6  1  0  0  0  0
  6  7  2  0  0  0  0
  7  8  1  0  0  0  0
  8  9  2  0  0  0  0
  9 10  1  0  0  0  0
 10 11  2  0  0  0  0
 11 12  1  0  0  0  0
 12 13  1  0  0  0  0
 13 14  2  0  0  0  0
 14 15  1  0  0  0  0
 15 16  2  0  0  0  0
 16 17  1  0  0  0  0
 17 18  2  0  0  0  0
 18 19  1  0  0  0  0
 19 20  1  0  0  0  0
 20 21  1  0  0  0  0
 18 22  1  0  0  0  0
 22 23  1  0  0  0  0
 22 24  2  0  0  0  0
 14 25  1  0  0  0  0
 25 26  1  0  0  0  0
 26 27  2  0  0  0  0
 27 28  1  0  0  0  0
 28 29  1  0  0  0  0
  7 30  1  0  0  0  0
 30 31  2  0  0  0  0
 31 32  1  0  0  0  0
 31  4  1  0  0  0  0
 29  8  1  0  0  0  0
 13  9  1  0  0  0  0
 24 15  1  0  0  0  0
 29 25  2  0  0  0  0
  1 33  1  0  0  0  0
  1 34  1  0  0  0  0
  1 35  1  0  0  0  0
  2 36  1  0  0  0  0
  2 37  1  0  0  0  0
  5 38  1  0  0  0  0
  6 39  1  0  0  0  0
 10 40  1  0  0  0  0
 11 41  1  0  0  0  0
 16 42  1  0  0  0  0
 17 43  1  0  0  0  0
 20 44  1  0  0  0  0
 20 45  1  0  0  0  0
 21 46  1  0  0  0  0
 21 47  1  0  0  0  0
 21 48  1  0  0  0  0
 24 49  1  0  0  0  0
 26 50  1  0  0  0  0
 27 51  1  0  0  0  0
 30 52  1  0  0  0  0
M  END
