
  xtb     01172214533D
 energy: -190.926613709730 gnorm: 0.000594348334 xtb: 6.4.1 (unknown)
118128  0     0  0            999 V2000
    2.8335   -5.8334   -4.9770 C   0  0  0  0  0  0  0  0  0  0  0  0
    2.4317   -4.9613   -5.9987 O   0  0  0  0  0  0  0  0  0  0  0  0
    3.3066   -3.8727   -6.1617 C   0  0  0  0  0  0  0  0  0  0  0  0
    2.8814   -3.0495   -7.1830 O   0  0  0  0  0  0  0  0  0  0  0  0
    1.5885   -2.4784   -6.9801 C   0  0  0  0  0  0  0  0  0  0  0  0
    1.5377   -1.5870   -5.7664 C   0  0  0  0  0  0  0  0  0  0  0  0
    0.8496   -1.9730   -4.6252 C   0  0  0  0  0  0  0  0  0  0  0  0
    0.8365   -1.1669   -3.4998 C   0  0  0  0  0  0  0  0  0  0  0  0
    1.5091    0.0461   -3.4979 C   0  0  0  0  0  0  0  0  0  0  0  0
    1.5613    0.9368   -2.2681 C   0  0  0  0  0  0  0  0  0  0  0  0
    1.3335    2.3913   -2.6206 C   0  0  0  0  0  0  0  0  0  0  0  0
    0.3967    2.7327   -3.5895 C   0  0  0  0  0  0  0  0  0  0  0  0
    0.1572    4.0576   -3.8951 C   0  0  0  0  0  0  0  0  0  0  0  0
    0.8380    5.0721   -3.2325 C   0  0  0  0  0  0  0  0  0  0  0  0
    0.5494    6.5128   -3.5794 C   0  0  0  0  0  0  0  0  0  0  0  0
   -0.8307    6.7913   -3.6703 O   0  0  0  0  0  0  0  0  0  0  0  0
   -1.4932    6.7235   -2.4299 C   0  0  0  0  0  0  0  0  0  0  0  0
   -2.8485    6.9116   -2.5915 O   0  0  0  0  0  0  0  0  0  0  0  0
   -3.4811    5.8832   -3.3290 C   0  0  0  0  0  0  0  0  0  0  0  0
    1.7602    4.7312   -2.2544 C   0  0  0  0  0  0  0  0  0  0  0  0
    2.0066    3.4037   -1.9520 C   0  0  0  0  0  0  0  0  0  0  0  0
    0.5818    0.5181   -1.1826 C   0  0  0  0  0  0  0  0  0  0  0  0
   -0.7919    0.5986   -1.2023 C   0  0  0  0  0  0  0  0  0  0  0  0
   -1.4720    0.1174   -0.0885 C   0  0  0  0  0  0  0  0  0  0  0  0
   -0.7908   -0.4421    1.0155 C   0  0  0  0  0  0  0  0  0  0  0  0
    0.5842   -0.4876    1.0510 C   0  0  0  0  0  0  0  0  0  0  0  0
    1.2649    0.0034   -0.0583 C   0  0  0  0  0  0  0  0  0  0  0  0
    2.6667    0.1079   -0.3384 C   0  0  0  0  0  0  0  0  0  0  0  0
    4.1267   -0.2762    0.5134 S   0  0  0  0  0  0  0  0  0  0  0  0
    5.0484    0.3268   -0.8302 C   0  0  0  0  0  0  0  0  0  0  0  0
    6.4267    0.4572   -1.0879 C   0  0  0  0  0  0  0  0  0  0  0  0
    6.6473    1.0127   -2.3070 C   0  0  0  0  0  0  0  0  0  0  0  0
    5.1966    1.3908   -3.1760 S   0  0  0  0  0  0  0  0  0  0  0  0
    4.2387    0.7889   -1.8709 C   0  0  0  0  0  0  0  0  0  0  0  0
    2.8748    0.6673   -1.5815 C   0  0  0  0  0  0  0  0  0  0  0  0
   -1.7736   -0.9287    2.0697 C   0  0  0  0  0  0  0  0  0  0  0  0
   -1.4697   -0.2527    3.3897 C   0  0  0  0  0  0  0  0  0  0  0  0
   -0.5281   -0.8058    4.2504 C   0  0  0  0  0  0  0  0  0  0  0  0
   -0.2199   -0.1835    5.4435 C   0  0  0  0  0  0  0  0  0  0  0  0
   -0.8352    1.0109    5.7994 C   0  0  0  0  0  0  0  0  0  0  0  0
   -0.4763    1.6729    7.1079 C   0  0  0  0  0  0  0  0  0  0  0  0
    0.9131    1.7020    7.3491 O   0  0  0  0  0  0  0  0  0  0  0  0
    1.6100    2.5571    6.4743 C   0  0  0  0  0  0  0  0  0  0  0  0
    2.9648    2.5017    6.7173 O   0  0  0  0  0  0  0  0  0  0  0  0
    3.5427    1.2421    6.4325 C   0  0  0  0  0  0  0  0  0  0  0  0
   -1.7613    1.5710    4.9324 C   0  0  0  0  0  0  0  0  0  0  0  0
   -2.0767    0.9448    3.7394 C   0  0  0  0  0  0  0  0  0  0  0  0
   -1.8113   -2.4408    2.2093 C   0  0  0  0  0  0  0  0  0  0  0  0
   -2.5025   -3.0007    3.2773 C   0  0  0  0  0  0  0  0  0  0  0  0
   -2.6095   -4.3729    3.4037 C   0  0  0  0  0  0  0  0  0  0  0  0
   -2.0225   -5.2150    2.4691 C   0  0  0  0  0  0  0  0  0  0  0  0
   -2.1374   -6.7139    2.5822 C   0  0  0  0  0  0  0  0  0  0  0  0
   -2.6171   -7.3182    1.3838 O   0  0  0  0  0  0  0  0  0  0  0  0
   -3.9136   -6.9749    1.0624 C   0  0  0  0  0  0  0  0  0  0  0  0
   -4.8072   -7.4288    2.0482 O   0  0  0  0  0  0  0  0  0  0  0  0
   -6.1409   -7.1028    1.7645 C   0  0  0  0  0  0  0  0  0  0  0  0
   -1.3422   -4.6533    1.3960 C   0  0  0  0  0  0  0  0  0  0  0  0
   -1.2428   -3.2809    1.2616 C   0  0  0  0  0  0  0  0  0  0  0  0
   -3.0816   -0.5133    1.4487 C   0  0  0  0  0  0  0  0  0  0  0  0
   -2.8726    0.0536    0.2093 C   0  0  0  0  0  0  0  0  0  0  0  0
   -4.3292    0.5216   -0.6052 S   0  0  0  0  0  0  0  0  0  0  0  0
   -5.2515   -0.0625    0.7463 C   0  0  0  0  0  0  0  0  0  0  0  0
   -6.6279   -0.1132    1.0396 C   0  0  0  0  0  0  0  0  0  0  0  0
   -6.8500   -0.6711    2.2572 C   0  0  0  0  0  0  0  0  0  0  0  0
   -5.4021   -1.1509    3.0807 S   0  0  0  0  0  0  0  0  0  0  0  0
   -4.4444   -0.5895    1.7577 C   0  0  0  0  0  0  0  0  0  0  0  0
    2.2149    0.4266   -4.6347 C   0  0  0  0  0  0  0  0  0  0  0  0
    2.2291   -0.3807   -5.7546 C   0  0  0  0  0  0  0  0  0  0  0  0
    3.8119   -6.2781   -5.1957 H   0  0  0  0  0  0  0  0  0  0  0  0
    2.8917   -5.3121   -4.0128 H   0  0  0  0  0  0  0  0  0  0  0  0
    2.0805   -6.6163   -4.9252 H   0  0  0  0  0  0  0  0  0  0  0  0
    3.3866   -3.3232   -5.1981 H   0  0  0  0  0  0  0  0  0  0  0  0
    4.3101   -4.2218   -6.4539 H   0  0  0  0  0  0  0  0  0  0  0  0
    1.4061   -1.9036   -7.8913 H   0  0  0  0  0  0  0  0  0  0  0  0
    0.8455   -3.2792   -6.8981 H   0  0  0  0  0  0  0  0  0  0  0  0
    0.3203   -2.9151   -4.6139 H   0  0  0  0  0  0  0  0  0  0  0  0
    0.2975   -1.4887   -2.6210 H   0  0  0  0  0  0  0  0  0  0  0  0
   -0.1362    1.9558   -4.1182 H   0  0  0  0  0  0  0  0  0  0  0  0
   -0.5695    4.3196   -4.6499 H   0  0  0  0  0  0  0  0  0  0  0  0
    0.9449    6.7447   -4.5733 H   0  0  0  0  0  0  0  0  0  0  0  0
    1.0245    7.1817   -2.8463 H   0  0  0  0  0  0  0  0  0  0  0  0
   -1.1452    7.5313   -1.7663 H   0  0  0  0  0  0  0  0  0  0  0  0
   -1.2787    5.7440   -1.9504 H   0  0  0  0  0  0  0  0  0  0  0  0
   -3.3193    4.9094   -2.8514 H   0  0  0  0  0  0  0  0  0  0  0  0
   -3.1050    5.8496   -4.3542 H   0  0  0  0  0  0  0  0  0  0  0  0
   -4.5418    6.1222   -3.3323 H   0  0  0  0  0  0  0  0  0  0  0  0
    2.2929    5.5079   -1.7246 H   0  0  0  0  0  0  0  0  0  0  0  0
    2.7262    3.1577   -1.1852 H   0  0  0  0  0  0  0  0  0  0  0  0
   -1.3277    1.0086   -2.0446 H   0  0  0  0  0  0  0  0  0  0  0  0
    1.1208   -0.8919    1.8955 H   0  0  0  0  0  0  0  0  0  0  0  0
    7.2026    0.1581   -0.4078 H   0  0  0  0  0  0  0  0  0  0  0  0
    7.5898    1.2313   -2.7680 H   0  0  0  0  0  0  0  0  0  0  0  0
   -0.0470   -1.7377    3.9917 H   0  0  0  0  0  0  0  0  0  0  0  0
    0.5096   -0.6170    6.1116 H   0  0  0  0  0  0  0  0  0  0  0  0
   -0.8908    1.0985    7.9426 H   0  0  0  0  0  0  0  0  0  0  0  0
   -0.8895    2.6922    7.1426 H   0  0  0  0  0  0  0  0  0  0  0  0
    1.3788    2.2781    5.4235 H   0  0  0  0  0  0  0  0  0  0  0  0
    1.3073    3.6034    6.6418 H   0  0  0  0  0  0  0  0  0  0  0  0
    4.6095    1.3515    6.6121 H   0  0  0  0  0  0  0  0  0  0  0  0
    3.3671    0.9636    5.3865 H   0  0  0  0  0  0  0  0  0  0  0  0
    3.1339    0.4679    7.0860 H   0  0  0  0  0  0  0  0  0  0  0  0
   -2.2435    2.5030    5.1905 H   0  0  0  0  0  0  0  0  0  0  0  0
   -2.7988    1.3973    3.0759 H   0  0  0  0  0  0  0  0  0  0  0  0
   -2.9609   -2.3567    4.0136 H   0  0  0  0  0  0  0  0  0  0  0  0
   -3.1562   -4.7925    4.2356 H   0  0  0  0  0  0  0  0  0  0  0  0
   -1.1510   -7.1619    2.7334 H   0  0  0  0  0  0  0  0  0  0  0  0
   -2.7884   -6.9870    3.4197 H   0  0  0  0  0  0  0  0  0  0  0  0
   -4.1257   -7.4586    0.0952 H   0  0  0  0  0  0  0  0  0  0  0  0
   -4.0283   -5.8749    0.9452 H   0  0  0  0  0  0  0  0  0  0  0  0
   -6.7349   -7.4865    2.5908 H   0  0  0  0  0  0  0  0  0  0  0  0
   -6.2738   -6.0159    1.6871 H   0  0  0  0  0  0  0  0  0  0  0  0
   -6.4723   -7.5655    0.8269 H   0  0  0  0  0  0  0  0  0  0  0  0
   -0.8992   -5.3049    0.6572 H   0  0  0  0  0  0  0  0  0  0  0  0
   -0.7158   -2.8635    0.4165 H   0  0  0  0  0  0  0  0  0  0  0  0
   -7.4016    0.2443    0.3856 H   0  0  0  0  0  0  0  0  0  0  0  0
   -7.7914   -0.8389    2.7411 H   0  0  0  0  0  0  0  0  0  0  0  0
    2.7508    1.3646   -4.6407 H   0  0  0  0  0  0  0  0  0  0  0  0
    2.7847   -0.0809   -6.6305 H   0  0  0  0  0  0  0  0  0  0  0  0
  1  2  1  0  0  0  0
  2  3  1  0  0  0  0
  3  4  1  0  0  0  0
  4  5  1  0  0  0  0
  5  6  1  0  0  0  0
  6  7  2  0  0  0  0
  7  8  1  0  0  0  0
  8  9  2  0  0  0  0
  9 10  1  0  0  0  0
 10 11  1  0  0  0  0
 11 12  2  0  0  0  0
 12 13  1  0  0  0  0
 13 14  2  0  0  0  0
 14 15  1  0  0  0  0
 15 16  1  0  0  0  0
 16 17  1  0  0  0  0
 17 18  1  0  0  0  0
 18 19  1  0  0  0  0
 14 20  1  0  0  0  0
 20 21  2  0  0  0  0
 10 22  1  0  0  0  0
 22 23  2  0  0  0  0
 23 24  1  0  0  0  0
 24 25  2  0  0  0  0
 25 26  1  0  0  0  0
 26 27  2  0  0  0  0
 27 28  1  0  0  0  0
 28 29  1  0  0  0  0
 29 30  1  0  0  0  0
 30 31  1  0  0  0  0
 31 32  2  0  0  0  0
 32 33  1  0  0  0  0
 33 34  1  0  0  0  0
 34 35  1  0  0  0  0
 25 36  1  0  0  0  0
 36 37  1  0  0  0  0
 37 38  2  0  0  0  0
 38 39  1  0  0  0  0
 39 40  2  0  0  0  0
 40 41  1  0  0  0  0
 41 42  1  0  0  0  0
 42 43  1  0  0  0  0
 43 44  1  0  0  0  0
 44 45  1  0  0  0  0
 40 46  1  0  0  0  0
 46 47  2  0  0  0  0
 36 48  1  0  0  0  0
 48 49  2  0  0  0  0
 49 50  1  0  0  0  0
 50 51  2  0  0  0  0
 51 52  1  0  0  0  0
 52 53  1  0  0  0  0
 53 54  1  0  0  0  0
 54 55  1  0  0  0  0
 55 56  1  0  0  0  0
 51 57  1  0  0  0  0
 57 58  2  0  0  0  0
 36 59  1  0  0  0  0
 59 60  2  0  0  0  0
 60 61  1  0  0  0  0
 61 62  1  0  0  0  0
 62 63  1  0  0  0  0
 63 64  2  0  0  0  0
 64 65  1  0  0  0  0
 65 66  1  0  0  0  0
  9 67  1  0  0  0  0
 67 68  2  0  0  0  0
 68  6  1  0  0  0  0
 35 10  1  0  0  0  0
 47 37  1  0  0  0  0
 58 48  1  0  0  0  0
 66 59  1  0  0  0  0
 21 11  1  0  0  0  0
 27 22  1  0  0  0  0
 35 28  2  0  0  0  0
 66 62  2  0  0  0  0
 60 24  1  0  0  0  0
 34 30  2  0  0  0  0
  1 69  1  0  0  0  0
  1 70  1  0  0  0  0
  1 71  1  0  0  0  0
  3 72  1  0  0  0  0
  3 73  1  0  0  0  0
  5 74  1  0  0  0  0
  5 75  1  0  0  0  0
  7 76  1  0  0  0  0
  8 77  1  0  0  0  0
 12 78  1  0  0  0  0
 13 79  1  0  0  0  0
 15 80  1  0  0  0  0
 15 81  1  0  0  0  0
 17 82  1  0  0  0  0
 17 83  1  0  0  0  0
 19 84  1  0  0  0  0
 19 85  1  0  0  0  0
 19 86  1  0  0  0  0
 20 87  1  0  0  0  0
 21 88  1  0  0  0  0
 23 89  1  0  0  0  0
 26 90  1  0  0  0  0
 31 91  1  0  0  0  0
 32 92  1  0  0  0  0
 38 93  1  0  0  0  0
 39 94  1  0  0  0  0
 41 95  1  0  0  0  0
 41 96  1  0  0  0  0
 43 97  1  0  0  0  0
 43 98  1  0  0  0  0
 45 99  1  0  0  0  0
 45100  1  0  0  0  0
 45101  1  0  0  0  0
 46102  1  0  0  0  0
 47103  1  0  0  0  0
 49104  1  0  0  0  0
 50105  1  0  0  0  0
 52106  1  0  0  0  0
 52107  1  0  0  0  0
 54108  1  0  0  0  0
 54109  1  0  0  0  0
 56110  1  0  0  0  0
 56111  1  0  0  0  0
 56112  1  0  0  0  0
 57113  1  0  0  0  0
 58114  1  0  0  0  0
 63115  1  0  0  0  0
 64116  1  0  0  0  0
 67117  1  0  0  0  0
 68118  1  0  0  0  0
M  END
