
  xtb     01172214543D
 energy: -47.912901258175 gnorm: 0.000659600604 xtb: 6.4.1 (unknown)
 26 27  0     0  0            999 V2000
    0.2689    1.4900    4.0100 C   0  0  0  0  0  0  0  0  0  0  0  0
    0.5054    0.7780    2.9070 C   0  0  0  0  0  0  0  0  0  0  0  0
    1.8769    0.2624    2.5779 C   0  0  0  0  0  0  0  0  0  0  0  0
    2.8712    0.4103    3.2486 O   0  0  0  0  0  0  0  0  0  0  0  0
    1.7339   -0.4366    1.2968 C   0  0  0  0  0  0  0  0  0  0  0  0
    2.6984   -1.0874    0.5412 C   0  0  0  0  0  0  0  0  0  0  0  0
    2.3247   -1.6718   -0.6490 C   0  0  0  0  0  0  0  0  0  0  0  0
    0.9943   -1.6145   -1.0980 C   0  0  0  0  0  0  0  0  0  0  0  0
    0.7549   -2.2188   -2.2763 O   0  0  0  0  0  0  0  0  0  0  0  0
   -0.5536   -2.2056   -2.8080 C   0  0  0  0  0  0  0  0  0  0  0  0
    0.0213   -0.9620   -0.3379 C   0  0  0  0  0  0  0  0  0  0  0  0
    0.3974   -0.3751    0.8603 C   0  0  0  0  0  0  0  0  0  0  0  0
   -0.3994    0.3598    1.8352 C   0  0  0  0  0  0  0  0  0  0  0  0
   -1.7399    0.6052    1.7690 C   0  0  0  0  0  0  0  0  0  0  0  0
   -2.5776    0.1677    0.7191 C   0  0  0  0  0  0  0  0  0  0  0  0
   -3.3027   -0.1615   -0.1072 N   0  0  0  0  0  0  0  0  0  0  0  0
   -2.4745    1.3242    2.7389 C   0  0  0  0  0  0  0  0  0  0  0  0
   -3.1316    1.8978    3.4838 N   0  0  0  0  0  0  0  0  0  0  0  0
    1.0922    1.6909    4.6775 H   0  0  0  0  0  0  0  0  0  0  0  0
   -0.6954    1.8837    4.2787 H   0  0  0  0  0  0  0  0  0  0  0  0
    3.7186   -1.1271    0.8898 H   0  0  0  0  0  0  0  0  0  0  0  0
    3.0409   -2.1875   -1.2688 H   0  0  0  0  0  0  0  0  0  0  0  0
   -0.4896   -2.7458   -3.7508 H   0  0  0  0  0  0  0  0  0  0  0  0
   -0.8989   -1.1853   -2.9970 H   0  0  0  0  0  0  0  0  0  0  0  0
   -1.2608   -2.7128   -2.1458 H   0  0  0  0  0  0  0  0  0  0  0  0
   -0.9989   -0.9150   -0.6767 H   0  0  0  0  0  0  0  0  0  0  0  0
  1  2  2  0  0  0  0
  2  3  1  0  0  0  0
  3  4  2  0  0  0  0
  3  5  1  0  0  0  0
  5  6  2  0  0  0  0
  6  7  1  0  0  0  0
  7  8  2  0  0  0  0
  8  9  1  0  0  0  0
  9 10  1  0  0  0  0
  8 11  1  0  0  0  0
 11 12  2  0  0  0  0
 12 13  1  0  0  0  0
 13 14  2  0  0  0  0
 14 15  1  0  0  0  0
 15 16  3  0  0  0  0
 14 17  1  0  0  0  0
 17 18  3  0  0  0  0
 13  2  1  0  0  0  0
 12  5  1  0  0  0  0
  1 19  1  0  0  0  0
  1 20  1  0  0  0  0
  6 21  1  0  0  0  0
  7 22  1  0  0  0  0
 10 23  1  0  0  0  0
 10 24  1  0  0  0  0
 10 25  1  0  0  0  0
 11 26  1  0  0  0  0
M  END
