
  xtb     01172214543D
 energy: -88.489315520624 gnorm: 0.000704242312 xtb: 6.4.1 (unknown)
 56 62  0     0  0            999 V2000
    6.5787    0.6169    6.6934 C   0  0  0  0  0  0  0  0  0  0  0  0
    6.4213   -0.8308    6.2246 C   0  0  0  0  0  0  0  0  0  0  0  0
    5.9283   -0.8732    4.8057 C   0  0  0  0  0  0  0  0  0  0  0  0
    6.8440   -0.8520    3.7471 C   0  0  0  0  0  0  0  0  0  0  0  0
    6.4296   -0.8490    2.4321 C   0  0  0  0  0  0  0  0  0  0  0  0
    5.0686   -0.8654    2.1710 C   0  0  0  0  0  0  0  0  0  0  0  0
    4.2977   -0.8755    0.6112 S   0  0  0  0  0  0  0  0  0  0  0  0
    2.7141   -0.8954    1.3646 C   0  0  0  0  0  0  0  0  0  0  0  0
    1.5094   -0.9168    0.5546 C   0  0  0  0  0  0  0  0  0  0  0  0
    0.4285   -0.0674    0.8413 C   0  0  0  0  0  0  0  0  0  0  0  0
    0.3550    0.9682    1.8209 C   0  0  0  0  0  0  0  0  0  0  0  0
   -0.8215    1.6246    1.8033 C   0  0  0  0  0  0  0  0  0  0  0  0
   -1.9254    1.0339    0.6090 S   0  0  0  0  0  0  0  0  0  0  0  0
   -0.7564   -0.1467    0.0758 C   0  0  0  0  0  0  0  0  0  0  0  0
   -0.9211   -1.0258   -0.9918 C   0  0  0  0  0  0  0  0  0  0  0  0
   -2.1616   -1.0451   -1.7454 C   0  0  0  0  0  0  0  0  0  0  0  0
   -3.4243   -0.9791   -1.2481 C   0  0  0  0  0  0  0  0  0  0  0  0
   -4.4320   -0.9645   -2.2512 C   0  0  0  0  0  0  0  0  0  0  0  0
   -5.8186   -0.9087   -2.1049 C   0  0  0  0  0  0  0  0  0  0  0  0
   -6.6333   -0.8980   -3.2193 C   0  0  0  0  0  0  0  0  0  0  0  0
   -8.1244   -0.7849   -3.0725 C   0  0  0  0  0  0  0  0  0  0  0  0
   -8.5520    0.6841   -3.0884 C   0  0  0  0  0  0  0  0  0  0  0  0
   -6.0596   -0.9427   -4.4954 C   0  0  0  0  0  0  0  0  0  0  0  0
   -4.6935   -1.0006   -4.6725 C   0  0  0  0  0  0  0  0  0  0  0  0
   -3.8853   -1.0098   -3.5469 C   0  0  0  0  0  0  0  0  0  0  0  0
   -2.1480   -1.0813   -3.5005 S   0  0  0  0  0  0  0  0  0  0  0  0
    0.1683   -1.8601   -1.2916 C   0  0  0  0  0  0  0  0  0  0  0  0
    0.2602   -2.8750   -2.2902 C   0  0  0  0  0  0  0  0  0  0  0  0
    1.4446   -3.5178   -2.2782 C   0  0  0  0  0  0  0  0  0  0  0  0
    2.5315   -2.9486   -1.0604 S   0  0  0  0  0  0  0  0  0  0  0  0
    1.3527   -1.7841   -0.5212 C   0  0  0  0  0  0  0  0  0  0  0  0
    2.7903   -0.8942    2.7210 C   0  0  0  0  0  0  0  0  0  0  0  0
    4.1241   -0.8822    3.2143 C   0  0  0  0  0  0  0  0  0  0  0  0
    4.5747   -0.8856    4.5351 C   0  0  0  0  0  0  0  0  0  0  0  0
    5.6249    1.1370    6.6399 H   0  0  0  0  0  0  0  0  0  0  0  0
    6.9349    0.6485    7.7205 H   0  0  0  0  0  0  0  0  0  0  0  0
    7.2905    1.1438    6.0620 H   0  0  0  0  0  0  0  0  0  0  0  0
    7.3846   -1.3395    6.2971 H   0  0  0  0  0  0  0  0  0  0  0  0
    5.7138   -1.3454    6.8777 H   0  0  0  0  0  0  0  0  0  0  0  0
    7.9011   -0.8427    3.9694 H   0  0  0  0  0  0  0  0  0  0  0  0
    7.1422   -0.8373    1.6222 H   0  0  0  0  0  0  0  0  0  0  0  0
    1.1651    1.2123    2.4833 H   0  0  0  0  0  0  0  0  0  0  0  0
   -1.1323    2.4399    2.4270 H   0  0  0  0  0  0  0  0  0  0  0  0
   -3.6454   -0.9708   -0.1958 H   0  0  0  0  0  0  0  0  0  0  0  0
   -6.2451   -0.8733   -1.1130 H   0  0  0  0  0  0  0  0  0  0  0  0
   -8.6188   -1.3128   -3.8904 H   0  0  0  0  0  0  0  0  0  0  0  0
   -8.4394   -1.2409   -2.1319 H   0  0  0  0  0  0  0  0  0  0  0  0
   -8.2582    1.1537   -4.0245 H   0  0  0  0  0  0  0  0  0  0  0  0
   -9.6310    0.7683   -2.9805 H   0  0  0  0  0  0  0  0  0  0  0  0
   -8.0773    1.2242   -2.2722 H   0  0  0  0  0  0  0  0  0  0  0  0
   -6.7058   -0.9347   -5.3610 H   0  0  0  0  0  0  0  0  0  0  0  0
   -4.2594   -1.0386   -5.6596 H   0  0  0  0  0  0  0  0  0  0  0  0
   -0.5331   -3.1098   -2.9752 H   0  0  0  0  0  0  0  0  0  0  0  0
    1.7672   -4.3146   -2.9194 H   0  0  0  0  0  0  0  0  0  0  0  0
    1.9254   -0.9395    3.3594 H   0  0  0  0  0  0  0  0  0  0  0  0
    3.8550   -0.9011    5.3411 H   0  0  0  0  0  0  0  0  0  0  0  0
  1  2  1  0  0  0  0
  2  3  1  0  0  0  0
  3  4  2  0  0  0  0
  4  5  1  0  0  0  0
  5  6  2  0  0  0  0
  6  7  1  0  0  0  0
  7  8  1  0  0  0  0
  8  9  1  0  0  0  0
  9 10  2  0  0  0  0
 10 11  1  0  0  0  0
 11 12  2  0  0  0  0
 12 13  1  0  0  0  0
 13 14  1  0  0  0  0
 14 15  2  0  0  0  0
 15 16  1  0  0  0  0
 16 17  2  0  0  0  0
 17 18  1  0  0  0  0
 18 19  2  0  0  0  0
 19 20  1  0  0  0  0
 20 21  1  0  0  0  0
 21 22  1  0  0  0  0
 20 23  2  0  0  0  0
 23 24  1  0  0  0  0
 24 25  2  0  0  0  0
 25 26  1  0  0  0  0
 15 27  1  0  0  0  0
 27 28  1  0  0  0  0
 28 29  2  0  0  0  0
 29 30  1  0  0  0  0
 30 31  1  0  0  0  0
  8 32  2  0  0  0  0
 32 33  1  0  0  0  0
 33 34  2  0  0  0  0
 34  3  1  0  0  0  0
 33  6  1  0  0  0  0
 31  9  1  0  0  0  0
 14 10  1  0  0  0  0
 26 16  1  0  0  0  0
 31 27  2  0  0  0  0
 25 18  1  0  0  0  0
  1 35  1  0  0  0  0
  1 36  1  0  0  0  0
  1 37  1  0  0  0  0
  2 38  1  0  0  0  0
  2 39  1  0  0  0  0
  4 40  1  0  0  0  0
  5 41  1  0  0  0  0
 11 42  1  0  0  0  0
 12 43  1  0  0  0  0
 17 44  1  0  0  0  0
 19 45  1  0  0  0  0
 21 46  1  0  0  0  0
 21 47  1  0  0  0  0
 22 48  1  0  0  0  0
 22 49  1  0  0  0  0
 22 50  1  0  0  0  0
 23 51  1  0  0  0  0
 24 52  1  0  0  0  0
 28 53  1  0  0  0  0
 29 54  1  0  0  0  0
 32 55  1  0  0  0  0
 34 56  1  0  0  0  0
M  END
