
  xtb     01172214543D
 energy: -47.908021700737 gnorm: 0.000618438367 xtb: 6.4.1 (unknown)
 26 27  0     0  0            999 V2000
    0.9421   -3.4315    2.8357 C   0  0  0  0  0  0  0  0  0  0  0  0
    0.2154   -2.6534    2.0331 C   0  0  0  0  0  0  0  0  0  0  0  0
   -1.1369   -3.0778    1.5482 C   0  0  0  0  0  0  0  0  0  0  0  0
   -1.7624   -4.0405    1.9209 O   0  0  0  0  0  0  0  0  0  0  0  0
   -1.5081   -2.0943    0.5158 C   0  0  0  0  0  0  0  0  0  0  0  0
   -2.6259   -2.0880   -0.2950 C   0  0  0  0  0  0  0  0  0  0  0  0
   -2.7318   -1.0812   -1.2431 C   0  0  0  0  0  0  0  0  0  0  0  0
   -1.7298   -0.1382   -1.3989 C   0  0  0  0  0  0  0  0  0  0  0  0
   -0.5868   -0.1428   -0.5934 C   0  0  0  0  0  0  0  0  0  0  0  0
    0.4562    0.6893   -0.7402 O   0  0  0  0  0  0  0  0  0  0  0  0
    0.4012    1.7395   -1.6801 C   0  0  0  0  0  0  0  0  0  0  0  0
   -0.5004   -1.1165    0.4151 C   0  0  0  0  0  0  0  0  0  0  0  0
    0.5175   -1.3517    1.4250 C   0  0  0  0  0  0  0  0  0  0  0  0
    1.4957   -0.5027    1.8549 C   0  0  0  0  0  0  0  0  0  0  0  0
    2.4274   -0.8387    2.8650 C   0  0  0  0  0  0  0  0  0  0  0  0
    3.2217   -1.0450    3.6669 N   0  0  0  0  0  0  0  0  0  0  0  0
    1.6964    0.8428    1.4682 C   0  0  0  0  0  0  0  0  0  0  0  0
    1.9268    1.9545    1.3004 N   0  0  0  0  0  0  0  0  0  0  0  0
    0.5172   -4.3664    3.1663 H   0  0  0  0  0  0  0  0  0  0  0  0
    1.9370   -3.1947    3.1673 H   0  0  0  0  0  0  0  0  0  0  0  0
   -3.3822   -2.8480   -0.1836 H   0  0  0  0  0  0  0  0  0  0  0  0
   -3.5978   -1.0357   -1.8860 H   0  0  0  0  0  0  0  0  0  0  0  0
   -1.8351    0.6103   -2.1683 H   0  0  0  0  0  0  0  0  0  0  0  0
   -0.4538    2.3951   -1.4944 H   0  0  0  0  0  0  0  0  0  0  0  0
    1.3224    2.2999   -1.5301 H   0  0  0  0  0  0  0  0  0  0  0  0
    0.3623    1.3559   -2.7040 H   0  0  0  0  0  0  0  0  0  0  0  0
  1  2  2  0  0  0  0
  2  3  1  0  0  0  0
  3  4  2  0  0  0  0
  3  5  1  0  0  0  0
  5  6  2  0  0  0  0
  6  7  1  0  0  0  0
  7  8  2  0  0  0  0
  8  9  1  0  0  0  0
  9 10  1  0  0  0  0
 10 11  1  0  0  0  0
  9 12  2  0  0  0  0
 12 13  1  0  0  0  0
 13 14  2  0  0  0  0
 14 15  1  0  0  0  0
 15 16  3  0  0  0  0
 14 17  1  0  0  0  0
 17 18  3  0  0  0  0
 13  2  1  0  0  0  0
 12  5  1  0  0  0  0
  1 19  1  0  0  0  0
  1 20  1  0  0  0  0
  6 21  1  0  0  0  0
  7 22  1  0  0  0  0
  8 23  1  0  0  0  0
 11 24  1  0  0  0  0
 11 25  1  0  0  0  0
 11 26  1  0  0  0  0
M  END
