
  xtb     01172214563D
 energy: -260.649197446806 gnorm: 0.000168339183 xtb: 6.4.1 (unknown)
178196  0     0  0            999 V2000
   -4.9369    4.8776    4.5721 C   0  0  0  0  0  0  0  0  0  0  0  0
   -4.9742    3.4007    4.9700 C   0  0  0  0  0  0  0  0  0  0  0  0
   -3.8192    2.6624    4.3563 C   0  0  0  0  0  0  0  0  0  0  0  0
   -3.9334    2.0761    3.1037 C   0  0  0  0  0  0  0  0  0  0  0  0
   -2.8600    1.4286    2.5180 C   0  0  0  0  0  0  0  0  0  0  0  0
   -1.6390    1.3652    3.1729 C   0  0  0  0  0  0  0  0  0  0  0  0
   -0.4552    0.6125    2.5951 C   0  0  0  0  0  0  0  0  0  0  0  0
    0.8364    1.3920    2.7254 C   0  0  0  0  0  0  0  0  0  0  0  0
    2.0465    0.7454    2.9312 C   0  0  0  0  0  0  0  0  0  0  0  0
    3.2287    1.4622    2.9660 C   0  0  0  0  0  0  0  0  0  0  0  0
    3.2339    2.8386    2.7901 C   0  0  0  0  0  0  0  0  0  0  0  0
    4.5213    3.6114    2.7600 C   0  0  0  0  0  0  0  0  0  0  0  0
    5.0049    3.7796    1.3179 C   0  0  0  0  0  0  0  0  0  0  0  0
    2.0200    3.4816    2.5838 C   0  0  0  0  0  0  0  0  0  0  0  0
    0.8365    2.7704    2.5499 C   0  0  0  0  0  0  0  0  0  0  0  0
   -0.6270    0.2211    1.1358 C   0  0  0  0  0  0  0  0  0  0  0  0
   -0.5706    1.0375    0.0311 C   0  0  0  0  0  0  0  0  0  0  0  0
   -0.6830    0.4285   -1.2146 C   0  0  0  0  0  0  0  0  0  0  0  0
   -0.8913   -0.9629   -1.3495 C   0  0  0  0  0  0  0  0  0  0  0  0
   -0.9456   -1.7793   -0.2433 C   0  0  0  0  0  0  0  0  0  0  0  0
   -0.7780   -1.1778    1.0011 C   0  0  0  0  0  0  0  0  0  0  0  0
   -0.6539   -1.7364    2.3132 C   0  0  0  0  0  0  0  0  0  0  0  0
   -0.6228   -3.3403    2.9738 S   0  0  0  0  0  0  0  0  0  0  0  0
   -0.2915   -2.6731    4.5436 C   0  0  0  0  0  0  0  0  0  0  0  0
   -0.0212   -3.2008    5.8069 C   0  0  0  0  0  0  0  0  0  0  0  0
    0.2121   -2.1980    6.7370 C   0  0  0  0  0  0  0  0  0  0  0  0
    0.1189   -0.5954    6.0891 S   0  0  0  0  0  0  0  0  0  0  0  0
   -0.2369   -1.2678    4.5265 C   0  0  0  0  0  0  0  0  0  0  0  0
   -0.4282   -0.7444    3.2474 C   0  0  0  0  0  0  0  0  0  0  0  0
    0.4899   -2.7979    7.9949 C   0  0  0  0  0  0  0  0  0  0  0  0
    0.8902   -2.3066    9.5916 S   0  0  0  0  0  0  0  0  0  0  0  0
    0.9756   -3.9650   10.0782 C   0  0  0  0  0  0  0  0  0  0  0  0
    0.7127   -4.8424    9.0683 C   0  0  0  0  0  0  0  0  0  0  0  0
    0.4258   -4.1760    7.8674 C   0  0  0  0  0  0  0  0  0  0  0  0
    0.1053   -4.5671    6.4414 C   0  0  0  0  0  0  0  0  0  0  0  0
    1.2705   -5.3776    5.9036 C   0  0  0  0  0  0  0  0  0  0  0  0
    1.3570   -6.7285    6.2173 C   0  0  0  0  0  0  0  0  0  0  0  0
    2.4245   -7.4851    5.7751 C   0  0  0  0  0  0  0  0  0  0  0  0
    3.4333   -6.9154    5.0084 C   0  0  0  0  0  0  0  0  0  0  0  0
    4.6129   -7.7293    4.5596 C   0  0  0  0  0  0  0  0  0  0  0  0
    5.7367   -7.6610    5.5957 C   0  0  0  0  0  0  0  0  0  0  0  0
    3.3473   -5.5636    4.7071 C   0  0  0  0  0  0  0  0  0  0  0  0
    2.2825   -4.8006    5.1510 C   0  0  0  0  0  0  0  0  0  0  0  0
   -1.2043   -5.3105    6.2711 C   0  0  0  0  0  0  0  0  0  0  0  0
   -1.4821   -5.9222    5.0546 C   0  0  0  0  0  0  0  0  0  0  0  0
   -2.6803   -6.5804    4.8595 C   0  0  0  0  0  0  0  0  0  0  0  0
   -3.6318   -6.6442    5.8699 C   0  0  0  0  0  0  0  0  0  0  0  0
   -4.9092   -7.4091    5.6736 C   0  0  0  0  0  0  0  0  0  0  0  0
   -4.7164   -8.8778    6.0569 C   0  0  0  0  0  0  0  0  0  0  0  0
   -3.3518   -6.0246    7.0796 C   0  0  0  0  0  0  0  0  0  0  0  0
   -2.1555   -5.3590    7.2791 C   0  0  0  0  0  0  0  0  0  0  0  0
   -1.0060   -1.3502   -2.8171 C   0  0  0  0  0  0  0  0  0  0  0  0
    0.0286   -2.3480   -3.2953 C   0  0  0  0  0  0  0  0  0  0  0  0
   -0.1617   -2.9914   -4.5128 C   0  0  0  0  0  0  0  0  0  0  0  0
    0.7889   -3.8663   -5.0003 C   0  0  0  0  0  0  0  0  0  0  0  0
    1.9542   -4.1212   -4.2883 C   0  0  0  0  0  0  0  0  0  0  0  0
    3.0029   -5.0434   -4.8412 C   0  0  0  0  0  0  0  0  0  0  0  0
    3.9594   -4.2758   -5.7558 C   0  0  0  0  0  0  0  0  0  0  0  0
    2.1466   -3.4637   -3.0814 C   0  0  0  0  0  0  0  0  0  0  0  0
    1.1997   -2.5828   -2.5901 C   0  0  0  0  0  0  0  0  0  0  0  0
   -2.4211   -1.8484   -3.0489 C   0  0  0  0  0  0  0  0  0  0  0  0
   -2.7398   -3.1742   -2.7822 C   0  0  0  0  0  0  0  0  0  0  0  0
   -4.0319   -3.6331   -2.9503 C   0  0  0  0  0  0  0  0  0  0  0  0
   -5.0402   -2.7838   -3.3873 C   0  0  0  0  0  0  0  0  0  0  0  0
   -6.4528   -3.2735   -3.5293 C   0  0  0  0  0  0  0  0  0  0  0  0
   -7.2231   -3.0665   -2.2236 C   0  0  0  0  0  0  0  0  0  0  0  0
   -4.7191   -1.4581   -3.6429 C   0  0  0  0  0  0  0  0  0  0  0  0
   -3.4278   -0.9933   -3.4736 C   0  0  0  0  0  0  0  0  0  0  0  0
   -0.7261   -0.0275   -3.4818 C   0  0  0  0  0  0  0  0  0  0  0  0
   -0.5670    0.9650   -2.5350 C   0  0  0  0  0  0  0  0  0  0  0  0
   -0.1671    2.5161   -3.1981 S   0  0  0  0  0  0  0  0  0  0  0  0
   -0.1837    1.8196   -4.7884 C   0  0  0  0  0  0  0  0  0  0  0  0
    0.0791    2.2935   -6.0732 C   0  0  0  0  0  0  0  0  0  0  0  0
   -0.0384    1.2877   -7.0213 C   0  0  0  0  0  0  0  0  0  0  0  0
   -0.4979   -0.2491   -6.3662 S   0  0  0  0  0  0  0  0  0  0  0  0
   -0.5091    0.4512   -4.7749 C   0  0  0  0  0  0  0  0  0  0  0  0
    0.3173    1.8190   -8.2911 C   0  0  0  0  0  0  0  0  0  0  0  0
    0.4167    1.2897   -9.9224 S   0  0  0  0  0  0  0  0  0  0  0  0
    0.9554    2.8637  -10.3988 C   0  0  0  0  0  0  0  0  0  0  0  0
    1.0512    3.7429   -9.3612 C   0  0  0  0  0  0  0  0  0  0  0  0
    0.6911    3.1457   -8.1440 C   0  0  0  0  0  0  0  0  0  0  0  0
    0.5645    3.5802   -6.7006 C   0  0  0  0  0  0  0  0  0  0  0  0
   -0.4220    4.7270   -6.6312 C   0  0  0  0  0  0  0  0  0  0  0  0
    0.0070    6.0090   -6.9530 C   0  0  0  0  0  0  0  0  0  0  0  0
   -0.8776    7.0690   -6.9358 C   0  0  0  0  0  0  0  0  0  0  0  0
   -2.2122    6.8780   -6.5993 C   0  0  0  0  0  0  0  0  0  0  0  0
   -3.1798    8.0263   -6.6234 C   0  0  0  0  0  0  0  0  0  0  0  0
   -3.7658    8.2015   -8.0258 C   0  0  0  0  0  0  0  0  0  0  0  0
   -2.6367    5.5943   -6.2879 C   0  0  0  0  0  0  0  0  0  0  0  0
   -1.7548    4.5285   -6.3048 C   0  0  0  0  0  0  0  0  0  0  0  0
    1.8761    3.9241   -6.0206 C   0  0  0  0  0  0  0  0  0  0  0  0
    1.8525    4.6059   -4.8098 C   0  0  0  0  0  0  0  0  0  0  0  0
    3.0243    4.8527   -4.1226 C   0  0  0  0  0  0  0  0  0  0  0  0
    4.2481    4.4245   -4.6219 C   0  0  0  0  0  0  0  0  0  0  0  0
    5.5086    4.6410   -3.8344 C   0  0  0  0  0  0  0  0  0  0  0  0
    5.6778    3.5360   -2.7896 C   0  0  0  0  0  0  0  0  0  0  0  0
    4.2655    3.7464   -5.8326 C   0  0  0  0  0  0  0  0  0  0  0  0
    3.0944    3.4947   -6.5252 C   0  0  0  0  0  0  0  0  0  0  0  0
   -1.5198    1.9468    4.4298 C   0  0  0  0  0  0  0  0  0  0  0  0
   -2.5958    2.5884    5.0107 C   0  0  0  0  0  0  0  0  0  0  0  0
   -5.7727    5.4137    5.0159 H   0  0  0  0  0  0  0  0  0  0  0  0
   -4.0104    5.3364    4.9101 H   0  0  0  0  0  0  0  0  0  0  0  0
   -4.9936    4.9788    3.4905 H   0  0  0  0  0  0  0  0  0  0  0  0
   -4.9282    3.3202    6.0580 H   0  0  0  0  0  0  0  0  0  0  0  0
   -5.9156    2.9610    4.6341 H   0  0  0  0  0  0  0  0  0  0  0  0
   -4.8773    2.1196    2.5785 H   0  0  0  0  0  0  0  0  0  0  0  0
   -2.9759    0.9717    1.5460 H   0  0  0  0  0  0  0  0  0  0  0  0
    2.0685   -0.3270    3.0607 H   0  0  0  0  0  0  0  0  0  0  0  0
    4.1619    0.9418    3.1297 H   0  0  0  0  0  0  0  0  0  0  0  0
    4.3727    4.5970    3.2064 H   0  0  0  0  0  0  0  0  0  0  0  0
    5.2843    3.0862    3.3379 H   0  0  0  0  0  0  0  0  0  0  0  0
    5.9372    4.3390    1.2899 H   0  0  0  0  0  0  0  0  0  0  0  0
    4.2611    4.3135    0.7305 H   0  0  0  0  0  0  0  0  0  0  0  0
    5.1682    2.8073    0.8580 H   0  0  0  0  0  0  0  0  0  0  0  0
    2.0014    4.5538    2.4467 H   0  0  0  0  0  0  0  0  0  0  0  0
   -0.0978    3.2901    2.3922 H   0  0  0  0  0  0  0  0  0  0  0  0
   -0.4208    2.1030    0.1148 H   0  0  0  0  0  0  0  0  0  0  0  0
   -1.0771   -2.8473   -0.3260 H   0  0  0  0  0  0  0  0  0  0  0  0
    1.2185   -4.1869   11.0983 H   0  0  0  0  0  0  0  0  0  0  0  0
    0.7241   -5.9102    9.1911 H   0  0  0  0  0  0  0  0  0  0  0  0
    0.5755   -7.1904    6.8034 H   0  0  0  0  0  0  0  0  0  0  0  0
    2.4738   -8.5355    6.0254 H   0  0  0  0  0  0  0  0  0  0  0  0
    4.9815   -7.3501    3.6042 H   0  0  0  0  0  0  0  0  0  0  0  0
    4.3137   -8.7704    4.4216 H   0  0  0  0  0  0  0  0  0  0  0  0
    6.5927   -8.2471    5.2690 H   0  0  0  0  0  0  0  0  0  0  0  0
    6.0550   -6.6310    5.7406 H   0  0  0  0  0  0  0  0  0  0  0  0
    5.3935   -8.0496    6.5519 H   0  0  0  0  0  0  0  0  0  0  0  0
    4.1224   -5.0992    4.1139 H   0  0  0  0  0  0  0  0  0  0  0  0
    2.2431   -3.7500    4.9045 H   0  0  0  0  0  0  0  0  0  0  0  0
   -0.7516   -5.8858    4.2594 H   0  0  0  0  0  0  0  0  0  0  0  0
   -2.8805   -7.0502    3.9070 H   0  0  0  0  0  0  0  0  0  0  0  0
   -5.6992   -6.9767    6.2911 H   0  0  0  0  0  0  0  0  0  0  0  0
   -5.2198   -7.3480    4.6285 H   0  0  0  0  0  0  0  0  0  0  0  0
   -3.9390   -9.3291    5.4444 H   0  0  0  0  0  0  0  0  0  0  0  0
   -5.6398   -9.4343    5.9130 H   0  0  0  0  0  0  0  0  0  0  0  0
   -4.4201   -8.9602    7.1003 H   0  0  0  0  0  0  0  0  0  0  0  0
   -4.0798   -6.0588    7.8780 H   0  0  0  0  0  0  0  0  0  0  0  0
   -1.9624   -4.8784    8.2270 H   0  0  0  0  0  0  0  0  0  0  0  0
   -1.0642   -2.8094   -5.0784 H   0  0  0  0  0  0  0  0  0  0  0  0
    0.6224   -4.3597   -5.9472 H   0  0  0  0  0  0  0  0  0  0  0  0
    2.5275   -5.8450   -5.4104 H   0  0  0  0  0  0  0  0  0  0  0  0
    3.5693   -5.4940   -4.0236 H   0  0  0  0  0  0  0  0  0  0  0  0
    4.4529   -3.4797   -5.2028 H   0  0  0  0  0  0  0  0  0  0  0  0
    3.4129   -3.8281   -6.5828 H   0  0  0  0  0  0  0  0  0  0  0  0
    4.7186   -4.9419   -6.1598 H   0  0  0  0  0  0  0  0  0  0  0  0
    3.0498   -3.6421   -2.5148 H   0  0  0  0  0  0  0  0  0  0  0  0
    1.3744   -2.0780   -1.6510 H   0  0  0  0  0  0  0  0  0  0  0  0
   -1.9676   -3.8550   -2.4545 H   0  0  0  0  0  0  0  0  0  0  0  0
   -4.2603   -4.6691   -2.7430 H   0  0  0  0  0  0  0  0  0  0  0  0
   -6.9543   -2.7299   -4.3327 H   0  0  0  0  0  0  0  0  0  0  0  0
   -6.4533   -4.3355   -3.7831 H   0  0  0  0  0  0  0  0  0  0  0  0
   -8.2463   -3.4215   -2.3235 H   0  0  0  0  0  0  0  0  0  0  0  0
   -7.2449   -2.0112   -1.9610 H   0  0  0  0  0  0  0  0  0  0  0  0
   -6.7437   -3.6094   -1.4120 H   0  0  0  0  0  0  0  0  0  0  0  0
   -5.4885   -0.7789   -3.9825 H   0  0  0  0  0  0  0  0  0  0  0  0
   -3.2048    0.0437   -3.6779 H   0  0  0  0  0  0  0  0  0  0  0  0
    1.1716    3.0387  -11.4339 H   0  0  0  0  0  0  0  0  0  0  0  0
    1.3691    4.7633   -9.4748 H   0  0  0  0  0  0  0  0  0  0  0  0
    1.0443    6.1754   -7.2061 H   0  0  0  0  0  0  0  0  0  0  0  0
   -0.5271    8.0611   -7.1835 H   0  0  0  0  0  0  0  0  0  0  0  0
   -3.9900    7.8433   -5.9148 H   0  0  0  0  0  0  0  0  0  0  0  0
   -2.6698    8.9462   -6.3295 H   0  0  0  0  0  0  0  0  0  0  0  0
   -4.2858    7.2970   -8.3335 H   0  0  0  0  0  0  0  0  0  0  0  0
   -2.9739    8.4007   -8.7444 H   0  0  0  0  0  0  0  0  0  0  0  0
   -4.4692    9.0309   -8.0447 H   0  0  0  0  0  0  0  0  0  0  0  0
   -3.6712    5.4238   -6.0251 H   0  0  0  0  0  0  0  0  0  0  0  0
   -2.1086    3.5379   -6.0595 H   0  0  0  0  0  0  0  0  0  0  0  0
    0.9097    4.9441   -4.4049 H   0  0  0  0  0  0  0  0  0  0  0  0
    2.9877    5.3824   -3.1814 H   0  0  0  0  0  0  0  0  0  0  0  0
    6.3712    4.6409   -4.5038 H   0  0  0  0  0  0  0  0  0  0  0  0
    5.4677    5.6086   -3.3294 H   0  0  0  0  0  0  0  0  0  0  0  0
    5.7403    2.5644   -3.2749 H   0  0  0  0  0  0  0  0  0  0  0  0
    6.5837    3.6944   -2.2089 H   0  0  0  0  0  0  0  0  0  0  0  0
    4.8281    3.5232   -2.1108 H   0  0  0  0  0  0  0  0  0  0  0  0
    5.2069    3.4049   -6.2399 H   0  0  0  0  0  0  0  0  0  0  0  0
    3.1304    2.9578   -7.4620 H   0  0  0  0  0  0  0  0  0  0  0  0
   -0.5754    1.8990    4.9527 H   0  0  0  0  0  0  0  0  0  0  0  0
   -2.4854    3.0336    5.9892 H   0  0  0  0  0  0  0  0  0  0  0  0
  1  2  1  0  0  0  0
  2  3  1  0  0  0  0
  3  4  2  0  0  0  0
  4  5  1  0  0  0  0
  5  6  2  0  0  0  0
  6  7  1  0  0  0  0
  7  8  1  0  0  0  0
  8  9  2  0  0  0  0
  9 10  1  0  0  0  0
 10 11  2  0  0  0  0
 11 12  1  0  0  0  0
 12 13  1  0  0  0  0
 11 14  1  0  0  0  0
 14 15  2  0  0  0  0
  7 16  1  0  0  0  0
 16 17  2  0  0  0  0
 17 18  1  0  0  0  0
 18 19  2  0  0  0  0
 19 20  1  0  0  0  0
 20 21  2  0  0  0  0
 21 22  1  0  0  0  0
 22 23  1  0  0  0  0
 23 24  1  0  0  0  0
 24 25  1  0  0  0  0
 25 26  2  0  0  0  0
 26 27  1  0  0  0  0
 27 28  1  0  0  0  0
 28 29  1  0  0  0  0
 26 30  1  0  0  0  0
 30 31  1  0  0  0  0
 31 32  1  0  0  0  0
 32 33  2  0  0  0  0
 33 34  1  0  0  0  0
 34 35  1  0  0  0  0
 35 36  1  0  0  0  0
 36 37  2  0  0  0  0
 37 38  1  0  0  0  0
 38 39  2  0  0  0  0
 39 40  1  0  0  0  0
 40 41  1  0  0  0  0
 39 42  1  0  0  0  0
 42 43  2  0  0  0  0
 35 44  1  0  0  0  0
 44 45  2  0  0  0  0
 45 46  1  0  0  0  0
 46 47  2  0  0  0  0
 47 48  1  0  0  0  0
 48 49  1  0  0  0  0
 47 50  1  0  0  0  0
 50 51  2  0  0  0  0
 19 52  1  0  0  0  0
 52 53  1  0  0  0  0
 53 54  2  0  0  0  0
 54 55  1  0  0  0  0
 55 56  2  0  0  0  0
 56 57  1  0  0  0  0
 57 58  1  0  0  0  0
 56 59  1  0  0  0  0
 59 60  2  0  0  0  0
 52 61  1  0  0  0  0
 61 62  2  0  0  0  0
 62 63  1  0  0  0  0
 63 64  2  0  0  0  0
 64 65  1  0  0  0  0
 65 66  1  0  0  0  0
 64 67  1  0  0  0  0
 67 68  2  0  0  0  0
 52 69  1  0  0  0  0
 69 70  2  0  0  0  0
 70 71  1  0  0  0  0
 71 72  1  0  0  0  0
 72 73  1  0  0  0  0
 73 74  2  0  0  0  0
 74 75  1  0  0  0  0
 75 76  1  0  0  0  0
 74 77  1  0  0  0  0
 77 78  1  0  0  0  0
 78 79  1  0  0  0  0
 79 80  2  0  0  0  0
 80 81  1  0  0  0  0
 81 82  1  0  0  0  0
 82 83  1  0  0  0  0
 83 84  2  0  0  0  0
 84 85  1  0  0  0  0
 85 86  2  0  0  0  0
 86 87  1  0  0  0  0
 87 88  1  0  0  0  0
 86 89  1  0  0  0  0
 89 90  2  0  0  0  0
 82 91  1  0  0  0  0
 91 92  2  0  0  0  0
 92 93  1  0  0  0  0
 93 94  2  0  0  0  0
 94 95  1  0  0  0  0
 95 96  1  0  0  0  0
 94 97  1  0  0  0  0
 97 98  2  0  0  0  0
  6 99  1  0  0  0  0
 99100  2  0  0  0  0
100  3  1  0  0  0  0
 29  7  1  0  0  0  0
 34 30  2  0  0  0  0
 43 36  1  0  0  0  0
 51 44  1  0  0  0  0
 60 53  1  0  0  0  0
 68 61  1  0  0  0  0
 76 69  1  0  0  0  0
 81 77  2  0  0  0  0
 90 83  1  0  0  0  0
 98 91  1  0  0  0  0
 15  8  1  0  0  0  0
 21 16  1  0  0  0  0
 29 22  2  0  0  0  0
 76 72  2  0  0  0  0
 70 18  1  0  0  0  0
 82 73  1  0  0  0  0
 28 24  2  0  0  0  0
 35 25  1  0  0  0  0
  1101  1  0  0  0  0
  1102  1  0  0  0  0
  1103  1  0  0  0  0
  2104  1  0  0  0  0
  2105  1  0  0  0  0
  4106  1  0  0  0  0
  5107  1  0  0  0  0
  9108  1  0  0  0  0
 10109  1  0  0  0  0
 12110  1  0  0  0  0
 12111  1  0  0  0  0
 13112  1  0  0  0  0
 13113  1  0  0  0  0
 13114  1  0  0  0  0
 14115  1  0  0  0  0
 15116  1  0  0  0  0
 17117  1  0  0  0  0
 20118  1  0  0  0  0
 32119  1  0  0  0  0
 33120  1  0  0  0  0
 37121  1  0  0  0  0
 38122  1  0  0  0  0
 40123  1  0  0  0  0
 40124  1  0  0  0  0
 41125  1  0  0  0  0
 41126  1  0  0  0  0
 41127  1  0  0  0  0
 42128  1  0  0  0  0
 43129  1  0  0  0  0
 45130  1  0  0  0  0
 46131  1  0  0  0  0
 48132  1  0  0  0  0
 48133  1  0  0  0  0
 49134  1  0  0  0  0
 49135  1  0  0  0  0
 49136  1  0  0  0  0
 50137  1  0  0  0  0
 51138  1  0  0  0  0
 54139  1  0  0  0  0
 55140  1  0  0  0  0
 57141  1  0  0  0  0
 57142  1  0  0  0  0
 58143  1  0  0  0  0
 58144  1  0  0  0  0
 58145  1  0  0  0  0
 59146  1  0  0  0  0
 60147  1  0  0  0  0
 62148  1  0  0  0  0
 63149  1  0  0  0  0
 65150  1  0  0  0  0
 65151  1  0  0  0  0
 66152  1  0  0  0  0
 66153  1  0  0  0  0
 66154  1  0  0  0  0
 67155  1  0  0  0  0
 68156  1  0  0  0  0
 79157  1  0  0  0  0
 80158  1  0  0  0  0
 84159  1  0  0  0  0
 85160  1  0  0  0  0
 87161  1  0  0  0  0
 87162  1  0  0  0  0
 88163  1  0  0  0  0
 88164  1  0  0  0  0
 88165  1  0  0  0  0
 89166  1  0  0  0  0
 90167  1  0  0  0  0
 92168  1  0  0  0  0
 93169  1  0  0  0  0
 95170  1  0  0  0  0
 95171  1  0  0  0  0
 96172  1  0  0  0  0
 96173  1  0  0  0  0
 96174  1  0  0  0  0
 97175  1  0  0  0  0
 98176  1  0  0  0  0
 99177  1  0  0  0  0
100178  1  0  0  0  0
M  END
