
  xtb     01172214563D
 energy: -58.704052167057 gnorm: 0.000766422855 xtb: 6.4.1 (unknown)
 35 39  0     0  0            999 V2000
   -3.3355   -3.1777    3.4278 C   0  0  0  0  0  0  0  0  0  0  0  0
   -2.5330   -2.4878    2.6161 C   0  0  0  0  0  0  0  0  0  0  0  0
   -1.0712   -2.7968    2.5055 C   0  0  0  0  0  0  0  0  0  0  0  0
   -0.4805   -3.6726    3.0921 O   0  0  0  0  0  0  0  0  0  0  0  0
   -0.5275   -1.8190    1.5506 C   0  0  0  0  0  0  0  0  0  0  0  0
    0.8010   -1.7004    1.1420 C   0  0  0  0  0  0  0  0  0  0  0  0
    1.0243   -0.6839    0.2461 C   0  0  0  0  0  0  0  0  0  0  0  0
    0.0020    0.1617   -0.2113 C   0  0  0  0  0  0  0  0  0  0  0  0
   -1.3095    0.0596    0.1816 C   0  0  0  0  0  0  0  0  0  0  0  0
   -1.5634   -0.9745    1.0927 C   0  0  0  0  0  0  0  0  0  0  0  0
   -2.8180   -1.3661    1.7193 C   0  0  0  0  0  0  0  0  0  0  0  0
   -4.0433   -0.8027    1.5077 C   0  0  0  0  0  0  0  0  0  0  0  0
   -4.2959    0.2661    0.6193 C   0  0  0  0  0  0  0  0  0  0  0  0
   -4.5718    1.1263   -0.0879 N   0  0  0  0  0  0  0  0  0  0  0  0
   -5.2352   -1.2151    2.1449 C   0  0  0  0  0  0  0  0  0  0  0  0
   -6.2379   -1.4933    2.6278 N   0  0  0  0  0  0  0  0  0  0  0  0
    0.9405    0.9545   -1.0858 C   0  0  0  0  0  0  0  0  0  0  0  0
    0.8952    0.6521   -2.5986 C   0  0  0  0  0  0  0  0  0  0  0  0
    2.2080    1.1957   -3.1149 C   0  0  0  0  0  0  0  0  0  0  0  0
    3.1740    0.3946   -2.6840 C   0  0  0  0  0  0  0  0  0  0  0  0
    2.5306   -0.7040   -1.8689 C   0  0  0  0  0  0  0  0  0  0  0  0
    1.2038   -0.8504   -2.6248 C   0  0  0  0  0  0  0  0  0  0  0  0
    2.0783    0.0115   -0.5777 C   0  0  0  0  0  0  0  0  0  0  0  0
   -4.3874   -2.9861    3.5424 H   0  0  0  0  0  0  0  0  0  0  0  0
   -2.9093   -3.9794    4.0104 H   0  0  0  0  0  0  0  0  0  0  0  0
    1.5573   -2.3671    1.5257 H   0  0  0  0  0  0  0  0  0  0  0  0
   -2.0819    0.7215   -0.1724 H   0  0  0  0  0  0  0  0  0  0  0  0
    1.0069    2.0180   -0.8659 H   0  0  0  0  0  0  0  0  0  0  0  0
   -0.0064    0.9884   -3.1029 H   0  0  0  0  0  0  0  0  0  0  0  0
    2.3013    2.1069   -3.6756 H   0  0  0  0  0  0  0  0  0  0  0  0
    4.2349    0.5029   -2.8132 H   0  0  0  0  0  0  0  0  0  0  0  0
    3.1188   -1.6034   -1.7090 H   0  0  0  0  0  0  0  0  0  0  0  0
    0.4657   -1.4649   -2.1123 H   0  0  0  0  0  0  0  0  0  0  0  0
    1.3467   -1.2230   -3.6376 H   0  0  0  0  0  0  0  0  0  0  0  0
    2.9059    0.4455   -0.0199 H   0  0  0  0  0  0  0  0  0  0  0  0
  1  2  2  0  0  0  0
  2  3  1  0  0  0  0
  3  4  2  0  0  0  0
  3  5  1  0  0  0  0
  5  6  2  0  0  0  0
  6  7  1  0  0  0  0
  7  8  2  0  0  0  0
  8  9  1  0  0  0  0
  9 10  2  0  0  0  0
 10 11  1  0  0  0  0
 11 12  2  0  0  0  0
 12 13  1  0  0  0  0
 13 14  3  0  0  0  0
 12 15  1  0  0  0  0
 15 16  3  0  0  0  0
  8 17  1  0  0  0  0
 17 18  1  0  0  0  0
 18 19  1  0  0  0  0
 19 20  2  0  0  0  0
 20 21  1  0  0  0  0
 21 22  1  0  0  0  0
 21 23  1  0  0  0  0
 11  2  1  0  0  0  0
 23 17  1  0  0  0  0
 10  5  1  0  0  0  0
 22 18  1  0  0  0  0
 23  7  1  0  0  0  0
  1 24  1  0  0  0  0
  1 25  1  0  0  0  0
  6 26  1  0  0  0  0
  9 27  1  0  0  0  0
 17 28  1  0  0  0  0
 18 29  1  0  0  0  0
 19 30  1  0  0  0  0
 20 31  1  0  0  0  0
 21 32  1  0  0  0  0
 22 33  1  0  0  0  0
 22 34  1  0  0  0  0
 23 35  1  0  0  0  0
M  END
