
  xtb     01172214563D
 energy: -49.506415516669 gnorm: 0.000458160551 xtb: 6.4.1 (unknown)
 33 34  0     0  0            999 V2000
   -3.6655   -0.7523    1.5810 C   0  0  0  0  0  0  0  0  0  0  0  0
   -2.6095   -1.0163    2.6509 C   0  0  0  0  0  0  0  0  0  0  0  0
   -1.5179   -1.7709    2.1677 O   0  0  0  0  0  0  0  0  0  0  0  0
   -0.5619   -1.1730    1.4008 C   0  0  0  0  0  0  0  0  0  0  0  0
    0.4157   -2.0466    0.9201 C   0  0  0  0  0  0  0  0  0  0  0  0
    1.4571   -1.5697    0.1410 C   0  0  0  0  0  0  0  0  0  0  0  0
    2.4727   -2.3221   -0.3630 O   0  0  0  0  0  0  0  0  0  0  0  0
    2.4544   -3.7258   -0.2027 C   0  0  0  0  0  0  0  0  0  0  0  0
    1.4748   -4.4137   -1.1496 C   0  0  0  0  0  0  0  0  0  0  0  0
    1.5207   -0.2084   -0.1581 C   0  0  0  0  0  0  0  0  0  0  0  0
    0.5538    0.6623    0.3171 C   0  0  0  0  0  0  0  0  0  0  0  0
    0.6210    2.0886   -0.0020 C   0  0  0  0  0  0  0  0  0  0  0  0
    0.1637    3.1286    0.8573 C   0  0  0  0  0  0  0  0  0  0  0  0
    0.3378    4.3642    0.3329 C   0  0  0  0  0  0  0  0  0  0  0  0
    1.0537    4.3082   -1.2305 S   0  0  0  0  0  0  0  0  0  0  0  0
    1.1284    2.5956   -1.1638 C   0  0  0  0  0  0  0  0  0  0  0  0
   -0.4958    0.1776    1.0996 C   0  0  0  0  0  0  0  0  0  0  0  0
   -4.0233   -1.6959    1.1769 H   0  0  0  0  0  0  0  0  0  0  0  0
   -3.2535   -0.1643    0.7646 H   0  0  0  0  0  0  0  0  0  0  0  0
   -4.5028   -0.2144    2.0175 H   0  0  0  0  0  0  0  0  0  0  0  0
   -2.2635   -0.0764    3.0986 H   0  0  0  0  0  0  0  0  0  0  0  0
   -3.0355   -1.6368    3.4449 H   0  0  0  0  0  0  0  0  0  0  0  0
    0.3179   -3.0844    1.1914 H   0  0  0  0  0  0  0  0  0  0  0  0
    2.2432   -3.9940    0.8395 H   0  0  0  0  0  0  0  0  0  0  0  0
    3.4765   -4.0371   -0.4373 H   0  0  0  0  0  0  0  0  0  0  0  0
    0.4543   -4.0991   -0.9468 H   0  0  0  0  0  0  0  0  0  0  0  0
    1.7155   -4.1562   -2.1780 H   0  0  0  0  0  0  0  0  0  0  0  0
    1.5437   -5.4914   -1.0290 H   0  0  0  0  0  0  0  0  0  0  0  0
    2.3483    0.1489   -0.7482 H   0  0  0  0  0  0  0  0  0  0  0  0
   -0.2500    2.9551    1.8344 H   0  0  0  0  0  0  0  0  0  0  0  0
    0.0935    5.3137    0.7662 H   0  0  0  0  0  0  0  0  0  0  0  0
    1.5224    2.0569   -2.0020 H   0  0  0  0  0  0  0  0  0  0  0  0
   -1.2488    0.8670    1.4438 H   0  0  0  0  0  0  0  0  0  0  0  0
  1  2  1  0  0  0  0
  2  3  1  0  0  0  0
  3  4  1  0  0  0  0
  4  5  2  0  0  0  0
  5  6  1  0  0  0  0
  6  7  1  0  0  0  0
  7  8  1  0  0  0  0
  8  9  1  0  0  0  0
  6 10  2  0  0  0  0
 10 11  1  0  0  0  0
 11 12  1  0  0  0  0
 12 13  1  0  0  0  0
 13 14  2  0  0  0  0
 14 15  1  0  0  0  0
 15 16  1  0  0  0  0
 11 17  2  0  0  0  0
 17  4  1  0  0  0  0
 16 12  2  0  0  0  0
  1 18  1  0  0  0  0
  1 19  1  0  0  0  0
  1 20  1  0  0  0  0
  2 21  1  0  0  0  0
  2 22  1  0  0  0  0
  5 23  1  0  0  0  0
  8 24  1  0  0  0  0
  8 25  1  0  0  0  0
  9 26  1  0  0  0  0
  9 27  1  0  0  0  0
  9 28  1  0  0  0  0
 10 29  1  0  0  0  0
 13 30  1  0  0  0  0
 14 31  1  0  0  0  0
 16 32  1  0  0  0  0
 17 33  1  0  0  0  0
M  END
