
  xtb     01172214563D
 energy: -96.600183017666 gnorm: 0.000556455629 xtb: 6.4.1 (unknown)
 58 64  0     0  0            999 V2000
    4.1392   -3.1537    1.6929 C   0  0  0  0  0  0  0  0  0  0  0  0
    3.2693   -1.9267    1.4691 C   0  0  0  0  0  0  0  0  0  0  0  0
    1.9651   -2.3831    1.1488 O   0  0  0  0  0  0  0  0  0  0  0  0
    0.9948   -1.4706    0.8601 C   0  0  0  0  0  0  0  0  0  0  0  0
    1.0988   -0.0884    0.9015 C   0  0  0  0  0  0  0  0  0  0  0  0
    2.2278    0.6221    1.2389 O   0  0  0  0  0  0  0  0  0  0  0  0
    1.8713    1.9259    1.1387 C   0  0  0  0  0  0  0  0  0  0  0  0
    2.4119    3.2004    1.3083 C   0  0  0  0  0  0  0  0  0  0  0  0
    3.8607    4.0359    1.7438 S   0  0  0  0  0  0  0  0  0  0  0  0
    3.0534    5.5572    1.5148 C   0  0  0  0  0  0  0  0  0  0  0  0
    1.7559    5.4508    1.1273 C   0  0  0  0  0  0  0  0  0  0  0  0
    1.3704    4.0994    1.0036 C   0  0  0  0  0  0  0  0  0  0  0  0
    0.2393    3.4165    0.6438 N   0  0  0  0  0  0  0  0  0  0  0  0
   -1.0405    4.0133    0.3622 C   0  0  0  0  0  0  0  0  0  0  0  0
   -1.8507    4.2228    1.6394 C   0  0  0  0  0  0  0  0  0  0  0  0
    0.5394    2.0840    0.7439 C   0  0  0  0  0  0  0  0  0  0  0  0
    0.0071    0.7724    0.5814 C   0  0  0  0  0  0  0  0  0  0  0  0
   -1.2530    0.2780    0.2179 C   0  0  0  0  0  0  0  0  0  0  0  0
   -2.2314    1.2000   -0.0188 O   0  0  0  0  0  0  0  0  0  0  0  0
   -3.4364    0.8075   -0.6532 C   0  0  0  0  0  0  0  0  0  0  0  0
   -3.2444    0.5049   -2.1347 C   0  0  0  0  0  0  0  0  0  0  0  0
   -1.3581   -1.1050    0.1835 C   0  0  0  0  0  0  0  0  0  0  0  0
   -2.4864   -1.8173   -0.1510 O   0  0  0  0  0  0  0  0  0  0  0  0
   -2.1223   -3.1209   -0.0788 C   0  0  0  0  0  0  0  0  0  0  0  0
   -2.6564   -4.3953   -0.2685 C   0  0  0  0  0  0  0  0  0  0  0  0
   -4.1028   -5.2319   -0.7098 S   0  0  0  0  0  0  0  0  0  0  0  0
   -3.2834   -6.7518   -0.5177 C   0  0  0  0  0  0  0  0  0  0  0  0
   -1.9837   -6.6442   -0.1380 C   0  0  0  0  0  0  0  0  0  0  0  0
   -1.6064   -5.2930    0.0100 C   0  0  0  0  0  0  0  0  0  0  0  0
   -0.4769   -4.6096    0.3739 N   0  0  0  0  0  0  0  0  0  0  0  0
    0.8115   -5.2004    0.6263 C   0  0  0  0  0  0  0  0  0  0  0  0
    1.5926   -5.4075   -0.6700 C   0  0  0  0  0  0  0  0  0  0  0  0
   -0.7869   -3.2777    0.3033 C   0  0  0  0  0  0  0  0  0  0  0  0
   -0.2606   -1.9662    0.4839 C   0  0  0  0  0  0  0  0  0  0  0  0
    5.1518   -2.8440    1.9336 H   0  0  0  0  0  0  0  0  0  0  0  0
    4.1577   -3.7673    0.7961 H   0  0  0  0  0  0  0  0  0  0  0  0
    3.7459   -3.7479    2.5138 H   0  0  0  0  0  0  0  0  0  0  0  0
    3.2404   -1.3082    2.3732 H   0  0  0  0  0  0  0  0  0  0  0  0
    3.6676   -1.3211    0.6472 H   0  0  0  0  0  0  0  0  0  0  0  0
    3.6113    6.4554    1.6897 H   0  0  0  0  0  0  0  0  0  0  0  0
    1.1180    6.2966    0.9454 H   0  0  0  0  0  0  0  0  0  0  0  0
   -0.8659    4.9703   -0.1377 H   0  0  0  0  0  0  0  0  0  0  0  0
   -1.5834    3.3480   -0.3099 H   0  0  0  0  0  0  0  0  0  0  0  0
   -2.7951    4.7072    1.4069 H   0  0  0  0  0  0  0  0  0  0  0  0
   -2.0554    3.2622    2.1044 H   0  0  0  0  0  0  0  0  0  0  0  0
   -1.3001    4.8437    2.3426 H   0  0  0  0  0  0  0  0  0  0  0  0
   -3.8834   -0.0499   -0.1434 H   0  0  0  0  0  0  0  0  0  0  0  0
   -4.0912    1.6752   -0.5275 H   0  0  0  0  0  0  0  0  0  0  0  0
   -2.7770    1.3508   -2.6342 H   0  0  0  0  0  0  0  0  0  0  0  0
   -2.6144   -0.3708   -2.2653 H   0  0  0  0  0  0  0  0  0  0  0  0
   -4.2095    0.3104   -2.5933 H   0  0  0  0  0  0  0  0  0  0  0  0
   -3.8365   -7.6502   -0.7060 H   0  0  0  0  0  0  0  0  0  0  0  0
   -1.3385   -7.4889    0.0225 H   0  0  0  0  0  0  0  0  0  0  0  0
    0.6544   -6.1587    1.1298 H   0  0  0  0  0  0  0  0  0  0  0  0
    1.3651   -4.5304    1.2852 H   0  0  0  0  0  0  0  0  0  0  0  0
    1.0302   -6.0343   -1.3585 H   0  0  0  0  0  0  0  0  0  0  0  0
    2.5454   -5.8857   -0.4591 H   0  0  0  0  0  0  0  0  0  0  0  0
    1.7787   -4.4476   -1.1450 H   0  0  0  0  0  0  0  0  0  0  0  0
  1  2  1  0  0  0  0
  2  3  1  0  0  0  0
  3  4  1  0  0  0  0
  4  5  2  0  0  0  0
  5  6  1  0  0  0  0
  6  7  1  0  0  0  0
  7  8  1  0  0  0  0
  8  9  1  0  0  0  0
  9 10  1  0  0  0  0
 10 11  2  0  0  0  0
 11 12  1  0  0  0  0
 12 13  1  0  0  0  0
 13 14  1  0  0  0  0
 14 15  1  0  0  0  0
 13 16  1  0  0  0  0
 16 17  1  0  0  0  0
 17 18  2  0  0  0  0
 18 19  1  0  0  0  0
 19 20  1  0  0  0  0
 20 21  1  0  0  0  0
 18 22  1  0  0  0  0
 22 23  1  0  0  0  0
 23 24  1  0  0  0  0
 24 25  1  0  0  0  0
 25 26  1  0  0  0  0
 26 27  1  0  0  0  0
 27 28  2  0  0  0  0
 28 29  1  0  0  0  0
 29 30  1  0  0  0  0
 30 31  1  0  0  0  0
 31 32  1  0  0  0  0
 30 33  1  0  0  0  0
 33 34  1  0  0  0  0
 34  4  1  0  0  0  0
 17  5  1  0  0  0  0
 34 22  2  0  0  0  0
 16  7  2  0  0  0  0
 33 24  2  0  0  0  0
 12  8  2  0  0  0  0
 29 25  2  0  0  0  0
  1 35  1  0  0  0  0
  1 36  1  0  0  0  0
  1 37  1  0  0  0  0
  2 38  1  0  0  0  0
  2 39  1  0  0  0  0
 10 40  1  0  0  0  0
 11 41  1  0  0  0  0
 14 42  1  0  0  0  0
 14 43  1  0  0  0  0
 15 44  1  0  0  0  0
 15 45  1  0  0  0  0
 15 46  1  0  0  0  0
 20 47  1  0  0  0  0
 20 48  1  0  0  0  0
 21 49  1  0  0  0  0
 21 50  1  0  0  0  0
 21 51  1  0  0  0  0
 27 52  1  0  0  0  0
 28 53  1  0  0  0  0
 31 54  1  0  0  0  0
 31 55  1  0  0  0  0
 32 56  1  0  0  0  0
 32 57  1  0  0  0  0
 32 58  1  0  0  0  0
M  END
