
  xtb     01172214583D
 energy: -190.203134790320 gnorm: 0.000286514533 xtb: 6.4.1 (unknown)
122134  0     0  0            999 V2000
    6.0659   -0.3995   -4.0411 C   0  0  0  0  0  0  0  0  0  0  0  0
    6.7369   -0.6940   -2.7022 C   0  0  0  0  0  0  0  0  0  0  0  0
    6.5267    0.3066   -1.7259 O   0  0  0  0  0  0  0  0  0  0  0  0
    5.3940    0.3084   -0.9698 C   0  0  0  0  0  0  0  0  0  0  0  0
    5.3830    1.2101    0.0954 C   0  0  0  0  0  0  0  0  0  0  0  0
    4.2943    1.2682    0.9393 C   0  0  0  0  0  0  0  0  0  0  0  0
    3.2003    0.4430    0.7376 C   0  0  0  0  0  0  0  0  0  0  0  0
    3.1873   -0.4391   -0.3325 C   0  0  0  0  0  0  0  0  0  0  0  0
    1.9817   -1.3345   -0.5434 C   0  0  0  0  0  0  0  0  0  0  0  0
    1.8416   -1.8097   -1.9797 C   0  0  0  0  0  0  0  0  0  0  0  0
    1.5835   -3.1332   -2.2980 C   0  0  0  0  0  0  0  0  0  0  0  0
    1.4464   -3.5099   -3.6268 C   0  0  0  0  0  0  0  0  0  0  0  0
    1.5345   -2.5777   -4.6371 C   0  0  0  0  0  0  0  0  0  0  0  0
    1.7541   -1.2332   -4.3269 C   0  0  0  0  0  0  0  0  0  0  0  0
    1.7835   -0.3763   -5.3830 O   0  0  0  0  0  0  0  0  0  0  0  0
    1.6853    1.0197   -5.1655 C   0  0  0  0  0  0  0  0  0  0  0  0
    3.0306    1.7002   -4.9265 C   0  0  0  0  0  0  0  0  0  0  0  0
    1.9217   -0.8657   -2.9999 C   0  0  0  0  0  0  0  0  0  0  0  0
    0.6774   -0.6131   -0.2026 C   0  0  0  0  0  0  0  0  0  0  0  0
    0.1616    0.5443   -0.7387 C   0  0  0  0  0  0  0  0  0  0  0  0
   -1.0788    0.9690   -0.2731 C   0  0  0  0  0  0  0  0  0  0  0  0
   -1.7858    0.2648    0.7231 C   0  0  0  0  0  0  0  0  0  0  0  0
   -1.2771   -0.8983    1.2502 C   0  0  0  0  0  0  0  0  0  0  0  0
   -0.0379   -1.3229    0.7821 C   0  0  0  0  0  0  0  0  0  0  0  0
    0.7644   -2.4421    1.1600 C   0  0  0  0  0  0  0  0  0  0  0  0
    0.5458   -3.7140    2.3159 S   0  0  0  0  0  0  0  0  0  0  0  0
    2.0978   -4.3301    1.8653 C   0  0  0  0  0  0  0  0  0  0  0  0
    2.9496   -5.3882    2.1912 C   0  0  0  0  0  0  0  0  0  0  0  0
    3.0685   -6.7746    3.2131 S   0  0  0  0  0  0  0  0  0  0  0  0
    4.6399   -7.1210    2.5608 C   0  0  0  0  0  0  0  0  0  0  0  0
    5.0621   -6.2378    1.6179 C   0  0  0  0  0  0  0  0  0  0  0  0
    4.0955   -5.2355    1.3970 C   0  0  0  0  0  0  0  0  0  0  0  0
    3.9743   -4.1224    0.6075 N   0  0  0  0  0  0  0  0  0  0  0  0
    4.9901   -3.6701   -0.3054 C   0  0  0  0  0  0  0  0  0  0  0  0
    4.8562   -4.3216   -1.6813 C   0  0  0  0  0  0  0  0  0  0  0  0
    2.7483   -3.5614    0.8699 C   0  0  0  0  0  0  0  0  0  0  0  0
    1.9560   -2.4727    0.4599 C   0  0  0  0  0  0  0  0  0  0  0  0
   -3.0892    0.9817    1.0698 C   0  0  0  0  0  0  0  0  0  0  0  0
   -2.9198    1.5132    2.4837 C   0  0  0  0  0  0  0  0  0  0  0  0
   -2.6679    2.8530    2.7354 C   0  0  0  0  0  0  0  0  0  0  0  0
   -2.4712    3.2871    4.0381 C   0  0  0  0  0  0  0  0  0  0  0  0
   -2.4935    2.3965    5.0885 C   0  0  0  0  0  0  0  0  0  0  0  0
   -2.7122    1.0389    4.8456 C   0  0  0  0  0  0  0  0  0  0  0  0
   -2.7048    0.2321    5.9420 O   0  0  0  0  0  0  0  0  0  0  0  0
   -2.6403   -1.1714    5.7758 C   0  0  0  0  0  0  0  0  0  0  0  0
   -1.2740   -1.6399    5.2834 C   0  0  0  0  0  0  0  0  0  0  0  0
   -2.9375    0.6127    3.5437 C   0  0  0  0  0  0  0  0  0  0  0  0
   -4.2840    0.0678    0.8861 C   0  0  0  0  0  0  0  0  0  0  0  0
   -5.3453    0.0282    1.7779 C   0  0  0  0  0  0  0  0  0  0  0  0
   -6.4202   -0.8144    1.5324 C   0  0  0  0  0  0  0  0  0  0  0  0
   -6.4475   -1.6129    0.4106 C   0  0  0  0  0  0  0  0  0  0  0  0
   -5.3861   -1.5769   -0.4973 C   0  0  0  0  0  0  0  0  0  0  0  0
   -5.4952   -2.3993   -1.5712 O   0  0  0  0  0  0  0  0  0  0  0  0
   -4.4411   -2.4438   -2.5134 C   0  0  0  0  0  0  0  0  0  0  0  0
   -4.8114   -3.4721   -3.5703 C   0  0  0  0  0  0  0  0  0  0  0  0
   -4.3139   -0.7291   -0.2541 C   0  0  0  0  0  0  0  0  0  0  0  0
   -3.0888    2.0888    0.0375 C   0  0  0  0  0  0  0  0  0  0  0  0
   -1.9011    2.0698   -0.6688 C   0  0  0  0  0  0  0  0  0  0  0  0
   -1.7323    3.3216   -1.8583 S   0  0  0  0  0  0  0  0  0  0  0  0
   -3.2996    3.9057   -1.4094 C   0  0  0  0  0  0  0  0  0  0  0  0
   -4.1924    4.9255   -1.7486 C   0  0  0  0  0  0  0  0  0  0  0  0
   -4.3734    6.2806   -2.8034 S   0  0  0  0  0  0  0  0  0  0  0  0
   -5.9477    6.5888   -2.1385 C   0  0  0  0  0  0  0  0  0  0  0  0
   -6.3265    5.7161   -1.1681 C   0  0  0  0  0  0  0  0  0  0  0  0
   -5.3231    4.7536   -0.9345 C   0  0  0  0  0  0  0  0  0  0  0  0
   -5.1541    3.6656   -0.1199 N   0  0  0  0  0  0  0  0  0  0  0  0
   -6.1286    3.1970    0.8308 C   0  0  0  0  0  0  0  0  0  0  0  0
   -6.0121    3.9119    2.1756 C   0  0  0  0  0  0  0  0  0  0  0  0
   -3.9145    3.1429   -0.3879 C   0  0  0  0  0  0  0  0  0  0  0  0
    4.2895   -0.5090   -1.1792 C   0  0  0  0  0  0  0  0  0  0  0  0
    4.9847   -0.4823   -3.9759 H   0  0  0  0  0  0  0  0  0  0  0  0
    6.3195    0.6071   -4.3637 H   0  0  0  0  0  0  0  0  0  0  0  0
    6.4209   -1.1077   -4.7850 H   0  0  0  0  0  0  0  0  0  0  0  0
    6.4255   -1.6737   -2.3196 H   0  0  0  0  0  0  0  0  0  0  0  0
    7.8228   -0.7070   -2.8382 H   0  0  0  0  0  0  0  0  0  0  0  0
    6.2420    1.8456    0.2390 H   0  0  0  0  0  0  0  0  0  0  0  0
    4.2953    1.9624    1.7660 H   0  0  0  0  0  0  0  0  0  0  0  0
    2.3527    0.4917    1.4039 H   0  0  0  0  0  0  0  0  0  0  0  0
    1.4850   -3.8734   -1.5188 H   0  0  0  0  0  0  0  0  0  0  0  0
    1.2609   -4.5457   -3.8700 H   0  0  0  0  0  0  0  0  0  0  0  0
    1.4222   -2.8565   -5.6725 H   0  0  0  0  0  0  0  0  0  0  0  0
    1.2487    1.4055   -6.0919 H   0  0  0  0  0  0  0  0  0  0  0  0
    0.9897    1.2303   -4.3441 H   0  0  0  0  0  0  0  0  0  0  0  0
    2.8914    2.7779   -4.9306 H   0  0  0  0  0  0  0  0  0  0  0  0
    3.7239    1.4311   -5.7195 H   0  0  0  0  0  0  0  0  0  0  0  0
    3.4661    1.4131   -3.9728 H   0  0  0  0  0  0  0  0  0  0  0  0
    2.1289    0.1586   -2.7394 H   0  0  0  0  0  0  0  0  0  0  0  0
    0.6791    1.1275   -1.4833 H   0  0  0  0  0  0  0  0  0  0  0  0
   -1.8040   -1.4875    1.9836 H   0  0  0  0  0  0  0  0  0  0  0  0
    5.1614   -7.9821    2.9284 H   0  0  0  0  0  0  0  0  0  0  0  0
    6.0093   -6.3108    1.1149 H   0  0  0  0  0  0  0  0  0  0  0  0
    5.9626   -3.9215    0.1295 H   0  0  0  0  0  0  0  0  0  0  0  0
    4.9181   -2.5832   -0.3828 H   0  0  0  0  0  0  0  0  0  0  0  0
    3.9267   -4.0192   -2.1585 H   0  0  0  0  0  0  0  0  0  0  0  0
    4.8605   -5.4050   -1.5842 H   0  0  0  0  0  0  0  0  0  0  0  0
    5.6879   -4.0291   -2.3178 H   0  0  0  0  0  0  0  0  0  0  0  0
   -2.6149    3.5626    1.9244 H   0  0  0  0  0  0  0  0  0  0  0  0
   -2.2895    4.3346    4.2283 H   0  0  0  0  0  0  0  0  0  0  0  0
   -2.3344    2.7196    6.1048 H   0  0  0  0  0  0  0  0  0  0  0  0
   -2.8336   -1.5687    6.7759 H   0  0  0  0  0  0  0  0  0  0  0  0
   -3.4382   -1.5228    5.1094 H   0  0  0  0  0  0  0  0  0  0  0  0
   -0.5060   -1.3554    5.9983 H   0  0  0  0  0  0  0  0  0  0  0  0
   -1.2702   -2.7206    5.1721 H   0  0  0  0  0  0  0  0  0  0  0  0
   -1.0302   -1.1873    4.3251 H   0  0  0  0  0  0  0  0  0  0  0  0
   -3.1404   -0.4245    3.3357 H   0  0  0  0  0  0  0  0  0  0  0  0
   -5.3371    0.6403    2.6673 H   0  0  0  0  0  0  0  0  0  0  0  0
   -7.2435   -0.8439    2.2308 H   0  0  0  0  0  0  0  0  0  0  0  0
   -7.2743   -2.2753    0.2105 H   0  0  0  0  0  0  0  0  0  0  0  0
   -3.5027   -2.7292   -2.0175 H   0  0  0  0  0  0  0  0  0  0  0  0
   -4.3056   -1.4559   -2.9755 H   0  0  0  0  0  0  0  0  0  0  0  0
   -5.7398   -3.1863   -4.0569 H   0  0  0  0  0  0  0  0  0  0  0  0
   -4.9486   -4.4456   -3.1077 H   0  0  0  0  0  0  0  0  0  0  0  0
   -4.0222   -3.5371   -4.3137 H   0  0  0  0  0  0  0  0  0  0  0  0
   -3.4831   -0.6771   -0.9405 H   0  0  0  0  0  0  0  0  0  0  0  0
   -6.5034    7.4217   -2.5208 H   0  0  0  0  0  0  0  0  0  0  0  0
   -7.2690    5.7681   -0.6538 H   0  0  0  0  0  0  0  0  0  0  0  0
   -5.9922    2.1216    0.9614 H   0  0  0  0  0  0  0  0  0  0  0  0
   -7.1212    3.3706    0.4035 H   0  0  0  0  0  0  0  0  0  0  0  0
   -6.1095    4.9871    2.0424 H   0  0  0  0  0  0  0  0  0  0  0  0
   -6.7983    3.5698    2.8431 H   0  0  0  0  0  0  0  0  0  0  0  0
   -5.0490    3.7025    2.6351 H   0  0  0  0  0  0  0  0  0  0  0  0
    4.2644   -1.1920   -2.0138 H   0  0  0  0  0  0  0  0  0  0  0  0
  1  2  1  0  0  0  0
  2  3  1  0  0  0  0
  3  4  1  0  0  0  0
  4  5  2  0  0  0  0
  5  6  1  0  0  0  0
  6  7  2  0  0  0  0
  7  8  1  0  0  0  0
  8  9  1  0  0  0  0
  9 10  1  0  0  0  0
 10 11  2  0  0  0  0
 11 12  1  0  0  0  0
 12 13  2  0  0  0  0
 13 14  1  0  0  0  0
 14 15  1  0  0  0  0
 15 16  1  0  0  0  0
 16 17  1  0  0  0  0
 14 18  2  0  0  0  0
  9 19  1  0  0  0  0
 19 20  2  0  0  0  0
 20 21  1  0  0  0  0
 21 22  2  0  0  0  0
 22 23  1  0  0  0  0
 23 24  2  0  0  0  0
 24 25  1  0  0  0  0
 25 26  1  0  0  0  0
 26 27  1  0  0  0  0
 27 28  1  0  0  0  0
 28 29  1  0  0  0  0
 29 30  1  0  0  0  0
 30 31  2  0  0  0  0
 31 32  1  0  0  0  0
 32 33  1  0  0  0  0
 33 34  1  0  0  0  0
 34 35  1  0  0  0  0
 33 36  1  0  0  0  0
 36 37  1  0  0  0  0
 22 38  1  0  0  0  0
 38 39  1  0  0  0  0
 39 40  2  0  0  0  0
 40 41  1  0  0  0  0
 41 42  2  0  0  0  0
 42 43  1  0  0  0  0
 43 44  1  0  0  0  0
 44 45  1  0  0  0  0
 45 46  1  0  0  0  0
 43 47  2  0  0  0  0
 38 48  1  0  0  0  0
 48 49  2  0  0  0  0
 49 50  1  0  0  0  0
 50 51  2  0  0  0  0
 51 52  1  0  0  0  0
 52 53  1  0  0  0  0
 53 54  1  0  0  0  0
 54 55  1  0  0  0  0
 52 56  2  0  0  0  0
 38 57  1  0  0  0  0
 57 58  2  0  0  0  0
 58 59  1  0  0  0  0
 59 60  1  0  0  0  0
 60 61  1  0  0  0  0
 61 62  1  0  0  0  0
 62 63  1  0  0  0  0
 63 64  2  0  0  0  0
 64 65  1  0  0  0  0
 65 66  1  0  0  0  0
 66 67  1  0  0  0  0
 67 68  1  0  0  0  0
 66 69  1  0  0  0  0
  8 70  2  0  0  0  0
 70  4  1  0  0  0  0
 37  9  1  0  0  0  0
 47 39  1  0  0  0  0
 56 48  1  0  0  0  0
 69 57  1  0  0  0  0
 18 10  1  0  0  0  0
 24 19  1  0  0  0  0
 37 25  2  0  0  0  0
 69 60  2  0  0  0  0
 58 21  1  0  0  0  0
 65 61  2  0  0  0  0
 36 27  2  0  0  0  0
 32 28  2  0  0  0  0
  1 71  1  0  0  0  0
  1 72  1  0  0  0  0
  1 73  1  0  0  0  0
  2 74  1  0  0  0  0
  2 75  1  0  0  0  0
  5 76  1  0  0  0  0
  6 77  1  0  0  0  0
  7 78  1  0  0  0  0
 11 79  1  0  0  0  0
 12 80  1  0  0  0  0
 13 81  1  0  0  0  0
 16 82  1  0  0  0  0
 16 83  1  0  0  0  0
 17 84  1  0  0  0  0
 17 85  1  0  0  0  0
 17 86  1  0  0  0  0
 18 87  1  0  0  0  0
 20 88  1  0  0  0  0
 23 89  1  0  0  0  0
 30 90  1  0  0  0  0
 31 91  1  0  0  0  0
 34 92  1  0  0  0  0
 34 93  1  0  0  0  0
 35 94  1  0  0  0  0
 35 95  1  0  0  0  0
 35 96  1  0  0  0  0
 40 97  1  0  0  0  0
 41 98  1  0  0  0  0
 42 99  1  0  0  0  0
 45100  1  0  0  0  0
 45101  1  0  0  0  0
 46102  1  0  0  0  0
 46103  1  0  0  0  0
 46104  1  0  0  0  0
 47105  1  0  0  0  0
 49106  1  0  0  0  0
 50107  1  0  0  0  0
 51108  1  0  0  0  0
 54109  1  0  0  0  0
 54110  1  0  0  0  0
 55111  1  0  0  0  0
 55112  1  0  0  0  0
 55113  1  0  0  0  0
 56114  1  0  0  0  0
 63115  1  0  0  0  0
 64116  1  0  0  0  0
 67117  1  0  0  0  0
 67118  1  0  0  0  0
 68119  1  0  0  0  0
 68120  1  0  0  0  0
 68121  1  0  0  0  0
 70122  1  0  0  0  0
M  END
