
  xtb     01172214583D
 energy: -91.969863636140 gnorm: 0.000356665131 xtb: 6.4.1 (unknown)
 50 54  0     0  0            999 V2000
    7.4698   -3.1674    1.7629 C   0  0  0  0  0  0  0  0  0  0  0  0
    7.2033   -2.0749    0.7245 C   0  0  0  0  0  0  0  0  0  0  0  0
    5.7426   -1.7384    0.6746 C   0  0  0  0  0  0  0  0  0  0  0  0
    5.1888   -0.6934    1.4052 C   0  0  0  0  0  0  0  0  0  0  0  0
    6.0058    0.0663    2.1661 F   0  0  0  0  0  0  0  0  0  0  0  0
    3.8434   -0.3860    1.3903 C   0  0  0  0  0  0  0  0  0  0  0  0
    2.9713   -1.1502    0.6189 C   0  0  0  0  0  0  0  0  0  0  0  0
    1.5387   -0.8495    0.5913 C   0  0  0  0  0  0  0  0  0  0  0  0
    1.0254    0.4525    0.5382 C   0  0  0  0  0  0  0  0  0  0  0  0
    1.6266    1.7458    0.4260 C   0  0  0  0  0  0  0  0  0  0  0  0
    0.6067    2.6314    0.3798 C   0  0  0  0  0  0  0  0  0  0  0  0
   -0.6018    2.0316    0.4506 O   0  0  0  0  0  0  0  0  0  0  0  0
   -0.3711    0.6996    0.5397 C   0  0  0  0  0  0  0  0  0  0  0  0
   -1.3427   -0.2961    0.5754 C   0  0  0  0  0  0  0  0  0  0  0  0
   -2.7752    0.0045    0.5478 C   0  0  0  0  0  0  0  0  0  0  0  0
   -3.6473   -0.7597   -0.2235 C   0  0  0  0  0  0  0  0  0  0  0  0
   -4.9928   -0.4523   -0.2384 C   0  0  0  0  0  0  0  0  0  0  0  0
   -5.8097   -1.2120   -0.9993 F   0  0  0  0  0  0  0  0  0  0  0  0
   -5.5465    0.5927    0.4922 C   0  0  0  0  0  0  0  0  0  0  0  0
   -7.0072    0.9293    0.4423 C   0  0  0  0  0  0  0  0  0  0  0  0
   -7.2737    2.0217   -0.5961 C   0  0  0  0  0  0  0  0  0  0  0  0
   -4.6410    1.3377    1.2408 C   0  0  0  0  0  0  0  0  0  0  0  0
   -5.1111    2.3688    1.9734 F   0  0  0  0  0  0  0  0  0  0  0  0
   -3.2882    1.0713    1.2816 C   0  0  0  0  0  0  0  0  0  0  0  0
   -0.8293   -1.5982    0.6286 C   0  0  0  0  0  0  0  0  0  0  0  0
   -1.4305   -2.8914    0.7407 C   0  0  0  0  0  0  0  0  0  0  0  0
   -0.4106   -3.7771    0.7870 C   0  0  0  0  0  0  0  0  0  0  0  0
    0.7979   -3.1773    0.7161 O   0  0  0  0  0  0  0  0  0  0  0  0
    0.5671   -1.8453    0.6271 C   0  0  0  0  0  0  0  0  0  0  0  0
    3.4843   -2.2169   -0.1149 C   0  0  0  0  0  0  0  0  0  0  0  0
    4.8371   -2.4833   -0.0741 C   0  0  0  0  0  0  0  0  0  0  0  0
    5.3071   -3.5144   -0.8067 F   0  0  0  0  0  0  0  0  0  0  0  0
    8.5309   -3.4009    1.7933 H   0  0  0  0  0  0  0  0  0  0  0  0
    7.1583   -2.8361    2.7510 H   0  0  0  0  0  0  0  0  0  0  0  0
    6.9223   -4.0724    1.5101 H   0  0  0  0  0  0  0  0  0  0  0  0
    7.5253   -2.4260   -0.2577 H   0  0  0  0  0  0  0  0  0  0  0  0
    7.7728   -1.1809    0.9823 H   0  0  0  0  0  0  0  0  0  0  0  0
    3.4804    0.4250    2.0001 H   0  0  0  0  0  0  0  0  0  0  0  0
    2.6709    1.9702    0.3663 H   0  0  0  0  0  0  0  0  0  0  0  0
    0.6034    3.7013    0.2997 H   0  0  0  0  0  0  0  0  0  0  0  0
   -3.2843   -1.5707   -0.8333 H   0  0  0  0  0  0  0  0  0  0  0  0
   -7.3293    1.2804    1.4244 H   0  0  0  0  0  0  0  0  0  0  0  0
   -7.5767    0.0352    0.1844 H   0  0  0  0  0  0  0  0  0  0  0  0
   -6.9622    1.6905   -1.5843 H   0  0  0  0  0  0  0  0  0  0  0  0
   -8.3348    2.2553   -0.6265 H   0  0  0  0  0  0  0  0  0  0  0  0
   -6.7262    2.9268   -0.3433 H   0  0  0  0  0  0  0  0  0  0  0  0
   -2.6459    1.6864    1.8898 H   0  0  0  0  0  0  0  0  0  0  0  0
   -2.4748   -3.1159    0.8005 H   0  0  0  0  0  0  0  0  0  0  0  0
   -0.4073   -4.8470    0.8671 H   0  0  0  0  0  0  0  0  0  0  0  0
    2.8420   -2.8320   -0.7231 H   0  0  0  0  0  0  0  0  0  0  0  0
  1  2  1  0  0  0  0
  2  3  1  0  0  0  0
  3  4  2  0  0  0  0
  4  5  1  0  0  0  0
  4  6  1  0  0  0  0
  6  7  2  0  0  0  0
  7  8  1  0  0  0  0
  8  9  2  0  0  0  0
  9 10  1  0  0  0  0
 10 11  2  0  0  0  0
 11 12  1  0  0  0  0
 12 13  1  0  0  0  0
 13 14  2  0  0  0  0
 14 15  1  0  0  0  0
 15 16  2  0  0  0  0
 16 17  1  0  0  0  0
 17 18  1  0  0  0  0
 17 19  2  0  0  0  0
 19 20  1  0  0  0  0
 20 21  1  0  0  0  0
 19 22  1  0  0  0  0
 22 23  1  0  0  0  0
 22 24  2  0  0  0  0
 14 25  1  0  0  0  0
 25 26  1  0  0  0  0
 26 27  2  0  0  0  0
 27 28  1  0  0  0  0
 28 29  1  0  0  0  0
  7 30  1  0  0  0  0
 30 31  2  0  0  0  0
 31 32  1  0  0  0  0
 31  3  1  0  0  0  0
 29  8  1  0  0  0  0
 13  9  1  0  0  0  0
 24 15  1  0  0  0  0
 29 25  2  0  0  0  0
  1 33  1  0  0  0  0
  1 34  1  0  0  0  0
  1 35  1  0  0  0  0
  2 36  1  0  0  0  0
  2 37  1  0  0  0  0
  6 38  1  0  0  0  0
 10 39  1  0  0  0  0
 11 40  1  0  0  0  0
 16 41  1  0  0  0  0
 20 42  1  0  0  0  0
 20 43  1  0  0  0  0
 21 44  1  0  0  0  0
 21 45  1  0  0  0  0
 21 46  1  0  0  0  0
 24 47  1  0  0  0  0
 26 48  1  0  0  0  0
 27 49  1  0  0  0  0
 30 50  1  0  0  0  0
M  END
