
  xtb     01172214583D
 energy: -79.389519178413 gnorm: 0.000753473969 xtb: 6.4.1 (unknown)
 44 48  0     0  0            999 V2000
   -1.3956   -6.2764   -3.2244 C   0  0  0  0  0  0  0  0  0  0  0  0
   -0.7056   -5.1750   -4.0326 C   0  0  0  0  0  0  0  0  0  0  0  0
   -0.7185   -3.8786   -3.2998 C   0  0  0  0  0  0  0  0  0  0  0  0
    0.3259   -3.5676   -1.9581 S   0  0  0  0  0  0  0  0  0  0  0  0
   -0.3415   -1.9760   -1.6996 C   0  0  0  0  0  0  0  0  0  0  0  0
    0.1100   -1.1140   -0.6382 C   0  0  0  0  0  0  0  0  0  0  0  0
    1.3230   -1.2653    0.0578 C   0  0  0  0  0  0  0  0  0  0  0  0
    2.3997   -2.2018   -0.0329 C   0  0  0  0  0  0  0  0  0  0  0  0
    3.3034   -1.8289    0.8999 C   0  0  0  0  0  0  0  0  0  0  0  0
    2.9109   -0.7331    1.5835 O   0  0  0  0  0  0  0  0  0  0  0  0
    1.7062   -0.3686    1.0843 C   0  0  0  0  0  0  0  0  0  0  0  0
    0.9414    0.7183    1.5223 C   0  0  0  0  0  0  0  0  0  0  0  0
    1.3955    1.5835    2.5800 C   0  0  0  0  0  0  0  0  0  0  0  0
    2.6697    1.7002    3.0728 C   0  0  0  0  0  0  0  0  0  0  0  0
    2.7531    2.6303    4.1225 C   0  0  0  0  0  0  0  0  0  0  0  0
    3.9163    2.9089    4.7413 F   0  0  0  0  0  0  0  0  0  0  0  0
    1.5809    3.2391    4.4635 C   0  0  0  0  0  0  0  0  0  0  0  0
    1.3307    4.2295    5.5471 C   0  0  0  0  0  0  0  0  0  0  0  0
    0.6559    3.5735    6.7540 C   0  0  0  0  0  0  0  0  0  0  0  0
    0.3145    2.6420    3.4499 S   0  0  0  0  0  0  0  0  0  0  0  0
   -0.2760    0.8639    0.8330 C   0  0  0  0  0  0  0  0  0  0  0  0
   -1.3513    1.8022    0.9215 C   0  0  0  0  0  0  0  0  0  0  0  0
   -2.2527    1.4323   -0.0147 C   0  0  0  0  0  0  0  0  0  0  0  0
   -1.8561    0.3417   -0.7042 O   0  0  0  0  0  0  0  0  0  0  0  0
   -0.6501   -0.0212   -0.2069 C   0  0  0  0  0  0  0  0  0  0  0  0
   -1.3283   -1.7222   -2.6171 C   0  0  0  0  0  0  0  0  0  0  0  0
   -1.5227   -2.7956   -3.5026 C   0  0  0  0  0  0  0  0  0  0  0  0
   -2.4351   -2.7508   -4.4922 F   0  0  0  0  0  0  0  0  0  0  0  0
   -2.4328   -6.0114   -3.0327 H   0  0  0  0  0  0  0  0  0  0  0  0
   -0.8910   -6.4171   -2.2712 H   0  0  0  0  0  0  0  0  0  0  0  0
   -1.3726   -7.2137   -3.7742 H   0  0  0  0  0  0  0  0  0  0  0  0
   -1.2228   -5.0388   -4.9849 H   0  0  0  0  0  0  0  0  0  0  0  0
    0.3266   -5.4698   -4.2365 H   0  0  0  0  0  0  0  0  0  0  0  0
    2.4873   -3.0307   -0.7019 H   0  0  0  0  0  0  0  0  0  0  0  0
    4.2517   -2.2492    1.1737 H   0  0  0  0  0  0  0  0  0  0  0  0
    3.5178    1.1601    2.6997 H   0  0  0  0  0  0  0  0  0  0  0  0
    0.6928    5.0321    5.1691 H   0  0  0  0  0  0  0  0  0  0  0  0
    2.2879    4.6596    5.8499 H   0  0  0  0  0  0  0  0  0  0  0  0
    0.4792    4.3126    7.5311 H   0  0  0  0  0  0  0  0  0  0  0  0
    1.2882    2.7872    7.1596 H   0  0  0  0  0  0  0  0  0  0  0  0
   -0.2969    3.1375    6.4624 H   0  0  0  0  0  0  0  0  0  0  0  0
   -1.4356    2.6353    1.5858 H   0  0  0  0  0  0  0  0  0  0  0  0
   -3.2002    1.8535   -0.2896 H   0  0  0  0  0  0  0  0  0  0  0  0
   -1.8861   -0.8080   -2.6730 H   0  0  0  0  0  0  0  0  0  0  0  0
  1  2  1  0  0  0  0
  2  3  1  0  0  0  0
  3  4  1  0  0  0  0
  4  5  1  0  0  0  0
  5  6  1  0  0  0  0
  6  7  2  0  0  0  0
  7  8  1  0  0  0  0
  8  9  2  0  0  0  0
  9 10  1  0  0  0  0
 10 11  1  0  0  0  0
 11 12  2  0  0  0  0
 12 13  1  0  0  0  0
 13 14  2  0  0  0  0
 14 15  1  0  0  0  0
 15 16  1  0  0  0  0
 15 17  2  0  0  0  0
 17 18  1  0  0  0  0
 18 19  1  0  0  0  0
 17 20  1  0  0  0  0
 12 21  1  0  0  0  0
 21 22  1  0  0  0  0
 22 23  2  0  0  0  0
 23 24  1  0  0  0  0
 24 25  1  0  0  0  0
  5 26  2  0  0  0  0
 26 27  1  0  0  0  0
 27 28  1  0  0  0  0
 27  3  2  0  0  0  0
 25  6  1  0  0  0  0
 11  7  1  0  0  0  0
 20 13  1  0  0  0  0
 25 21  2  0  0  0  0
  1 29  1  0  0  0  0
  1 30  1  0  0  0  0
  1 31  1  0  0  0  0
  2 32  1  0  0  0  0
  2 33  1  0  0  0  0
  8 34  1  0  0  0  0
  9 35  1  0  0  0  0
 14 36  1  0  0  0  0
 18 37  1  0  0  0  0
 18 38  1  0  0  0  0
 19 39  1  0  0  0  0
 19 40  1  0  0  0  0
 19 41  1  0  0  0  0
 22 42  1  0  0  0  0
 23 43  1  0  0  0  0
 26 44  1  0  0  0  0
M  END
