
  xtb     01172214583D
 energy: -79.040288928433 gnorm: 0.000506939904 xtb: 6.4.1 (unknown)
 44 48  0     0  0            999 V2000
   -1.8322   -5.7734   -3.7811 C   0  0  0  0  0  0  0  0  0  0  0  0
   -1.0097   -4.6518   -4.4211 C   0  0  0  0  0  0  0  0  0  0  0  0
   -0.9988   -3.4389   -3.5581 C   0  0  0  0  0  0  0  0  0  0  0  0
    0.1739   -3.2325   -2.3064 S   0  0  0  0  0  0  0  0  0  0  0  0
   -0.5179   -1.7149   -1.7963 C   0  0  0  0  0  0  0  0  0  0  0  0
    0.0125   -0.9561   -0.6929 C   0  0  0  0  0  0  0  0  0  0  0  0
    1.2842   -1.1507   -0.1237 C   0  0  0  0  0  0  0  0  0  0  0  0
    2.3642   -2.0430   -0.4103 C   0  0  0  0  0  0  0  0  0  0  0  0
    3.3382   -1.7552    0.4807 C   0  0  0  0  0  0  0  0  0  0  0  0
    2.9878   -0.7544    1.3162 O   0  0  0  0  0  0  0  0  0  0  0  0
    1.7392   -0.3665    0.9642 C   0  0  0  0  0  0  0  0  0  0  0  0
    0.9968    0.6429    1.5874 C   0  0  0  0  0  0  0  0  0  0  0  0
    1.5188    1.3871    2.7047 C   0  0  0  0  0  0  0  0  0  0  0  0
    2.8203    1.4522    3.1309 C   0  0  0  0  0  0  0  0  0  0  0  0
    2.9833    2.2569    4.2748 C   0  0  0  0  0  0  0  0  0  0  0  0
    4.5190    2.5158    5.0120 Cl  0  0  0  0  0  0  0  0  0  0  0  0
    1.8308    2.8188    4.7444 C   0  0  0  0  0  0  0  0  0  0  0  0
    1.6357    3.6752    5.9462 C   0  0  0  0  0  0  0  0  0  0  0  0
    1.3193    2.8258    7.1800 C   0  0  0  0  0  0  0  0  0  0  0  0
    0.5001    2.3390    3.7526 S   0  0  0  0  0  0  0  0  0  0  0  0
   -0.2754    0.8367    1.0189 C   0  0  0  0  0  0  0  0  0  0  0  0
   -1.3532    1.7328    1.3019 C   0  0  0  0  0  0  0  0  0  0  0  0
   -2.3253    1.4482    0.4079 C   0  0  0  0  0  0  0  0  0  0  0  0
   -1.9729    0.4510   -0.4310 O   0  0  0  0  0  0  0  0  0  0  0  0
   -0.7237    0.0640   -0.0799 C   0  0  0  0  0  0  0  0  0  0  0  0
   -1.6067   -1.4118   -2.5726 C   0  0  0  0  0  0  0  0  0  0  0  0
   -1.8671   -2.3850   -3.5562 C   0  0  0  0  0  0  0  0  0  0  0  0
   -3.1727   -2.2459   -4.6719 Cl  0  0  0  0  0  0  0  0  0  0  0  0
   -2.8607   -5.4508   -3.6371 H   0  0  0  0  0  0  0  0  0  0  0  0
   -1.4141   -6.0436   -2.8138 H   0  0  0  0  0  0  0  0  0  0  0  0
   -1.8289   -6.6520   -4.4209 H   0  0  0  0  0  0  0  0  0  0  0  0
   -1.4428   -4.3907   -5.3890 H   0  0  0  0  0  0  0  0  0  0  0  0
    0.0141   -4.9961   -4.5782 H   0  0  0  0  0  0  0  0  0  0  0  0
    2.4080   -2.7881   -1.1753 H   0  0  0  0  0  0  0  0  0  0  0  0
    4.3131   -2.1791    0.6247 H   0  0  0  0  0  0  0  0  0  0  0  0
    3.6366    0.9560    2.6432 H   0  0  0  0  0  0  0  0  0  0  0  0
    0.8168    4.3741    5.7663 H   0  0  0  0  0  0  0  0  0  0  0  0
    2.5497    4.2463    6.1230 H   0  0  0  0  0  0  0  0  0  0  0  0
    0.4115    2.2484    7.0183 H   0  0  0  0  0  0  0  0  0  0  0  0
    1.1774    3.4644    8.0479 H   0  0  0  0  0  0  0  0  0  0  0  0
    2.1368    2.1380    7.3831 H   0  0  0  0  0  0  0  0  0  0  0  0
   -1.3931    2.4846    2.0605 H   0  0  0  0  0  0  0  0  0  0  0  0
   -3.2989    1.8744    0.2617 H   0  0  0  0  0  0  0  0  0  0  0  0
   -2.1962   -0.5231   -2.4580 H   0  0  0  0  0  0  0  0  0  0  0  0
  1  2  1  0  0  0  0
  2  3  1  0  0  0  0
  3  4  1  0  0  0  0
  4  5  1  0  0  0  0
  5  6  1  0  0  0  0
  6  7  2  0  0  0  0
  7  8  1  0  0  0  0
  8  9  2  0  0  0  0
  9 10  1  0  0  0  0
 10 11  1  0  0  0  0
 11 12  2  0  0  0  0
 12 13  1  0  0  0  0
 13 14  2  0  0  0  0
 14 15  1  0  0  0  0
 15 16  1  0  0  0  0
 15 17  2  0  0  0  0
 17 18  1  0  0  0  0
 18 19  1  0  0  0  0
 17 20  1  0  0  0  0
 12 21  1  0  0  0  0
 21 22  1  0  0  0  0
 22 23  2  0  0  0  0
 23 24  1  0  0  0  0
 24 25  1  0  0  0  0
  5 26  2  0  0  0  0
 26 27  1  0  0  0  0
 27 28  1  0  0  0  0
 27  3  2  0  0  0  0
 25  6  1  0  0  0  0
 11  7  1  0  0  0  0
 20 13  1  0  0  0  0
 25 21  2  0  0  0  0
  1 29  1  0  0  0  0
  1 30  1  0  0  0  0
  1 31  1  0  0  0  0
  2 32  1  0  0  0  0
  2 33  1  0  0  0  0
  8 34  1  0  0  0  0
  9 35  1  0  0  0  0
 14 36  1  0  0  0  0
 18 37  1  0  0  0  0
 18 38  1  0  0  0  0
 19 39  1  0  0  0  0
 19 40  1  0  0  0  0
 19 41  1  0  0  0  0
 22 42  1  0  0  0  0
 23 43  1  0  0  0  0
 26 44  1  0  0  0  0
M  END
