
  xtb     01172214593D
 energy: -37.967993239590 gnorm: 0.000836354502 xtb: 6.4.1 (unknown)
 21 22  0     0  0            999 V2000
    0.3834   -0.4893    4.5960 C   0  0  0  0  0  0  0  0  0  0  0  0
    0.8405   -1.4968    3.5506 C   0  0  0  0  0  0  0  0  0  0  0  0
    0.5770   -1.0361    2.2245 O   0  0  0  0  0  0  0  0  0  0  0  0
    1.4492   -0.1535    1.7144 C   0  0  0  0  0  0  0  0  0  0  0  0
    2.4328    0.2436    2.2896 O   0  0  0  0  0  0  0  0  0  0  0  0
    1.0656    0.2608    0.3626 C   0  0  0  0  0  0  0  0  0  0  0  0
   -0.0028   -0.1470   -0.3727 C   0  0  0  0  0  0  0  0  0  0  0  0
   -0.0447    0.4778   -1.6477 C   0  0  0  0  0  0  0  0  0  0  0  0
   -0.8610    0.4413   -2.7469 C   0  0  0  0  0  0  0  0  0  0  0  0
   -0.2962    1.4924   -3.9783 S   0  0  0  0  0  0  0  0  0  0  0  0
    1.0548    2.0057   -3.0390 C   0  0  0  0  0  0  0  0  0  0  0  0
    1.0560    1.3839   -1.8311 C   0  0  0  0  0  0  0  0  0  0  0  0
    2.0982    1.4333   -0.4385 S   0  0  0  0  0  0  0  0  0  0  0  0
    0.9663    0.4243    4.5103 H   0  0  0  0  0  0  0  0  0  0  0  0
    0.5262   -0.9062    5.5888 H   0  0  0  0  0  0  0  0  0  0  0  0
   -0.6689   -0.2532    4.4563 H   0  0  0  0  0  0  0  0  0  0  0  0
    1.9140   -1.6871    3.6536 H   0  0  0  0  0  0  0  0  0  0  0  0
    0.2856   -2.4337    3.6352 H   0  0  0  0  0  0  0  0  0  0  0  0
   -0.7232   -0.8605   -0.0183 H   0  0  0  0  0  0  0  0  0  0  0  0
   -1.7498   -0.1347   -2.9038 H   0  0  0  0  0  0  0  0  0  0  0  0
    1.7447    2.7200   -3.4370 H   0  0  0  0  0  0  0  0  0  0  0  0
  1  2  1  0  0  0  0
  2  3  1  0  0  0  0
  3  4  1  0  0  0  0
  4  5  2  0  0  0  0
  4  6  1  0  0  0  0
  6  7  2  0  0  0  0
  7  8  1  0  0  0  0
  8  9  2  0  0  0  0
  9 10  1  0  0  0  0
 10 11  1  0  0  0  0
 11 12  2  0  0  0  0
 12 13  1  0  0  0  0
 13  6  1  0  0  0  0
 12  8  1  0  0  0  0
  1 14  1  0  0  0  0
  1 15  1  0  0  0  0
  1 16  1  0  0  0  0
  2 17  1  0  0  0  0
  2 18  1  0  0  0  0
  7 19  1  0  0  0  0
  9 20  1  0  0  0  0
 11 21  1  0  0  0  0
M  END
