
  xtb     01172214593D
 energy: -45.503899184909 gnorm: 0.000162162153 xtb: 6.4.1 (unknown)
 27 28  0     0  0            999 V2000
   -0.9410   -3.2809    3.0292 C   0  0  0  0  0  0  0  0  0  0  0  0
    0.2240   -2.3304    2.8068 C   0  0  0  0  0  0  0  0  0  0  0  0
   -0.0653   -1.5561    1.6575 O   0  0  0  0  0  0  0  0  0  0  0  0
    0.8287   -0.6328    1.2558 C   0  0  0  0  0  0  0  0  0  0  0  0
    2.0192   -0.3672    1.8699 C   0  0  0  0  0  0  0  0  0  0  0  0
    2.8320    0.6364    1.3090 C   0  0  0  0  0  0  0  0  0  0  0  0
    4.0081    1.1103    1.6634 N   0  0  0  0  0  0  0  0  0  0  0  0
    4.3101    2.0588    0.7688 O   0  0  0  0  0  0  0  0  0  0  0  0
    3.3628    2.2191   -0.1628 N   0  0  0  0  0  0  0  0  0  0  0  0
    2.4149    1.3530    0.1286 C   0  0  0  0  0  0  0  0  0  0  0  0
    1.1843    1.0673   -0.4930 C   0  0  0  0  0  0  0  0  0  0  0  0
    0.4071    0.0915    0.0627 C   0  0  0  0  0  0  0  0  0  0  0  0
   -0.7927   -0.3063   -0.4011 O   0  0  0  0  0  0  0  0  0  0  0  0
   -1.3181    0.3192   -1.5574 C   0  0  0  0  0  0  0  0  0  0  0  0
   -2.6666   -0.3160   -1.8544 C   0  0  0  0  0  0  0  0  0  0  0  0
   -1.8575   -2.7167    3.1757 H   0  0  0  0  0  0  0  0  0  0  0  0
   -1.0656   -3.9242    2.1628 H   0  0  0  0  0  0  0  0  0  0  0  0
   -0.7537   -3.8938    3.9061 H   0  0  0  0  0  0  0  0  0  0  0  0
    0.3532   -1.6727    3.6771 H   0  0  0  0  0  0  0  0  0  0  0  0
    1.1542   -2.8941    2.6525 H   0  0  0  0  0  0  0  0  0  0  0  0
    2.3571   -0.8843    2.7505 H   0  0  0  0  0  0  0  0  0  0  0  0
    0.9004    1.6185   -1.3720 H   0  0  0  0  0  0  0  0  0  0  0  0
   -0.6324    0.1755   -2.4036 H   0  0  0  0  0  0  0  0  0  0  0  0
   -1.4335    1.3970   -1.3790 H   0  0  0  0  0  0  0  0  0  0  0  0
   -3.3371   -0.1744   -1.0116 H   0  0  0  0  0  0  0  0  0  0  0  0
   -3.1017    0.1405   -2.7387 H   0  0  0  0  0  0  0  0  0  0  0  0
   -2.5453   -1.3820   -2.0245 H   0  0  0  0  0  0  0  0  0  0  0  0
  1  2  1  0  0  0  0
  2  3  1  0  0  0  0
  3  4  1  0  0  0  0
  4  5  2  0  0  0  0
  5  6  1  0  0  0  0
  6  7  2  0  0  0  0
  7  8  1  0  0  0  0
  8  9  1  0  0  0  0
  9 10  2  0  0  0  0
 10 11  1  0  0  0  0
 11 12  2  0  0  0  0
 12 13  1  0  0  0  0
 13 14  1  0  0  0  0
 14 15  1  0  0  0  0
 12  4  1  0  0  0  0
 10  6  1  0  0  0  0
  1 16  1  0  0  0  0
  1 17  1  0  0  0  0
  1 18  1  0  0  0  0
  2 19  1  0  0  0  0
  2 20  1  0  0  0  0
  5 21  1  0  0  0  0
 11 22  1  0  0  0  0
 14 23  1  0  0  0  0
 14 24  1  0  0  0  0
 15 25  1  0  0  0  0
 15 26  1  0  0  0  0
 15 27  1  0  0  0  0
M  END
