
  xtb     01172214593D
 energy: -61.565833101253 gnorm: 0.000587119969 xtb: 6.4.1 (unknown)
 32 35  0     0  0            999 V2000
    2.7999   -4.3728    0.6499 C   0  0  0  0  0  0  0  0  0  0  0  0
    3.2714   -2.9285    0.7518 C   0  0  0  0  0  0  0  0  0  0  0  0
    2.1402   -2.0032    0.7267 N   0  0  0  0  0  0  0  0  0  0  0  0
    1.5661   -1.6845    1.9458 C   0  0  0  0  0  0  0  0  0  0  0  0
    1.9939   -2.1487    2.9802 O   0  0  0  0  0  0  0  0  0  0  0  0
    0.4194   -0.7521    1.9106 C   0  0  0  0  0  0  0  0  0  0  0  0
   -0.1949   -0.3724    3.0880 C   0  0  0  0  0  0  0  0  0  0  0  0
   -1.2767    0.5078    3.0675 C   0  0  0  0  0  0  0  0  0  0  0  0
   -1.7494    1.0107    1.8709 C   0  0  0  0  0  0  0  0  0  0  0  0
   -1.1409    0.6398    0.6520 C   0  0  0  0  0  0  0  0  0  0  0  0
   -1.5942    1.1337   -0.5907 C   0  0  0  0  0  0  0  0  0  0  0  0
   -0.9723    0.7492   -1.7626 C   0  0  0  0  0  0  0  0  0  0  0  0
    0.1091   -0.1314   -1.7348 C   0  0  0  0  0  0  0  0  0  0  0  0
    0.5734   -0.6300   -0.5332 C   0  0  0  0  0  0  0  0  0  0  0  0
   -0.0427   -0.2527    0.6766 C   0  0  0  0  0  0  0  0  0  0  0  0
    1.7213   -1.5614   -0.5169 C   0  0  0  0  0  0  0  0  0  0  0  0
    2.2783   -1.9233   -1.5306 O   0  0  0  0  0  0  0  0  0  0  0  0
   -2.7399    2.0654   -0.6290 C   0  0  0  0  0  0  0  0  0  0  0  0
   -3.1985    2.5390   -1.6420 O   0  0  0  0  0  0  0  0  0  0  0  0
   -3.2795    2.3772    0.6040 N   0  0  0  0  0  0  0  0  0  0  0  0
   -2.8966    1.9411    1.8578 C   0  0  0  0  0  0  0  0  0  0  0  0
   -3.4815    2.3147    2.8474 O   0  0  0  0  0  0  0  0  0  0  0  0
    2.2600   -4.5276   -0.2814 H   0  0  0  0  0  0  0  0  0  0  0  0
    2.1486   -4.6159    1.4862 H   0  0  0  0  0  0  0  0  0  0  0  0
    3.6576   -5.0387    0.6707 H   0  0  0  0  0  0  0  0  0  0  0  0
    3.9151   -2.6781   -0.0929 H   0  0  0  0  0  0  0  0  0  0  0  0
    3.8027   -2.7673    1.6911 H   0  0  0  0  0  0  0  0  0  0  0  0
    0.1798   -0.7695    4.0193 H   0  0  0  0  0  0  0  0  0  0  0  0
   -1.7621    0.8103    3.9831 H   0  0  0  0  0  0  0  0  0  0  0  0
   -1.3411    1.1441   -2.6972 H   0  0  0  0  0  0  0  0  0  0  0  0
    0.6000   -0.4364   -2.6466 H   0  0  0  0  0  0  0  0  0  0  0  0
   -4.0689    3.0174    0.5862 H   0  0  0  0  0  0  0  0  0  0  0  0
  1  2  1  0  0  0  0
  2  3  1  0  0  0  0
  3  4  1  0  0  0  0
  4  5  2  0  0  0  0
  4  6  1  0  0  0  0
  6  7  1  0  0  0  0
  7  8  2  0  0  0  0
  8  9  1  0  0  0  0
  9 10  2  0  0  0  0
 10 11  1  0  0  0  0
 11 12  2  0  0  0  0
 12 13  1  0  0  0  0
 13 14  2  0  0  0  0
 14 15  1  0  0  0  0
 14 16  1  0  0  0  0
 16 17  2  0  0  0  0
 11 18  1  0  0  0  0
 18 19  2  0  0  0  0
 18 20  1  0  0  0  0
 20 21  1  0  0  0  0
 21 22  2  0  0  0  0
 16  3  1  0  0  0  0
 15  6  2  0  0  0  0
 21  9  1  0  0  0  0
 15 10  1  0  0  0  0
  1 23  1  0  0  0  0
  1 24  1  0  0  0  0
  1 25  1  0  0  0  0
  2 26  1  0  0  0  0
  2 27  1  0  0  0  0
  7 28  1  0  0  0  0
  8 29  1  0  0  0  0
 12 30  1  0  0  0  0
 13 31  1  0  0  0  0
 20 32  1  0  0  0  0
M  END
