
  xtb     01172214593D
 energy: -155.417661123677 gnorm: 0.000421071624 xtb: 6.4.1 (unknown)
104115  0     0  0            999 V2000
   -1.6831    1.1164    6.8833 C   0  0  0  0  0  0  0  0  0  0  0  0
   -0.1959    1.4393    7.0417 C   0  0  0  0  0  0  0  0  0  0  0  0
    0.5515    1.0989    5.7844 C   0  0  0  0  0  0  0  0  0  0  0  0
    0.7232    2.0431    4.7804 C   0  0  0  0  0  0  0  0  0  0  0  0
    1.3783    1.7215    3.6074 C   0  0  0  0  0  0  0  0  0  0  0  0
    1.8798    0.4412    3.4079 C   0  0  0  0  0  0  0  0  0  0  0  0
    2.5577    0.0903    2.0986 C   0  0  0  0  0  0  0  0  0  0  0  0
    3.4436    1.2184    1.6036 C   0  0  0  0  0  0  0  0  0  0  0  0
    3.4828    1.5897    0.2677 C   0  0  0  0  0  0  0  0  0  0  0  0
    4.3402    2.5900   -0.1545 C   0  0  0  0  0  0  0  0  0  0  0  0
    5.1817    3.2362    0.7400 C   0  0  0  0  0  0  0  0  0  0  0  0
    6.1417    4.2918    0.2711 C   0  0  0  0  0  0  0  0  0  0  0  0
    7.4916    3.6670   -0.0870 C   0  0  0  0  0  0  0  0  0  0  0  0
    5.1495    2.8485    2.0738 C   0  0  0  0  0  0  0  0  0  0  0  0
    4.2936    1.8530    2.5019 C   0  0  0  0  0  0  0  0  0  0  0  0
    1.4963   -0.3429    1.1025 C   0  0  0  0  0  0  0  0  0  0  0  0
    0.4112    0.3842    0.6478 C   0  0  0  0  0  0  0  0  0  0  0  0
   -0.4495   -0.1801   -0.2794 C   0  0  0  0  0  0  0  0  0  0  0  0
   -0.2494   -1.5087   -0.7607 C   0  0  0  0  0  0  0  0  0  0  0  0
   -1.1297   -2.1011   -1.6953 C   0  0  0  0  0  0  0  0  0  0  0  0
   -0.9050   -3.3974   -2.1001 C   0  0  0  0  0  0  0  0  0  0  0  0
    0.1802   -4.1356   -1.6228 C   0  0  0  0  0  0  0  0  0  0  0  0
    1.0528   -3.5796   -0.7286 C   0  0  0  0  0  0  0  0  0  0  0  0
    0.8556   -2.2635   -0.2779 C   0  0  0  0  0  0  0  0  0  0  0  0
    1.7204   -1.6469    0.6551 C   0  0  0  0  0  0  0  0  0  0  0  0
    2.9026   -2.1205    1.3099 C   0  0  0  0  0  0  0  0  0  0  0  0
    3.8465   -3.5772    1.2903 S   0  0  0  0  0  0  0  0  0  0  0  0
    4.9380   -2.8756    2.4448 C   0  0  0  0  0  0  0  0  0  0  0  0
    6.1026   -3.3312    3.0906 C   0  0  0  0  0  0  0  0  0  0  0  0
    6.5991   -2.3863    3.9302 C   0  0  0  0  0  0  0  0  0  0  0  0
    5.6719   -0.9219    3.9604 S   0  0  0  0  0  0  0  0  0  0  0  0
    4.5664   -1.5788    2.8068 C   0  0  0  0  0  0  0  0  0  0  0  0
    3.4015   -1.1534    2.1614 C   0  0  0  0  0  0  0  0  0  0  0  0
   -2.3413   -1.3687   -2.2567 C   0  0  0  0  0  0  0  0  0  0  0  0
   -2.2040   -1.3917   -3.7726 C   0  0  0  0  0  0  0  0  0  0  0  0
   -2.7398   -2.4038   -4.5586 C   0  0  0  0  0  0  0  0  0  0  0  0
   -2.5412   -2.4134   -5.9271 C   0  0  0  0  0  0  0  0  0  0  0  0
   -1.7967   -1.4221   -6.5506 C   0  0  0  0  0  0  0  0  0  0  0  0
   -1.6253   -1.4070   -8.0422 C   0  0  0  0  0  0  0  0  0  0  0  0
   -2.7432   -0.5950   -8.6991 C   0  0  0  0  0  0  0  0  0  0  0  0
   -1.2478   -0.4207   -5.7617 C   0  0  0  0  0  0  0  0  0  0  0  0
   -1.4413   -0.4102   -4.3941 C   0  0  0  0  0  0  0  0  0  0  0  0
   -3.6226   -2.0072   -1.7276 C   0  0  0  0  0  0  0  0  0  0  0  0
   -3.6337   -2.5806   -0.4615 C   0  0  0  0  0  0  0  0  0  0  0  0
   -4.8006   -3.0958    0.0706 C   0  0  0  0  0  0  0  0  0  0  0  0
   -5.9938   -3.0417   -0.6369 C   0  0  0  0  0  0  0  0  0  0  0  0
   -7.2510   -3.6409   -0.0752 C   0  0  0  0  0  0  0  0  0  0  0  0
   -7.3577   -5.1175   -0.4617 C   0  0  0  0  0  0  0  0  0  0  0  0
   -5.9833   -2.4544   -1.8942 C   0  0  0  0  0  0  0  0  0  0  0  0
   -4.8181   -1.9392   -2.4312 C   0  0  0  0  0  0  0  0  0  0  0  0
   -2.4036    0.0577   -1.7785 C   0  0  0  0  0  0  0  0  0  0  0  0
   -1.5470    0.5532   -0.8275 C   0  0  0  0  0  0  0  0  0  0  0  0
   -1.8668    2.2265   -0.4116 S   0  0  0  0  0  0  0  0  0  0  0  0
   -3.1588    2.2692   -1.5569 C   0  0  0  0  0  0  0  0  0  0  0  0
   -4.0490    3.2690   -1.9934 C   0  0  0  0  0  0  0  0  0  0  0  0
   -4.8683    2.7987   -2.9680 C   0  0  0  0  0  0  0  0  0  0  0  0
   -4.5858    1.1394   -3.3721 S   0  0  0  0  0  0  0  0  0  0  0  0
   -3.3204    1.0443   -2.1970 C   0  0  0  0  0  0  0  0  0  0  0  0
    1.6985   -0.5094    4.4022 C   0  0  0  0  0  0  0  0  0  0  0  0
    1.0461   -0.1811    5.5763 C   0  0  0  0  0  0  0  0  0  0  0  0
   -2.2269    1.3676    7.7912 H   0  0  0  0  0  0  0  0  0  0  0  0
   -1.8202    0.0571    6.6773 H   0  0  0  0  0  0  0  0  0  0  0  0
   -2.1064    1.6818    6.0561 H   0  0  0  0  0  0  0  0  0  0  0  0
    0.2088    0.8679    7.8797 H   0  0  0  0  0  0  0  0  0  0  0  0
   -0.0804    2.5019    7.2650 H   0  0  0  0  0  0  0  0  0  0  0  0
    0.3432    3.0453    4.9203 H   0  0  0  0  0  0  0  0  0  0  0  0
    1.5141    2.4755    2.8455 H   0  0  0  0  0  0  0  0  0  0  0  0
    2.8402    1.0997   -0.4489 H   0  0  0  0  0  0  0  0  0  0  0  0
    4.3529    2.8720   -1.1979 H   0  0  0  0  0  0  0  0  0  0  0  0
    6.2874    5.0350    1.0579 H   0  0  0  0  0  0  0  0  0  0  0  0
    5.7354    4.7985   -0.6068 H   0  0  0  0  0  0  0  0  0  0  0  0
    7.9179    3.1662    0.7794 H   0  0  0  0  0  0  0  0  0  0  0  0
    7.3692    2.9321   -0.8797 H   0  0  0  0  0  0  0  0  0  0  0  0
    8.1881    4.4309   -0.4252 H   0  0  0  0  0  0  0  0  0  0  0  0
    5.8008    3.3334    2.7870 H   0  0  0  0  0  0  0  0  0  0  0  0
    4.2788    1.5681    3.5442 H   0  0  0  0  0  0  0  0  0  0  0  0
    0.2343    1.3909    0.9966 H   0  0  0  0  0  0  0  0  0  0  0  0
   -1.5804   -3.8620   -2.8011 H   0  0  0  0  0  0  0  0  0  0  0  0
    0.3221   -5.1492   -1.9669 H   0  0  0  0  0  0  0  0  0  0  0  0
    1.8951   -4.1422   -0.3557 H   0  0  0  0  0  0  0  0  0  0  0  0
    6.5422   -4.2998    2.9398 H   0  0  0  0  0  0  0  0  0  0  0  0
    7.4716   -2.4514    4.5493 H   0  0  0  0  0  0  0  0  0  0  0  0
   -3.3253   -3.1919   -4.1078 H   0  0  0  0  0  0  0  0  0  0  0  0
   -2.9701   -3.2096   -6.5194 H   0  0  0  0  0  0  0  0  0  0  0  0
   -0.6604   -0.9645   -8.2989 H   0  0  0  0  0  0  0  0  0  0  0  0
   -1.6466   -2.4281   -8.4286 H   0  0  0  0  0  0  0  0  0  0  0  0
   -2.6221   -0.5836   -9.7800 H   0  0  0  0  0  0  0  0  0  0  0  0
   -3.7130   -1.0267   -8.4619 H   0  0  0  0  0  0  0  0  0  0  0  0
   -2.7285    0.4303   -8.3361 H   0  0  0  0  0  0  0  0  0  0  0  0
   -0.6553    0.3576   -6.2215 H   0  0  0  0  0  0  0  0  0  0  0  0
   -0.9884    0.3718   -3.8012 H   0  0  0  0  0  0  0  0  0  0  0  0
   -2.7229   -2.6247    0.1177 H   0  0  0  0  0  0  0  0  0  0  0  0
   -4.7838   -3.5396    1.0560 H   0  0  0  0  0  0  0  0  0  0  0  0
   -8.1210   -3.1045   -0.4596 H   0  0  0  0  0  0  0  0  0  0  0  0
   -7.2485   -3.5533    1.0132 H   0  0  0  0  0  0  0  0  0  0  0  0
   -6.5047   -5.6713   -0.0757 H   0  0  0  0  0  0  0  0  0  0  0  0
   -7.3729   -5.2243   -1.5441 H   0  0  0  0  0  0  0  0  0  0  0  0
   -8.2679   -5.5535   -0.0564 H   0  0  0  0  0  0  0  0  0  0  0  0
   -6.9008   -2.3906   -2.4621 H   0  0  0  0  0  0  0  0  0  0  0  0
   -4.8466   -1.4818   -3.4082 H   0  0  0  0  0  0  0  0  0  0  0  0
   -4.0716    4.2719   -1.6090 H   0  0  0  0  0  0  0  0  0  0  0  0
   -5.6411    3.3278   -3.4893 H   0  0  0  0  0  0  0  0  0  0  0  0
    2.0714   -1.5138    4.2632 H   0  0  0  0  0  0  0  0  0  0  0  0
    0.9226   -0.9323    6.3437 H   0  0  0  0  0  0  0  0  0  0  0  0
  1  2  1  0  0  0  0
  2  3  1  0  0  0  0
  3  4  2  0  0  0  0
  4  5  1  0  0  0  0
  5  6  2  0  0  0  0
  6  7  1  0  0  0  0
  7  8  1  0  0  0  0
  8  9  2  0  0  0  0
  9 10  1  0  0  0  0
 10 11  2  0  0  0  0
 11 12  1  0  0  0  0
 12 13  1  0  0  0  0
 11 14  1  0  0  0  0
 14 15  2  0  0  0  0
  7 16  1  0  0  0  0
 16 17  2  0  0  0  0
 17 18  1  0  0  0  0
 18 19  2  0  0  0  0
 19 20  1  0  0  0  0
 20 21  2  0  0  0  0
 21 22  1  0  0  0  0
 22 23  2  0  0  0  0
 23 24  1  0  0  0  0
 24 25  2  0  0  0  0
 25 26  1  0  0  0  0
 26 27  1  0  0  0  0
 27 28  1  0  0  0  0
 28 29  1  0  0  0  0
 29 30  2  0  0  0  0
 30 31  1  0  0  0  0
 31 32  1  0  0  0  0
 32 33  1  0  0  0  0
 20 34  1  0  0  0  0
 34 35  1  0  0  0  0
 35 36  2  0  0  0  0
 36 37  1  0  0  0  0
 37 38  2  0  0  0  0
 38 39  1  0  0  0  0
 39 40  1  0  0  0  0
 38 41  1  0  0  0  0
 41 42  2  0  0  0  0
 34 43  1  0  0  0  0
 43 44  2  0  0  0  0
 44 45  1  0  0  0  0
 45 46  2  0  0  0  0
 46 47  1  0  0  0  0
 47 48  1  0  0  0  0
 46 49  1  0  0  0  0
 49 50  2  0  0  0  0
 34 51  1  0  0  0  0
 51 52  2  0  0  0  0
 52 53  1  0  0  0  0
 53 54  1  0  0  0  0
 54 55  1  0  0  0  0
 55 56  2  0  0  0  0
 56 57  1  0  0  0  0
 57 58  1  0  0  0  0
  6 59  1  0  0  0  0
 59 60  2  0  0  0  0
 60  3  1  0  0  0  0
 33  7  1  0  0  0  0
 42 35  1  0  0  0  0
 50 43  1  0  0  0  0
 58 51  1  0  0  0  0
 15  8  1  0  0  0  0
 25 16  1  0  0  0  0
 33 26  2  0  0  0  0
 58 54  2  0  0  0  0
 52 18  1  0  0  0  0
 24 19  1  0  0  0  0
 32 28  2  0  0  0  0
  1 61  1  0  0  0  0
  1 62  1  0  0  0  0
  1 63  1  0  0  0  0
  2 64  1  0  0  0  0
  2 65  1  0  0  0  0
  4 66  1  0  0  0  0
  5 67  1  0  0  0  0
  9 68  1  0  0  0  0
 10 69  1  0  0  0  0
 12 70  1  0  0  0  0
 12 71  1  0  0  0  0
 13 72  1  0  0  0  0
 13 73  1  0  0  0  0
 13 74  1  0  0  0  0
 14 75  1  0  0  0  0
 15 76  1  0  0  0  0
 17 77  1  0  0  0  0
 21 78  1  0  0  0  0
 22 79  1  0  0  0  0
 23 80  1  0  0  0  0
 29 81  1  0  0  0  0
 30 82  1  0  0  0  0
 36 83  1  0  0  0  0
 37 84  1  0  0  0  0
 39 85  1  0  0  0  0
 39 86  1  0  0  0  0
 40 87  1  0  0  0  0
 40 88  1  0  0  0  0
 40 89  1  0  0  0  0
 41 90  1  0  0  0  0
 42 91  1  0  0  0  0
 44 92  1  0  0  0  0
 45 93  1  0  0  0  0
 47 94  1  0  0  0  0
 47 95  1  0  0  0  0
 48 96  1  0  0  0  0
 48 97  1  0  0  0  0
 48 98  1  0  0  0  0
 49 99  1  0  0  0  0
 50100  1  0  0  0  0
 55101  1  0  0  0  0
 56102  1  0  0  0  0
 59103  1  0  0  0  0
 60104  1  0  0  0  0
M  END
