
  xtb     01172215003D
 energy: -158.461659853507 gnorm: 0.000228407334 xtb: 6.4.1 (unknown)
110120  0     0  0            999 V2000
    7.8951   -2.6526   -2.3436 C   0  0  0  0  0  0  0  0  0  0  0  0
    7.0811   -1.5863   -3.0793 C   0  0  0  0  0  0  0  0  0  0  0  0
    6.1797   -0.8617   -2.1219 C   0  0  0  0  0  0  0  0  0  0  0  0
    4.9047   -1.3330   -1.8460 C   0  0  0  0  0  0  0  0  0  0  0  0
    4.0856   -0.6911   -0.9343 C   0  0  0  0  0  0  0  0  0  0  0  0
    4.5191    0.4498   -0.2723 C   0  0  0  0  0  0  0  0  0  0  0  0
    3.6636    1.1556    0.7646 C   0  0  0  0  0  0  0  0  0  0  0  0
    3.4138    2.6304    0.4954 C   0  0  0  0  0  0  0  0  0  0  0  0
    3.8950    3.3040   -0.6177 C   0  0  0  0  0  0  0  0  0  0  0  0
    3.6350    4.6523   -0.7889 C   0  0  0  0  0  0  0  0  0  0  0  0
    2.8864    5.3634    0.1371 C   0  0  0  0  0  0  0  0  0  0  0  0
    2.5473    6.8072   -0.0951 C   0  0  0  0  0  0  0  0  0  0  0  0
    1.2778    6.9204   -0.9423 C   0  0  0  0  0  0  0  0  0  0  0  0
    2.4059    4.6864    1.2511 C   0  0  0  0  0  0  0  0  0  0  0  0
    2.6691    3.3428    1.4301 C   0  0  0  0  0  0  0  0  0  0  0  0
    4.3722    1.0152    2.1036 C   0  0  0  0  0  0  0  0  0  0  0  0
    5.5703    1.4550    2.6886 C   0  0  0  0  0  0  0  0  0  0  0  0
    5.6956    1.0091    3.9708 C   0  0  0  0  0  0  0  0  0  0  0  0
    4.3608    0.0484    4.5026 S   0  0  0  0  0  0  0  0  0  0  0  0
    3.6141    0.2522    2.9699 C   0  0  0  0  0  0  0  0  0  0  0  0
    2.3983   -0.1064    2.3281 C   0  0  0  0  0  0  0  0  0  0  0  0
    1.0024   -1.0021    2.7862 S   0  0  0  0  0  0  0  0  0  0  0  0
    0.2968   -0.6780    1.2104 C   0  0  0  0  0  0  0  0  0  0  0  0
   -0.9543   -1.1514    0.8545 C   0  0  0  0  0  0  0  0  0  0  0  0
   -1.6975   -2.0389    1.8074 C   0  0  0  0  0  0  0  0  0  0  0  0
   -1.0967   -3.4448    1.8786 C   0  0  0  0  0  0  0  0  0  0  0  0
   -1.4447   -0.7735   -0.4044 C   0  0  0  0  0  0  0  0  0  0  0  0
   -2.6895   -1.0185   -1.0570 C   0  0  0  0  0  0  0  0  0  0  0  0
   -2.7448   -0.4486   -2.3110 C   0  0  0  0  0  0  0  0  0  0  0  0
   -1.3241    0.3958   -2.7892 S   0  0  0  0  0  0  0  0  0  0  0  0
   -0.5981    0.0183   -1.2345 C   0  0  0  0  0  0  0  0  0  0  0  0
    0.6628    0.4710   -0.8884 C   0  0  0  0  0  0  0  0  0  0  0  0
    1.4133    1.3462   -1.8467 C   0  0  0  0  0  0  0  0  0  0  0  0
    0.8768    2.7788   -1.8067 C   0  0  0  0  0  0  0  0  0  0  0  0
    1.1386    0.1208    0.3832 C   0  0  0  0  0  0  0  0  0  0  0  0
    2.3603    0.4190    1.0548 C   0  0  0  0  0  0  0  0  0  0  0  0
   -4.0238   -0.6617   -2.8931 C   0  0  0  0  0  0  0  0  0  0  0  0
   -4.8556   -0.2738   -4.3448 S   0  0  0  0  0  0  0  0  0  0  0  0
   -6.2725   -1.0537   -3.7329 C   0  0  0  0  0  0  0  0  0  0  0  0
   -6.1097   -1.5808   -2.4861 C   0  0  0  0  0  0  0  0  0  0  0  0
   -4.8130   -1.3566   -1.9986 C   0  0  0  0  0  0  0  0  0  0  0  0
   -4.0236   -1.6896   -0.7424 C   0  0  0  0  0  0  0  0  0  0  0  0
   -4.6756   -1.0178    0.4561 C   0  0  0  0  0  0  0  0  0  0  0  0
   -4.8945    0.3545    0.3877 C   0  0  0  0  0  0  0  0  0  0  0  0
   -5.4701    1.0353    1.4415 C   0  0  0  0  0  0  0  0  0  0  0  0
   -5.8431    0.3684    2.6016 C   0  0  0  0  0  0  0  0  0  0  0  0
   -6.5092    1.0994    3.7313 C   0  0  0  0  0  0  0  0  0  0  0  0
   -8.0280    1.0967    3.5465 C   0  0  0  0  0  0  0  0  0  0  0  0
   -5.6238   -0.9993    2.6689 C   0  0  0  0  0  0  0  0  0  0  0  0
   -5.0474   -1.6863    1.6147 C   0  0  0  0  0  0  0  0  0  0  0  0
   -3.9456   -3.2023   -0.7033 C   0  0  0  0  0  0  0  0  0  0  0  0
   -5.0836   -3.9535   -0.4263 C   0  0  0  0  0  0  0  0  0  0  0  0
   -5.0440   -5.3336   -0.4586 C   0  0  0  0  0  0  0  0  0  0  0  0
   -3.8750   -6.0078   -0.7877 C   0  0  0  0  0  0  0  0  0  0  0  0
   -3.8500   -7.5068   -0.8695 C   0  0  0  0  0  0  0  0  0  0  0  0
   -4.2780   -7.9725   -2.2627 C   0  0  0  0  0  0  0  0  0  0  0  0
   -2.7516   -5.2565   -1.0989 C   0  0  0  0  0  0  0  0  0  0  0  0
   -2.7848   -3.8737   -1.0612 C   0  0  0  0  0  0  0  0  0  0  0  0
    5.8049    0.9131   -0.5351 C   0  0  0  0  0  0  0  0  0  0  0  0
    6.6184    0.2703   -1.4475 C   0  0  0  0  0  0  0  0  0  0  0  0
    7.2323   -3.3714   -1.8669 H   0  0  0  0  0  0  0  0  0  0  0  0
    8.5433   -3.1835   -3.0371 H   0  0  0  0  0  0  0  0  0  0  0  0
    8.5111   -2.1938   -1.5733 H   0  0  0  0  0  0  0  0  0  0  0  0
    7.7628   -0.8780   -3.5549 H   0  0  0  0  0  0  0  0  0  0  0  0
    6.4846   -2.0635   -3.8596 H   0  0  0  0  0  0  0  0  0  0  0  0
    4.5416   -2.2166   -2.3515 H   0  0  0  0  0  0  0  0  0  0  0  0
    3.1007   -1.0894   -0.7454 H   0  0  0  0  0  0  0  0  0  0  0  0
    4.4674    2.7830   -1.3706 H   0  0  0  0  0  0  0  0  0  0  0  0
    4.0196    5.1575   -1.6638 H   0  0  0  0  0  0  0  0  0  0  0  0
    3.3707    7.3042   -0.6123 H   0  0  0  0  0  0  0  0  0  0  0  0
    2.3895    7.3108    0.8607 H   0  0  0  0  0  0  0  0  0  0  0  0
    1.4233    6.4414   -1.9079 H   0  0  0  0  0  0  0  0  0  0  0  0
    0.4451    6.4302   -0.4427 H   0  0  0  0  0  0  0  0  0  0  0  0
    1.0201    7.9641   -1.1065 H   0  0  0  0  0  0  0  0  0  0  0  0
    1.8186    5.2174    1.9870 H   0  0  0  0  0  0  0  0  0  0  0  0
    2.2864    2.8354    2.3042 H   0  0  0  0  0  0  0  0  0  0  0  0
    6.3063    2.0780    2.2148 H   0  0  0  0  0  0  0  0  0  0  0  0
    6.5012    1.1904    4.6542 H   0  0  0  0  0  0  0  0  0  0  0  0
   -1.6628   -1.5892    2.8044 H   0  0  0  0  0  0  0  0  0  0  0  0
   -2.7361   -2.1143    1.5060 H   0  0  0  0  0  0  0  0  0  0  0  0
   -1.1508   -3.9317    0.9088 H   0  0  0  0  0  0  0  0  0  0  0  0
   -0.0574   -3.4115    2.1945 H   0  0  0  0  0  0  0  0  0  0  0  0
   -1.6535   -4.0451    2.5941 H   0  0  0  0  0  0  0  0  0  0  0  0
    2.4737    1.3461   -1.6089 H   0  0  0  0  0  0  0  0  0  0  0  0
    1.2912    0.9500   -2.8590 H   0  0  0  0  0  0  0  0  0  0  0  0
    0.9532    3.1851   -0.8015 H   0  0  0  0  0  0  0  0  0  0  0  0
    1.4513    3.4107   -2.4789 H   0  0  0  0  0  0  0  0  0  0  0  0
   -0.1658    2.8068   -2.1133 H   0  0  0  0  0  0  0  0  0  0  0  0
   -7.1524   -1.0702   -4.3447 H   0  0  0  0  0  0  0  0  0  0  0  0
   -6.8930   -2.0926   -1.9582 H   0  0  0  0  0  0  0  0  0  0  0  0
   -4.6078    0.8952   -0.5027 H   0  0  0  0  0  0  0  0  0  0  0  0
   -5.6281    2.1017    1.3643 H   0  0  0  0  0  0  0  0  0  0  0  0
   -6.1525    2.1308    3.7658 H   0  0  0  0  0  0  0  0  0  0  0  0
   -6.2611    0.6197    4.6804 H   0  0  0  0  0  0  0  0  0  0  0  0
   -8.4044    0.0762    3.5259 H   0  0  0  0  0  0  0  0  0  0  0  0
   -8.5126    1.6295    4.3614 H   0  0  0  0  0  0  0  0  0  0  0  0
   -8.2952    1.5782    2.6084 H   0  0  0  0  0  0  0  0  0  0  0  0
   -5.9009   -1.5410    3.5623 H   0  0  0  0  0  0  0  0  0  0  0  0
   -4.8869   -2.7500    1.7133 H   0  0  0  0  0  0  0  0  0  0  0  0
   -6.0116   -3.4558   -0.1877 H   0  0  0  0  0  0  0  0  0  0  0  0
   -5.9380   -5.8971   -0.2305 H   0  0  0  0  0  0  0  0  0  0  0  0
   -2.8423   -7.8723   -0.6613 H   0  0  0  0  0  0  0  0  0  0  0  0
   -4.5277   -7.9298   -0.1250 H   0  0  0  0  0  0  0  0  0  0  0  0
   -3.6054   -7.5718   -3.0180 H   0  0  0  0  0  0  0  0  0  0  0  0
   -4.2624   -9.0583   -2.3237 H   0  0  0  0  0  0  0  0  0  0  0  0
   -5.2849   -7.6260   -2.4847 H   0  0  0  0  0  0  0  0  0  0  0  0
   -1.8348   -5.7580   -1.3763 H   0  0  0  0  0  0  0  0  0  0  0  0
   -1.8987   -3.3144   -1.3219 H   0  0  0  0  0  0  0  0  0  0  0  0
    6.1744    1.7893   -0.0251 H   0  0  0  0  0  0  0  0  0  0  0  0
    7.6108    0.6543   -1.6381 H   0  0  0  0  0  0  0  0  0  0  0  0
  1  2  1  0  0  0  0
  2  3  1  0  0  0  0
  3  4  2  0  0  0  0
  4  5  1  0  0  0  0
  5  6  2  0  0  0  0
  6  7  1  0  0  0  0
  7  8  1  0  0  0  0
  8  9  2  0  0  0  0
  9 10  1  0  0  0  0
 10 11  2  0  0  0  0
 11 12  1  0  0  0  0
 12 13  1  0  0  0  0
 11 14  1  0  0  0  0
 14 15  2  0  0  0  0
  7 16  1  0  0  0  0
 16 17  1  0  0  0  0
 17 18  2  0  0  0  0
 18 19  1  0  0  0  0
 19 20  1  0  0  0  0
 20 21  1  0  0  0  0
 21 22  1  0  0  0  0
 22 23  1  0  0  0  0
 23 24  2  0  0  0  0
 24 25  1  0  0  0  0
 25 26  1  0  0  0  0
 24 27  1  0  0  0  0
 27 28  1  0  0  0  0
 28 29  2  0  0  0  0
 29 30  1  0  0  0  0
 30 31  1  0  0  0  0
 31 32  1  0  0  0  0
 32 33  1  0  0  0  0
 33 34  1  0  0  0  0
 32 35  2  0  0  0  0
 35 36  1  0  0  0  0
 29 37  1  0  0  0  0
 37 38  1  0  0  0  0
 38 39  1  0  0  0  0
 39 40  2  0  0  0  0
 40 41  1  0  0  0  0
 41 42  1  0  0  0  0
 42 43  1  0  0  0  0
 43 44  2  0  0  0  0
 44 45  1  0  0  0  0
 45 46  2  0  0  0  0
 46 47  1  0  0  0  0
 47 48  1  0  0  0  0
 46 49  1  0  0  0  0
 49 50  2  0  0  0  0
 42 51  1  0  0  0  0
 51 52  2  0  0  0  0
 52 53  1  0  0  0  0
 53 54  2  0  0  0  0
 54 55  1  0  0  0  0
 55 56  1  0  0  0  0
 54 57  1  0  0  0  0
 57 58  2  0  0  0  0
  6 59  1  0  0  0  0
 59 60  2  0  0  0  0
 60  3  1  0  0  0  0
 36  7  1  0  0  0  0
 41 37  2  0  0  0  0
 50 43  1  0  0  0  0
 58 51  1  0  0  0  0
 15  8  1  0  0  0  0
 20 16  2  0  0  0  0
 36 21  2  0  0  0  0
 35 23  1  0  0  0  0
 31 27  2  0  0  0  0
 42 28  1  0  0  0  0
  1 61  1  0  0  0  0
  1 62  1  0  0  0  0
  1 63  1  0  0  0  0
  2 64  1  0  0  0  0
  2 65  1  0  0  0  0
  4 66  1  0  0  0  0
  5 67  1  0  0  0  0
  9 68  1  0  0  0  0
 10 69  1  0  0  0  0
 12 70  1  0  0  0  0
 12 71  1  0  0  0  0
 13 72  1  0  0  0  0
 13 73  1  0  0  0  0
 13 74  1  0  0  0  0
 14 75  1  0  0  0  0
 15 76  1  0  0  0  0
 17 77  1  0  0  0  0
 18 78  1  0  0  0  0
 25 79  1  0  0  0  0
 25 80  1  0  0  0  0
 26 81  1  0  0  0  0
 26 82  1  0  0  0  0
 26 83  1  0  0  0  0
 33 84  1  0  0  0  0
 33 85  1  0  0  0  0
 34 86  1  0  0  0  0
 34 87  1  0  0  0  0
 34 88  1  0  0  0  0
 39 89  1  0  0  0  0
 40 90  1  0  0  0  0
 44 91  1  0  0  0  0
 45 92  1  0  0  0  0
 47 93  1  0  0  0  0
 47 94  1  0  0  0  0
 48 95  1  0  0  0  0
 48 96  1  0  0  0  0
 48 97  1  0  0  0  0
 49 98  1  0  0  0  0
 50 99  1  0  0  0  0
 52100  1  0  0  0  0
 53101  1  0  0  0  0
 55102  1  0  0  0  0
 55103  1  0  0  0  0
 56104  1  0  0  0  0
 56105  1  0  0  0  0
 56106  1  0  0  0  0
 57107  1  0  0  0  0
 58108  1  0  0  0  0
 59109  1  0  0  0  0
 60110  1  0  0  0  0
M  END
