
  xtb     01172215003D
 energy: -27.601214342937 gnorm: 0.000483214721 xtb: 6.4.1 (unknown)
 18 19  0     0  0            999 V2000
   -0.2878    2.8433    1.1956 C   0  0  0  0  0  0  0  0  0  0  0  0
    0.7311    2.0024    1.9536 C   0  0  0  0  0  0  0  0  0  0  0  0
    0.9865    0.6689    1.3292 C   0  0  0  0  0  0  0  0  0  0  0  0
    1.8997   -0.2452    1.7212 C   0  0  0  0  0  0  0  0  0  0  0  0
    1.8949   -1.4322    0.9278 C   0  0  0  0  0  0  0  0  0  0  0  0
    2.6046   -2.5995    0.9326 C   0  0  0  0  0  0  0  0  0  0  0  0
    2.0550   -3.7367   -0.4255 Se  0  0  0  0  0  2  0  0  0  0  0  0
    0.8172   -2.4446   -0.9276 C   0  0  0  0  0  0  0  0  0  0  0  0
    0.9063   -1.3637   -0.1119 C   0  0  0  0  0  0  0  0  0  0  0  0
    0.0366    0.1441   -0.0611 S   0  0  0  0  0  0  0  0  0  0  0  0
    0.0472    3.0225    0.1767 H   0  0  0  0  0  0  0  0  0  0  0  0
   -0.4243    3.8028    1.6886 H   0  0  0  0  0  0  0  0  0  0  0  0
   -1.2489    2.3349    1.1567 H   0  0  0  0  0  0  0  0  0  0  0  0
    0.3817    1.8448    2.9795 H   0  0  0  0  0  0  0  0  0  0  0  0
    1.6806    2.5435    2.0176 H   0  0  0  0  0  0  0  0  0  0  0  0
    2.5675   -0.0959    2.5513 H   0  0  0  0  0  0  0  0  0  0  0  0
    3.3894   -2.8774    1.6115 H   0  0  0  0  0  0  0  0  0  0  0  0
    0.1503   -2.5886   -1.7565 H   0  0  0  0  0  0  0  0  0  0  0  0
  1  2  1  0  0  0  0
  2  3  1  0  0  0  0
  3  4  2  0  0  0  0
  4  5  1  0  0  0  0
  5  6  2  0  0  0  0
  6  7  1  0  0  0  0
  7  8  1  0  0  0  0
  8  9  2  0  0  0  0
  9 10  1  0  0  0  0
 10  3  1  0  0  0  0
  9  5  1  0  0  0  0
  1 11  1  0  0  0  0
  1 12  1  0  0  0  0
  1 13  1  0  0  0  0
  2 14  1  0  0  0  0
  2 15  1  0  0  0  0
  4 16  1  0  0  0  0
  6 17  1  0  0  0  0
  8 18  1  0  0  0  0
M  END
