
  xtb     01172215003D
 energy: -176.192651994530 gnorm: 0.000274714223 xtb: 6.4.1 (unknown)
118129  0     0  0            999 V2000
   -4.8124    1.7270    0.8883 C   0  0  0  0  0  0  0  0  0  0  0  0
   -3.7430    0.8682    0.2366 C   0  0  0  0  0  0  0  0  0  0  0  0
   -2.4791    1.4614    0.4975 O   0  0  0  0  0  0  0  0  0  0  0  0
   -1.4342    0.9418   -0.2316 C   0  0  0  0  0  0  0  0  0  0  0  0
   -1.2408    1.2661   -1.5575 C   0  0  0  0  0  0  0  0  0  0  0  0
   -0.1377    0.7349   -2.2874 C   0  0  0  0  0  0  0  0  0  0  0  0
    0.7695   -0.0794   -1.6878 C   0  0  0  0  0  0  0  0  0  0  0  0
    0.5988   -0.4326   -0.3289 C   0  0  0  0  0  0  0  0  0  0  0  0
    1.5205   -1.3028    0.3079 C   0  0  0  0  0  0  0  0  0  0  0  0
    2.6180   -1.7463   -0.3933 O   0  0  0  0  0  0  0  0  0  0  0  0
    2.5411   -3.0930   -0.8384 C   0  0  0  0  0  0  0  0  0  0  0  0
    3.9183   -3.5101   -1.3235 C   0  0  0  0  0  0  0  0  0  0  0  0
    1.3063   -1.6563    1.6232 C   0  0  0  0  0  0  0  0  0  0  0  0
    0.1745   -1.1661    2.3380 C   0  0  0  0  0  0  0  0  0  0  0  0
   -0.7038   -0.3107    1.7530 C   0  0  0  0  0  0  0  0  0  0  0  0
   -0.5126    0.0712    0.4046 C   0  0  0  0  0  0  0  0  0  0  0  0
    0.1489   -1.7197    3.7542 C   0  0  0  0  0  0  0  0  0  0  0  0
    0.0969   -0.5765    4.7453 C   0  0  0  0  0  0  0  0  0  0  0  0
   -1.1268   -0.0363    5.1209 C   0  0  0  0  0  0  0  0  0  0  0  0
   -1.1834    1.0284    5.9992 C   0  0  0  0  0  0  0  0  0  0  0  0
   -0.0235    1.5820    6.5254 C   0  0  0  0  0  0  0  0  0  0  0  0
   -0.0874    2.7635    7.4501 C   0  0  0  0  0  0  0  0  0  0  0  0
   -0.0690    4.0680    6.6508 C   0  0  0  0  0  0  0  0  0  0  0  0
    1.1969    1.0474    6.1367 C   0  0  0  0  0  0  0  0  0  0  0  0
    1.2589   -0.0156    5.2548 C   0  0  0  0  0  0  0  0  0  0  0  0
   -0.9694   -2.7217    3.9859 C   0  0  0  0  0  0  0  0  0  0  0  0
   -1.6783   -3.2872    2.9361 C   0  0  0  0  0  0  0  0  0  0  0  0
   -2.6479   -4.2432    3.1807 C   0  0  0  0  0  0  0  0  0  0  0  0
   -2.9246   -4.6674    4.4727 C   0  0  0  0  0  0  0  0  0  0  0  0
   -4.0088   -5.6726    4.7367 C   0  0  0  0  0  0  0  0  0  0  0  0
   -5.3507   -4.9676    4.9449 C   0  0  0  0  0  0  0  0  0  0  0  0
   -2.2045   -4.1055    5.5194 C   0  0  0  0  0  0  0  0  0  0  0  0
   -1.2378   -3.1482    5.2814 C   0  0  0  0  0  0  0  0  0  0  0  0
    1.4386   -2.4961    3.7758 C   0  0  0  0  0  0  0  0  0  0  0  0
    2.0517   -2.4695    2.5413 C   0  0  0  0  0  0  0  0  0  0  0  0
    3.5299   -3.3728    2.4741 S   0  0  0  0  0  0  0  0  0  0  0  0
    3.3220   -3.8097    4.1421 C   0  0  0  0  0  0  0  0  0  0  0  0
    4.0726   -4.5784    5.0525 C   0  0  0  0  0  0  0  0  0  0  0  0
    3.4792   -4.6115    6.2732 C   0  0  0  0  0  0  0  0  0  0  0  0
    1.9969   -3.7166    6.3540 S   0  0  0  0  0  0  0  0  0  0  0  0
    2.1581   -3.2692    4.6936 C   0  0  0  0  0  0  0  0  0  0  0  0
   -0.1590    1.2218   -3.7280 C   0  0  0  0  0  0  0  0  0  0  0  0
   -0.4809    0.1246   -4.7280 C   0  0  0  0  0  0  0  0  0  0  0  0
   -0.9843   -1.1062   -4.3324 C   0  0  0  0  0  0  0  0  0  0  0  0
   -1.3209   -2.0608   -5.2753 C   0  0  0  0  0  0  0  0  0  0  0  0
   -1.1735   -1.8096   -6.6323 C   0  0  0  0  0  0  0  0  0  0  0  0
   -1.5892   -2.8312   -7.6516 C   0  0  0  0  0  0  0  0  0  0  0  0
   -3.0696   -2.6647   -8.0000 C   0  0  0  0  0  0  0  0  0  0  0  0
   -0.6818   -0.5707   -7.0235 C   0  0  0  0  0  0  0  0  0  0  0  0
   -0.3398    0.3845   -6.0862 C   0  0  0  0  0  0  0  0  0  0  0  0
    1.1507    1.9121   -4.0464 C   0  0  0  0  0  0  0  0  0  0  0  0
    2.2336    1.1754   -4.5092 C   0  0  0  0  0  0  0  0  0  0  0  0
    3.4426    1.7925   -4.7669 C   0  0  0  0  0  0  0  0  0  0  0  0
    3.6051    3.1567   -4.5648 C   0  0  0  0  0  0  0  0  0  0  0  0
    4.9036    3.8346   -4.8959 C   0  0  0  0  0  0  0  0  0  0  0  0
    4.9003    4.3136   -6.3491 C   0  0  0  0  0  0  0  0  0  0  0  0
    2.5230    3.8865   -4.0925 C   0  0  0  0  0  0  0  0  0  0  0  0
    1.3124    3.2731   -3.8299 C   0  0  0  0  0  0  0  0  0  0  0  0
   -1.3447    2.1491   -3.6940 C   0  0  0  0  0  0  0  0  0  0  0  0
   -1.9551    2.1251   -2.4583 C   0  0  0  0  0  0  0  0  0  0  0  0
   -3.3479    3.1513   -2.3449 S   0  0  0  0  0  0  0  0  0  0  0  0
   -3.1161    3.6242   -3.9999 C   0  0  0  0  0  0  0  0  0  0  0  0
   -3.7909    4.5030   -4.8693 C   0  0  0  0  0  0  0  0  0  0  0  0
   -3.1961    4.5396   -6.0891 C   0  0  0  0  0  0  0  0  0  0  0  0
   -1.8067    3.5116   -6.2198 S   0  0  0  0  0  0  0  0  0  0  0  0
   -2.0105    3.0007   -4.5826 C   0  0  0  0  0  0  0  0  0  0  0  0
   -4.8042    2.7203    0.4481 H   0  0  0  0  0  0  0  0  0  0  0  0
   -5.7898    1.2765    0.7405 H   0  0  0  0  0  0  0  0  0  0  0  0
   -4.6148    1.8172    1.9529 H   0  0  0  0  0  0  0  0  0  0  0  0
   -3.7589   -0.1518    0.6521 H   0  0  0  0  0  0  0  0  0  0  0  0
   -3.9175    0.7966   -0.8453 H   0  0  0  0  0  0  0  0  0  0  0  0
    1.6229   -0.4661   -2.2225 H   0  0  0  0  0  0  0  0  0  0  0  0
    2.2089   -3.7487   -0.0225 H   0  0  0  0  0  0  0  0  0  0  0  0
    1.8048   -3.1653   -1.6544 H   0  0  0  0  0  0  0  0  0  0  0  0
    4.6283   -3.4548   -0.5029 H   0  0  0  0  0  0  0  0  0  0  0  0
    4.2488   -2.8424   -2.1144 H   0  0  0  0  0  0  0  0  0  0  0  0
    3.8850   -4.5278   -1.7020 H   0  0  0  0  0  0  0  0  0  0  0  0
   -1.5485    0.0893    2.2915 H   0  0  0  0  0  0  0  0  0  0  0  0
   -2.0414   -0.4614    4.7332 H   0  0  0  0  0  0  0  0  0  0  0  0
   -2.1441    1.4334    6.2849 H   0  0  0  0  0  0  0  0  0  0  0  0
    0.7653    2.7471    8.1321 H   0  0  0  0  0  0  0  0  0  0  0  0
   -1.0019    2.7191    8.0454 H   0  0  0  0  0  0  0  0  0  0  0  0
   -0.1178    4.9254    7.3183 H   0  0  0  0  0  0  0  0  0  0  0  0
    0.8425    4.1368    6.0614 H   0  0  0  0  0  0  0  0  0  0  0  0
   -0.9172    4.1067    5.9711 H   0  0  0  0  0  0  0  0  0  0  0  0
    2.1123    1.4661    6.5305 H   0  0  0  0  0  0  0  0  0  0  0  0
    2.2213   -0.4110    4.9639 H   0  0  0  0  0  0  0  0  0  0  0  0
   -1.4751   -2.9802    1.9204 H   0  0  0  0  0  0  0  0  0  0  0  0
   -3.1934   -4.6707    2.3508 H   0  0  0  0  0  0  0  0  0  0  0  0
   -3.7656   -6.2539    5.6284 H   0  0  0  0  0  0  0  0  0  0  0  0
   -4.0908   -6.3600    3.8922 H   0  0  0  0  0  0  0  0  0  0  0  0
   -5.2918   -4.2862    5.7907 H   0  0  0  0  0  0  0  0  0  0  0  0
   -6.1376   -5.6934    5.1369 H   0  0  0  0  0  0  0  0  0  0  0  0
   -5.6163   -4.3923    4.0607 H   0  0  0  0  0  0  0  0  0  0  0  0
   -2.3986   -4.4251    6.5333 H   0  0  0  0  0  0  0  0  0  0  0  0
   -0.6866   -2.7234    6.1079 H   0  0  0  0  0  0  0  0  0  0  0  0
    4.9957   -5.0734    4.8132 H   0  0  0  0  0  0  0  0  0  0  0  0
    3.8201   -5.1154    7.1557 H   0  0  0  0  0  0  0  0  0  0  0  0
   -1.1126   -1.3245   -3.2822 H   0  0  0  0  0  0  0  0  0  0  0  0
   -1.7052   -3.0172   -4.9490 H   0  0  0  0  0  0  0  0  0  0  0  0
   -1.4232   -3.8364   -7.2582 H   0  0  0  0  0  0  0  0  0  0  0  0
   -0.9912   -2.7155   -8.5577 H   0  0  0  0  0  0  0  0  0  0  0  0
   -3.3739   -3.4034   -8.7381 H   0  0  0  0  0  0  0  0  0  0  0  0
   -3.6832   -2.7885   -7.1104 H   0  0  0  0  0  0  0  0  0  0  0  0
   -3.2525   -1.6719   -8.4050 H   0  0  0  0  0  0  0  0  0  0  0  0
   -0.5641   -0.3507   -8.0750 H   0  0  0  0  0  0  0  0  0  0  0  0
    0.0453    1.3409   -6.4091 H   0  0  0  0  0  0  0  0  0  0  0  0
    2.1258    0.1139   -4.6798 H   0  0  0  0  0  0  0  0  0  0  0  0
    4.2744    1.2047   -5.1290 H   0  0  0  0  0  0  0  0  0  0  0  0
    5.7327    3.1397   -4.7475 H   0  0  0  0  0  0  0  0  0  0  0  0
    5.0530    4.6911   -4.2352 H   0  0  0  0  0  0  0  0  0  0  0  0
    5.8385    4.8083   -6.5902 H   0  0  0  0  0  0  0  0  0  0  0  0
    4.7675    3.4710   -7.0243 H   0  0  0  0  0  0  0  0  0  0  0  0
    4.0849    5.0145   -6.5139 H   0  0  0  0  0  0  0  0  0  0  0  0
    2.6290    4.9488   -3.9232 H   0  0  0  0  0  0  0  0  0  0  0  0
    0.4882    3.8610   -3.4529 H   0  0  0  0  0  0  0  0  0  0  0  0
   -4.6620    5.0721   -4.6019 H   0  0  0  0  0  0  0  0  0  0  0  0
   -3.4871    5.1160   -6.9446 H   0  0  0  0  0  0  0  0  0  0  0  0
  1  2  1  0  0  0  0
  2  3  1  0  0  0  0
  3  4  1  0  0  0  0
  4  5  2  0  0  0  0
  5  6  1  0  0  0  0
  6  7  2  0  0  0  0
  7  8  1  0  0  0  0
  8  9  2  0  0  0  0
  9 10  1  0  0  0  0
 10 11  1  0  0  0  0
 11 12  1  0  0  0  0
  9 13  1  0  0  0  0
 13 14  2  0  0  0  0
 14 15  1  0  0  0  0
 15 16  2  0  0  0  0
 14 17  1  0  0  0  0
 17 18  1  0  0  0  0
 18 19  2  0  0  0  0
 19 20  1  0  0  0  0
 20 21  2  0  0  0  0
 21 22  1  0  0  0  0
 22 23  1  0  0  0  0
 21 24  1  0  0  0  0
 24 25  2  0  0  0  0
 17 26  1  0  0  0  0
 26 27  2  0  0  0  0
 27 28  1  0  0  0  0
 28 29  2  0  0  0  0
 29 30  1  0  0  0  0
 30 31  1  0  0  0  0
 29 32  1  0  0  0  0
 32 33  2  0  0  0  0
 17 34  1  0  0  0  0
 34 35  2  0  0  0  0
 35 36  1  0  0  0  0
 36 37  1  0  0  0  0
 37 38  1  0  0  0  0
 38 39  2  0  0  0  0
 39 40  1  0  0  0  0
 40 41  1  0  0  0  0
  6 42  1  0  0  0  0
 42 43  1  0  0  0  0
 43 44  2  0  0  0  0
 44 45  1  0  0  0  0
 45 46  2  0  0  0  0
 46 47  1  0  0  0  0
 47 48  1  0  0  0  0
 46 49  1  0  0  0  0
 49 50  2  0  0  0  0
 42 51  1  0  0  0  0
 51 52  2  0  0  0  0
 52 53  1  0  0  0  0
 53 54  2  0  0  0  0
 54 55  1  0  0  0  0
 55 56  1  0  0  0  0
 54 57  1  0  0  0  0
 57 58  2  0  0  0  0
 42 59  1  0  0  0  0
 59 60  2  0  0  0  0
 60 61  1  0  0  0  0
 61 62  1  0  0  0  0
 62 63  1  0  0  0  0
 63 64  2  0  0  0  0
 64 65  1  0  0  0  0
 65 66  1  0  0  0  0
 16  4  1  0  0  0  0
 25 18  1  0  0  0  0
 33 26  1  0  0  0  0
 41 34  1  0  0  0  0
 50 43  1  0  0  0  0
 58 51  1  0  0  0  0
 66 59  1  0  0  0  0
 60  5  1  0  0  0  0
 66 62  2  0  0  0  0
 16  8  1  0  0  0  0
 41 37  2  0  0  0  0
 35 13  1  0  0  0  0
  1 67  1  0  0  0  0
  1 68  1  0  0  0  0
  1 69  1  0  0  0  0
  2 70  1  0  0  0  0
  2 71  1  0  0  0  0
  7 72  1  0  0  0  0
 11 73  1  0  0  0  0
 11 74  1  0  0  0  0
 12 75  1  0  0  0  0
 12 76  1  0  0  0  0
 12 77  1  0  0  0  0
 15 78  1  0  0  0  0
 19 79  1  0  0  0  0
 20 80  1  0  0  0  0
 22 81  1  0  0  0  0
 22 82  1  0  0  0  0
 23 83  1  0  0  0  0
 23 84  1  0  0  0  0
 23 85  1  0  0  0  0
 24 86  1  0  0  0  0
 25 87  1  0  0  0  0
 27 88  1  0  0  0  0
 28 89  1  0  0  0  0
 30 90  1  0  0  0  0
 30 91  1  0  0  0  0
 31 92  1  0  0  0  0
 31 93  1  0  0  0  0
 31 94  1  0  0  0  0
 32 95  1  0  0  0  0
 33 96  1  0  0  0  0
 38 97  1  0  0  0  0
 39 98  1  0  0  0  0
 44 99  1  0  0  0  0
 45100  1  0  0  0  0
 47101  1  0  0  0  0
 47102  1  0  0  0  0
 48103  1  0  0  0  0
 48104  1  0  0  0  0
 48105  1  0  0  0  0
 49106  1  0  0  0  0
 50107  1  0  0  0  0
 52108  1  0  0  0  0
 53109  1  0  0  0  0
 55110  1  0  0  0  0
 55111  1  0  0  0  0
 56112  1  0  0  0  0
 56113  1  0  0  0  0
 56114  1  0  0  0  0
 57115  1  0  0  0  0
 58116  1  0  0  0  0
 63117  1  0  0  0  0
 64118  1  0  0  0  0
M  END
