
  xtb     01172215003D
 energy: -26.485168328389 gnorm: 0.000375872062 xtb: 6.4.1 (unknown)
 21 21  0     0  0            999 V2000
    2.7593    1.6156    0.5372 C   0  0  0  0  0  0  0  0  0  0  0  0
    1.4707    0.9402    0.9989 C   0  0  0  0  0  0  0  0  0  0  0  0
    1.7578   -0.0331    2.1385 C   0  0  0  0  0  0  0  0  0  0  0  0
    0.8011    0.2188   -0.1834 C   0  0  0  0  0  0  0  0  0  0  0  0
   -0.5370   -0.3401    0.1852 C   0  0  0  0  0  0  0  0  0  0  0  0
   -0.7718   -1.7016    0.5154 C   0  0  0  0  0  0  0  0  0  0  0  0
   -2.0621   -1.9530    0.8438 C   0  0  0  0  0  0  0  0  0  0  0  0
   -3.0349   -0.5375    0.7634 S   0  0  0  0  0  0  0  0  0  0  0  0
   -1.6756    0.3978    0.2789 C   0  0  0  0  0  0  0  0  0  0  0  0
    2.5576    2.3333   -0.2550 H   0  0  0  0  0  0  0  0  0  0  0  0
    3.2306    2.1417    1.3643 H   0  0  0  0  0  0  0  0  0  0  0  0
    3.4606    0.8746    0.1588 H   0  0  0  0  0  0  0  0  0  0  0  0
    0.7803    1.7095    1.3627 H   0  0  0  0  0  0  0  0  0  0  0  0
    0.8408   -0.5081    2.4791 H   0  0  0  0  0  0  0  0  0  0  0  0
    2.2065    0.4894    2.9803 H   0  0  0  0  0  0  0  0  0  0  0  0
    2.4472   -0.8082    1.8098 H   0  0  0  0  0  0  0  0  0  0  0  0
    0.6820    0.9288   -1.0052 H   0  0  0  0  0  0  0  0  0  0  0  0
    1.4509   -0.5902   -0.5226 H   0  0  0  0  0  0  0  0  0  0  0  0
   -0.0033   -2.4540    0.5018 H   0  0  0  0  0  0  0  0  0  0  0  0
   -2.5104   -2.8838    1.1293 H   0  0  0  0  0  0  0  0  0  0  0  0
   -1.8025    1.4450    0.0873 H   0  0  0  0  0  0  0  0  0  0  0  0
  1  2  1  0  0  0  0
  2  3  1  0  0  0  0
  2  4  1  0  0  0  0
  4  5  1  0  0  0  0
  5  6  1  0  0  0  0
  6  7  2  0  0  0  0
  7  8  1  0  0  0  0
  8  9  1  0  0  0  0
  9  5  2  0  0  0  0
  1 10  1  0  0  0  0
  1 11  1  0  0  0  0
  1 12  1  0  0  0  0
  2 13  1  0  0  0  0
  3 14  1  0  0  0  0
  3 15  1  0  0  0  0
  3 16  1  0  0  0  0
  4 17  1  0  0  0  0
  4 18  1  0  0  0  0
  6 19  1  0  0  0  0
  7 20  1  0  0  0  0
  9 21  1  0  0  0  0
M  END
