
  xtb     01172215003D
 energy: -47.793779941045 gnorm: 0.000682310145 xtb: 6.4.1 (unknown)
 35 37  0     0  0            999 V2000
   -0.9615   -3.3802   -1.4558 C   0  0  0  0  0  0  0  0  0  0  0  0
   -0.4480   -3.2037   -0.0258 C   0  0  0  0  0  0  0  0  0  0  0  0
    0.8010   -2.3753    0.0000 C   0  0  0  0  0  0  0  0  0  0  0  0
    2.0237   -2.8786   -0.3506 C   0  0  0  0  0  0  0  0  0  0  0  0
    3.3095   -1.7277   -0.2883 S   0  0  0  0  0  0  0  0  0  0  0  0
    2.1944   -0.5295    0.2261 C   0  0  0  0  0  0  0  0  0  0  0  0
    0.9013   -1.0092    0.3406 C   0  0  0  0  0  0  0  0  0  0  0  0
   -0.0356    0.0988    0.7850 C   0  0  0  0  0  0  0  0  0  0  0  0
   -0.7370   -0.2087    2.1183 C   0  0  0  0  0  0  0  0  0  0  0  0
    0.2312   -0.6907    3.1920 C   0  0  0  0  0  0  0  0  0  0  0  0
   -1.0505    0.3635   -0.3476 C   0  0  0  0  0  0  0  0  0  0  0  0
   -1.9237    1.5967   -0.1562 C   0  0  0  0  0  0  0  0  0  0  0  0
    0.9417    1.2420    0.9427 C   0  0  0  0  0  0  0  0  0  0  0  0
    0.9021    2.5766    1.3801 C   0  0  0  0  0  0  0  0  0  0  0  0
    2.1332    3.1601    1.3352 C   0  0  0  0  0  0  0  0  0  0  0  0
    3.3776    2.1001    0.7717 S   0  0  0  0  0  0  0  0  0  0  0  0
    2.2204    0.8445    0.5953 C   0  0  0  0  0  0  0  0  0  0  0  0
   -0.2187   -3.8921   -2.0630 H   0  0  0  0  0  0  0  0  0  0  0  0
   -1.8773   -3.9671   -1.4597 H   0  0  0  0  0  0  0  0  0  0  0  0
   -1.1654   -2.4139   -1.9115 H   0  0  0  0  0  0  0  0  0  0  0  0
   -1.2168   -2.7284    0.5834 H   0  0  0  0  0  0  0  0  0  0  0  0
   -0.2379   -4.1871    0.4014 H   0  0  0  0  0  0  0  0  0  0  0  0
    2.2511   -3.8849   -0.6434 H   0  0  0  0  0  0  0  0  0  0  0  0
   -1.2304    0.6997    2.4673 H   0  0  0  0  0  0  0  0  0  0  0  0
   -1.5058   -0.9665    1.9550 H   0  0  0  0  0  0  0  0  0  0  0  0
   -0.2974   -0.8515    4.1288 H   0  0  0  0  0  0  0  0  0  0  0  0
    1.0127    0.0469    3.3594 H   0  0  0  0  0  0  0  0  0  0  0  0
    0.7010   -1.6258    2.8961 H   0  0  0  0  0  0  0  0  0  0  0  0
   -0.4915    0.4689   -1.2809 H   0  0  0  0  0  0  0  0  0  0  0  0
   -1.6905   -0.5160   -0.4393 H   0  0  0  0  0  0  0  0  0  0  0  0
   -2.5028    1.5329    0.7613 H   0  0  0  0  0  0  0  0  0  0  0  0
   -2.6188    1.6809   -0.9891 H   0  0  0  0  0  0  0  0  0  0  0  0
   -1.3181    2.4980   -0.1292 H   0  0  0  0  0  0  0  0  0  0  0  0
    0.0242    3.0919    1.7261 H   0  0  0  0  0  0  0  0  0  0  0  0
    2.3966    4.1638    1.6039 H   0  0  0  0  0  0  0  0  0  0  0  0
  1  2  1  0  0  0  0
  2  3  1  0  0  0  0
  3  4  2  0  0  0  0
  4  5  1  0  0  0  0
  5  6  1  0  0  0  0
  6  7  2  0  0  0  0
  7  8  1  0  0  0  0
  8  9  1  0  0  0  0
  9 10  1  0  0  0  0
  8 11  1  0  0  0  0
 11 12  1  0  0  0  0
  8 13  1  0  0  0  0
 13 14  1  0  0  0  0
 14 15  2  0  0  0  0
 15 16  1  0  0  0  0
 16 17  1  0  0  0  0
  7  3  1  0  0  0  0
 17 13  2  0  0  0  0
 17  6  1  0  0  0  0
  1 18  1  0  0  0  0
  1 19  1  0  0  0  0
  1 20  1  0  0  0  0
  2 21  1  0  0  0  0
  2 22  1  0  0  0  0
  4 23  1  0  0  0  0
  9 24  1  0  0  0  0
  9 25  1  0  0  0  0
 10 26  1  0  0  0  0
 10 27  1  0  0  0  0
 10 28  1  0  0  0  0
 11 29  1  0  0  0  0
 11 30  1  0  0  0  0
 12 31  1  0  0  0  0
 12 32  1  0  0  0  0
 12 33  1  0  0  0  0
 14 34  1  0  0  0  0
 15 35  1  0  0  0  0
M  END
