
  xtb     01172215013D
 energy: -124.701288902800 gnorm: 0.000311102740 xtb: 6.4.1 (unknown)
 77 86  0     0  0            999 V2000
   -1.3262    1.0011   -7.4540 C   0  0  0  0  0  0  0  0  0  0  0  0
   -0.2536    0.5688   -8.4556 C   0  0  0  0  0  0  0  0  0  0  0  0
   -0.1502   -0.9306   -8.5003 C   0  0  0  0  0  0  0  0  0  0  0  0
   -0.7683   -1.6338   -9.5255 C   0  0  0  0  0  0  0  0  0  0  0  0
   -0.7605   -3.0167   -9.5584 C   0  0  0  0  0  0  0  0  0  0  0  0
   -0.1380   -3.7254   -8.5462 C   0  0  0  0  0  0  0  0  0  0  0  0
    0.4780   -3.0428   -7.5146 C   0  0  0  0  0  0  0  0  0  0  0  0
    0.4860   -1.6525   -7.4873 C   0  0  0  0  0  0  0  0  0  0  0  0
    1.1394   -0.9882   -6.3484 C   0  0  0  0  0  0  0  0  0  0  0  0
    2.2106   -0.1497   -6.4115 C   0  0  0  0  0  0  0  0  0  0  0  0
    2.7312    0.4463   -4.8693 S   0  0  0  0  0  0  0  0  0  0  0  0
    1.4772   -0.4508   -4.0816 C   0  0  0  0  0  0  0  0  0  0  0  0
    0.7273   -1.1744   -5.0049 C   0  0  0  0  0  0  0  0  0  0  0  0
   -0.5516   -2.1173   -4.2819 S   0  0  0  0  0  0  0  0  0  0  0  0
   -0.0638   -1.5303   -2.7265 C   0  0  0  0  0  0  0  0  0  0  0  0
   -0.4020   -1.6935   -1.3729 C   0  0  0  0  0  0  0  0  0  0  0  0
   -1.3421   -2.5525   -0.7670 C   0  0  0  0  0  0  0  0  0  0  0  0
   -2.1830   -3.3968   -1.3444 N   0  0  0  0  0  0  0  0  0  0  0  0
   -2.9941   -4.1827   -0.1830 S   0  0  0  0  0  0  0  0  0  0  0  0
   -2.3041   -3.4745    1.1003 N   0  0  0  0  0  0  0  0  0  0  0  0
   -1.4144   -2.5965    0.6634 C   0  0  0  0  0  0  0  0  0  0  0  0
   -0.6060   -1.7153    1.4110 C   0  0  0  0  0  0  0  0  0  0  0  0
   -0.5682   -1.4735    2.7942 C   0  0  0  0  0  0  0  0  0  0  0  0
   -1.3138   -2.0456    4.2494 S   0  0  0  0  0  0  0  0  0  0  0  0
   -0.4263   -0.8387    5.1470 C   0  0  0  0  0  0  0  0  0  0  0  0
   -0.4035   -0.4840    6.5213 C   0  0  0  0  0  0  0  0  0  0  0  0
   -1.1679   -1.2057    7.5470 C   0  0  0  0  0  0  0  0  0  0  0  0
   -1.0499   -2.5946    7.5705 C   0  0  0  0  0  0  0  0  0  0  0  0
   -1.7421   -3.3518    8.4933 C   0  0  0  0  0  0  0  0  0  0  0  0
   -2.5806   -2.7253    9.3999 C   0  0  0  0  0  0  0  0  0  0  0  0
   -2.7151   -1.3509    9.3699 C   0  0  0  0  0  0  0  0  0  0  0  0
   -2.0159   -0.5694    8.4567 C   0  0  0  0  0  0  0  0  0  0  0  0
   -2.2168    0.9206    8.4847 C   0  0  0  0  0  0  0  0  0  0  0  0
   -1.5094    1.5522    9.6851 C   0  0  0  0  0  0  0  0  0  0  0  0
    0.4420    0.5648    6.7296 C   0  0  0  0  0  0  0  0  0  0  0  0
    1.2195    1.1446    5.2943 S   0  0  0  0  0  0  0  0  0  0  0  0
    0.3937   -0.0472    4.3482 C   0  0  0  0  0  0  0  0  0  0  0  0
    0.3200   -0.4203    2.9960 C   0  0  0  0  0  0  0  0  0  0  0  0
    0.8414   -0.0125    1.7987 N   0  0  0  0  0  0  0  0  0  0  0  0
    1.6737    1.1657    1.7748 C   0  0  0  0  0  0  0  0  0  0  0  0
    3.1053    0.8602    2.2174 C   0  0  0  0  0  0  0  0  0  0  0  0
    0.3030   -0.8052    0.7985 C   0  0  0  0  0  0  0  0  0  0  0  0
    0.4696   -0.8582   -0.6167 C   0  0  0  0  0  0  0  0  0  0  0  0
    1.3398   -0.2464   -1.5042 N   0  0  0  0  0  0  0  0  0  0  0  0
    2.5291    0.5489   -1.3179 C   0  0  0  0  0  0  0  0  0  0  0  0
    2.2878    2.0215   -1.6534 C   0  0  0  0  0  0  0  0  0  0  0  0
    1.0122   -0.6472   -2.7707 C   0  0  0  0  0  0  0  0  0  0  0  0
   -1.0710    0.6616   -6.4529 H   0  0  0  0  0  0  0  0  0  0  0  0
   -2.2894    0.5736   -7.7232 H   0  0  0  0  0  0  0  0  0  0  0  0
   -1.4172    2.0850   -7.4398 H   0  0  0  0  0  0  0  0  0  0  0  0
   -0.5151    0.9434   -9.4471 H   0  0  0  0  0  0  0  0  0  0  0  0
    0.7010    1.0109   -8.1688 H   0  0  0  0  0  0  0  0  0  0  0  0
   -1.2686   -1.0843  -10.3106 H   0  0  0  0  0  0  0  0  0  0  0  0
   -1.2468   -3.5392  -10.3689 H   0  0  0  0  0  0  0  0  0  0  0  0
   -0.1348   -4.8050   -8.5570 H   0  0  0  0  0  0  0  0  0  0  0  0
    0.9644   -3.5871   -6.7182 H   0  0  0  0  0  0  0  0  0  0  0  0
    2.7630    0.1482   -7.2806 H   0  0  0  0  0  0  0  0  0  0  0  0
   -0.3960   -3.0772    6.8591 H   0  0  0  0  0  0  0  0  0  0  0  0
   -1.6325   -4.4259    8.5017 H   0  0  0  0  0  0  0  0  0  0  0  0
   -3.1334   -3.3073   10.1226 H   0  0  0  0  0  0  0  0  0  0  0  0
   -3.3846   -0.8651   10.0659 H   0  0  0  0  0  0  0  0  0  0  0  0
   -3.2866    1.1321    8.5575 H   0  0  0  0  0  0  0  0  0  0  0  0
   -1.8471    1.3708    7.5627 H   0  0  0  0  0  0  0  0  0  0  0  0
   -0.4422    1.3433    9.6575 H   0  0  0  0  0  0  0  0  0  0  0  0
   -1.6524    2.6305    9.6859 H   0  0  0  0  0  0  0  0  0  0  0  0
   -1.9047    1.1499   10.6149 H   0  0  0  0  0  0  0  0  0  0  0  0
    0.6915    1.0361    7.6585 H   0  0  0  0  0  0  0  0  0  0  0  0
    1.6425    1.6168    0.7876 H   0  0  0  0  0  0  0  0  0  0  0  0
    1.2403    1.8837    2.4802 H   0  0  0  0  0  0  0  0  0  0  0  0
    3.5392    0.0495    1.6355 H   0  0  0  0  0  0  0  0  0  0  0  0
    3.1156    0.5633    3.2627 H   0  0  0  0  0  0  0  0  0  0  0  0
    3.7238    1.7464    2.1054 H   0  0  0  0  0  0  0  0  0  0  0  0
    3.2913    0.1595   -2.0023 H   0  0  0  0  0  0  0  0  0  0  0  0
    2.9010    0.4196   -0.3057 H   0  0  0  0  0  0  0  0  0  0  0  0
    3.1690    2.6066   -1.4050 H   0  0  0  0  0  0  0  0  0  0  0  0
    2.0893    2.1331   -2.7159 H   0  0  0  0  0  0  0  0  0  0  0  0
    1.4330    2.4202   -1.1106 H   0  0  0  0  0  0  0  0  0  0  0  0
  1  2  1  0  0  0  0
  2  3  1  0  0  0  0
  3  4  2  0  0  0  0
  4  5  1  0  0  0  0
  5  6  2  0  0  0  0
  6  7  1  0  0  0  0
  7  8  2  0  0  0  0
  8  9  1  0  0  0  0
  9 10  2  0  0  0  0
 10 11  1  0  0  0  0
 11 12  1  0  0  0  0
 12 13  2  0  0  0  0
 13 14  1  0  0  0  0
 14 15  1  0  0  0  0
 15 16  1  0  0  0  0
 16 17  1  0  0  0  0
 17 18  2  0  0  0  0
 18 19  1  0  0  0  0
 19 20  1  0  0  0  0
 20 21  2  0  0  0  0
 21 22  1  0  0  0  0
 22 23  1  0  0  0  0
 23 24  1  0  0  0  0
 24 25  1  0  0  0  0
 25 26  1  0  0  0  0
 26 27  1  0  0  0  0
 27 28  2  0  0  0  0
 28 29  1  0  0  0  0
 29 30  2  0  0  0  0
 30 31  1  0  0  0  0
 31 32  2  0  0  0  0
 32 33  1  0  0  0  0
 33 34  1  0  0  0  0
 26 35  2  0  0  0  0
 35 36  1  0  0  0  0
 36 37  1  0  0  0  0
 37 38  1  0  0  0  0
 38 39  1  0  0  0  0
 39 40  1  0  0  0  0
 40 41  1  0  0  0  0
 39 42  1  0  0  0  0
 42 43  1  0  0  0  0
 43 44  1  0  0  0  0
 44 45  1  0  0  0  0
 45 46  1  0  0  0  0
 44 47  1  0  0  0  0
  8  3  1  0  0  0  0
 13  9  1  0  0  0  0
 47 15  2  0  0  0  0
 47 12  1  0  0  0  0
 43 16  2  0  0  0  0
 21 17  1  0  0  0  0
 42 22  2  0  0  0  0
 38 23  2  0  0  0  0
 37 25  2  0  0  0  0
 32 27  1  0  0  0  0
  1 48  1  0  0  0  0
  1 49  1  0  0  0  0
  1 50  1  0  0  0  0
  2 51  1  0  0  0  0
  2 52  1  0  0  0  0
  4 53  1  0  0  0  0
  5 54  1  0  0  0  0
  6 55  1  0  0  0  0
  7 56  1  0  0  0  0
 10 57  1  0  0  0  0
 28 58  1  0  0  0  0
 29 59  1  0  0  0  0
 30 60  1  0  0  0  0
 31 61  1  0  0  0  0
 33 62  1  0  0  0  0
 33 63  1  0  0  0  0
 34 64  1  0  0  0  0
 34 65  1  0  0  0  0
 34 66  1  0  0  0  0
 35 67  1  0  0  0  0
 40 68  1  0  0  0  0
 40 69  1  0  0  0  0
 41 70  1  0  0  0  0
 41 71  1  0  0  0  0
 41 72  1  0  0  0  0
 45 73  1  0  0  0  0
 45 74  1  0  0  0  0
 46 75  1  0  0  0  0
 46 76  1  0  0  0  0
 46 77  1  0  0  0  0
M  END
