
  xtb     01172215013D
 energy: -16.988244569868 gnorm: 0.000793226023 xtb: 6.4.1 (unknown)
 12 12  0     0  0            999 V2000
   -0.5927   -0.9473    1.4166 C   0  0  0  0  0  0  0  0  0  0  0  0
    0.8656   -0.7550    1.2001 C   0  0  0  0  0  0  0  0  0  0  0  0
    1.6386   -1.2048    0.1776 C   0  0  0  0  0  0  0  0  0  0  0  0
    2.9972   -0.8262    0.2929 C   0  0  0  0  0  0  0  0  0  0  0  0
    3.2395   -0.0910    1.4042 C   0  0  0  0  0  0  0  0  0  0  0  0
    1.8130    0.1550    2.3360 S   0  0  0  0  0  0  0  0  0  0  0  0
   -1.1177    0.0075    1.3717 H   0  0  0  0  0  0  0  0  0  0  0  0
   -0.9979   -1.6051    0.6509 H   0  0  0  0  0  0  0  0  0  0  0  0
   -0.7830   -1.3865    2.3960 H   0  0  0  0  0  0  0  0  0  0  0  0
    1.2552   -1.7921   -0.6383 H   0  0  0  0  0  0  0  0  0  0  0  0
    3.7530   -1.0938   -0.4240 H   0  0  0  0  0  0  0  0  0  0  0  0
    4.1655    0.3268    1.7450 H   0  0  0  0  0  0  0  0  0  0  0  0
  1  2  1  0  0  0  0
  2  3  2  0  0  0  0
  3  4  1  0  0  0  0
  4  5  2  0  0  0  0
  5  6  1  0  0  0  0
  6  2  1  0  0  0  0
  1  7  1  0  0  0  0
  1  8  1  0  0  0  0
  1  9  1  0  0  0  0
  3 10  1  0  0  0  0
  4 11  1  0  0  0  0
  5 12  1  0  0  0  0
M  END
