
  xtb     01172215013D
 energy: -16.150108060801 gnorm: 0.000743532792 xtb: 6.4.1 (unknown)
 11 11  0     0  0            999 V2000
    2.1622   -1.3660    1.7789 C   0  0  0  0  0  0  0  0  0  0  0  0
    0.7985   -1.5643    1.6306 C   0  0  0  0  0  0  0  0  0  0  0  0
    0.2053   -1.1765    0.4385 C   0  0  0  0  0  0  0  0  0  0  0  0
    0.8728   -0.6283   -0.5622 N   0  0  0  0  0  0  0  0  0  0  0  0
    2.1731   -0.4421   -0.4138 C   0  0  0  0  0  0  0  0  0  0  0  0
    2.8686   -0.7916    0.7339 C   0  0  0  0  0  0  0  0  0  0  0  0
    2.6648   -1.6536    2.6915 H   0  0  0  0  0  0  0  0  0  0  0  0
    0.2104   -2.0082    2.4189 H   0  0  0  0  0  0  0  0  0  0  0  0
   -0.8563   -1.3097    0.2726 H   0  0  0  0  0  0  0  0  0  0  0  0
    2.6782    0.0095   -1.2584 H   0  0  0  0  0  0  0  0  0  0  0  0
    3.9313   -0.6193    0.8072 H   0  0  0  0  0  0  0  0  0  0  0  0
  1  2  2  0  0  0  0
  2  3  1  0  0  0  0
  3  4  2  0  0  0  0
  4  5  1  0  0  0  0
  5  6  2  0  0  0  0
  6  1  1  0  0  0  0
  1  7  1  0  0  0  0
  2  8  1  0  0  0  0
  3  9  1  0  0  0  0
  5 10  1  0  0  0  0
  6 11  1  0  0  0  0
M  END
