
  xtb     01172215013D
 energy: -73.302995173663 gnorm: 0.000589059922 xtb: 6.4.1 (unknown)
 52 56  0     0  0            999 V2000
   -2.8089   -4.1684    4.5838 C   0  0  0  0  0  0  0  0  0  0  0  0
   -1.2932   -3.9736    4.5114 C   0  0  0  0  0  0  0  0  0  0  0  0
   -0.9242   -3.2050    3.2751 C   0  0  0  0  0  0  0  0  0  0  0  0
   -0.8522   -1.8184    3.2927 C   0  0  0  0  0  0  0  0  0  0  0  0
   -0.5526   -1.1079    2.1458 C   0  0  0  0  0  0  0  0  0  0  0  0
   -0.3125   -1.7688    0.9476 C   0  0  0  0  0  0  0  0  0  0  0  0
   -0.0321   -0.9815   -0.3164 C   0  0  0  0  0  0  0  0  0  0  0  0
    0.8274    0.2396   -0.0544 C   0  0  0  0  0  0  0  0  0  0  0  0
    1.9409    0.1256    0.7700 C   0  0  0  0  0  0  0  0  0  0  0  0
    2.7788    1.2045    0.9740 C   0  0  0  0  0  0  0  0  0  0  0  0
    2.5354    2.4235    0.3539 C   0  0  0  0  0  0  0  0  0  0  0  0
    3.4258    3.6063    0.6073 C   0  0  0  0  0  0  0  0  0  0  0  0
    2.9324    4.4015    1.8177 C   0  0  0  0  0  0  0  0  0  0  0  0
    1.4265    2.5306   -0.4737 C   0  0  0  0  0  0  0  0  0  0  0  0
    0.5845    1.4529   -0.6818 C   0  0  0  0  0  0  0  0  0  0  0  0
   -1.3626   -0.6679   -0.9863 C   0  0  0  0  0  0  0  0  0  0  0  0
   -2.4398    0.0250   -0.4817 C   0  0  0  0  0  0  0  0  0  0  0  0
   -3.5679    0.1809   -1.2785 C   0  0  0  0  0  0  0  0  0  0  0  0
   -3.6176   -0.3542   -2.5563 C   0  0  0  0  0  0  0  0  0  0  0  0
   -2.5447   -1.0631   -3.0726 C   0  0  0  0  0  0  0  0  0  0  0  0
   -1.4192   -1.2191   -2.2817 C   0  0  0  0  0  0  0  0  0  0  0  0
   -0.1660   -1.8875   -2.5040 C   0  0  0  0  0  0  0  0  0  0  0  0
    0.5789   -2.7713   -3.7775 S   0  0  0  0  0  0  0  0  0  0  0  0
    1.9874   -2.9943   -2.8000 C   0  0  0  0  0  0  0  0  0  0  0  0
    1.8888   -2.4211   -1.5683 C   0  0  0  0  0  0  0  0  0  0  0  0
    0.6456   -1.7879   -1.3968 C   0  0  0  0  0  0  0  0  0  0  0  0
   -0.3980   -3.1540    0.9227 C   0  0  0  0  0  0  0  0  0  0  0  0
   -0.6970   -3.8604    2.0727 C   0  0  0  0  0  0  0  0  0  0  0  0
   -3.0802   -4.7310    5.4741 H   0  0  0  0  0  0  0  0  0  0  0  0
   -3.3121   -3.2045    4.6142 H   0  0  0  0  0  0  0  0  0  0  0  0
   -3.1619   -4.7095    3.7088 H   0  0  0  0  0  0  0  0  0  0  0  0
   -0.9564   -3.4335    5.3987 H   0  0  0  0  0  0  0  0  0  0  0  0
   -0.8051   -4.9504    4.5000 H   0  0  0  0  0  0  0  0  0  0  0  0
   -1.0296   -1.2871    4.2173 H   0  0  0  0  0  0  0  0  0  0  0  0
   -0.4918   -0.0296    2.1846 H   0  0  0  0  0  0  0  0  0  0  0  0
    2.1474   -0.8150    1.2606 H   0  0  0  0  0  0  0  0  0  0  0  0
    3.6392    1.0973    1.6197 H   0  0  0  0  0  0  0  0  0  0  0  0
    3.4355    4.2562   -0.2701 H   0  0  0  0  0  0  0  0  0  0  0  0
    4.4470    3.2669    0.7925 H   0  0  0  0  0  0  0  0  0  0  0  0
    1.9188    4.7579    1.6480 H   0  0  0  0  0  0  0  0  0  0  0  0
    2.9299    3.7745    2.7066 H   0  0  0  0  0  0  0  0  0  0  0  0
    3.5767    5.2589    1.9989 H   0  0  0  0  0  0  0  0  0  0  0  0
    1.2203    3.4688   -0.9694 H   0  0  0  0  0  0  0  0  0  0  0  0
   -0.2666    1.5594   -1.3384 H   0  0  0  0  0  0  0  0  0  0  0  0
   -2.4094    0.4439    0.5132 H   0  0  0  0  0  0  0  0  0  0  0  0
   -4.4174    0.7271   -0.8958 H   0  0  0  0  0  0  0  0  0  0  0  0
   -4.5054   -0.2187   -3.1566 H   0  0  0  0  0  0  0  0  0  0  0  0
   -2.5805   -1.4860   -4.0656 H   0  0  0  0  0  0  0  0  0  0  0  0
    2.8123   -3.5451   -3.2072 H   0  0  0  0  0  0  0  0  0  0  0  0
    2.6684   -2.4574   -0.8292 H   0  0  0  0  0  0  0  0  0  0  0  0
   -0.2267   -3.6870   -0.0012 H   0  0  0  0  0  0  0  0  0  0  0  0
   -0.7524   -4.9394    2.0354 H   0  0  0  0  0  0  0  0  0  0  0  0
  1  2  1  0  0  0  0
  2  3  1  0  0  0  0
  3  4  2  0  0  0  0
  4  5  1  0  0  0  0
  5  6  2  0  0  0  0
  6  7  1  0  0  0  0
  7  8  1  0  0  0  0
  8  9  2  0  0  0  0
  9 10  1  0  0  0  0
 10 11  2  0  0  0  0
 11 12  1  0  0  0  0
 12 13  1  0  0  0  0
 11 14  1  0  0  0  0
 14 15  2  0  0  0  0
  7 16  1  0  0  0  0
 16 17  2  0  0  0  0
 17 18  1  0  0  0  0
 18 19  2  0  0  0  0
 19 20  1  0  0  0  0
 20 21  2  0  0  0  0
 21 22  1  0  0  0  0
 22 23  1  0  0  0  0
 23 24  1  0  0  0  0
 24 25  2  0  0  0  0
 25 26  1  0  0  0  0
  6 27  1  0  0  0  0
 27 28  2  0  0  0  0
 28  3  1  0  0  0  0
 26  7  1  0  0  0  0
 15  8  1  0  0  0  0
 21 16  1  0  0  0  0
 26 22  2  0  0  0  0
  1 29  1  0  0  0  0
  1 30  1  0  0  0  0
  1 31  1  0  0  0  0
  2 32  1  0  0  0  0
  2 33  1  0  0  0  0
  4 34  1  0  0  0  0
  5 35  1  0  0  0  0
  9 36  1  0  0  0  0
 10 37  1  0  0  0  0
 12 38  1  0  0  0  0
 12 39  1  0  0  0  0
 13 40  1  0  0  0  0
 13 41  1  0  0  0  0
 13 42  1  0  0  0  0
 14 43  1  0  0  0  0
 15 44  1  0  0  0  0
 17 45  1  0  0  0  0
 18 46  1  0  0  0  0
 19 47  1  0  0  0  0
 20 48  1  0  0  0  0
 24 49  1  0  0  0  0
 25 50  1  0  0  0  0
 27 51  1  0  0  0  0
 28 52  1  0  0  0  0
M  END
