
  xtb     01172215013D
 energy: -37.087826374657 gnorm: 0.000258085012 xtb: 6.4.1 (unknown)
 22 23  0     0  0            999 V2000
    0.9982    0.4586    4.2420 C   0  0  0  0  0  0  0  0  0  0  0  0
    1.9526    0.0826    3.1140 C   0  0  0  0  0  0  0  0  0  0  0  0
    1.2607    0.0299    1.8437 N   0  0  0  0  0  0  0  0  0  0  0  0
    0.6341   -1.1106    1.3628 C   0  0  0  0  0  0  0  0  0  0  0  0
    0.6346   -2.1833    1.9112 O   0  0  0  0  0  0  0  0  0  0  0  0
    0.0105   -0.7049    0.0785 C   0  0  0  0  0  0  0  0  0  0  0  0
   -0.7363   -1.4277   -0.8277 C   0  0  0  0  0  0  0  0  0  0  0  0
   -1.2003   -0.7622   -1.9586 C   0  0  0  0  0  0  0  0  0  0  0  0
   -0.9189    0.5789   -2.1675 C   0  0  0  0  0  0  0  0  0  0  0  0
   -0.1625    1.3068   -1.2536 C   0  0  0  0  0  0  0  0  0  0  0  0
    0.2943    0.6473   -0.1321 C   0  0  0  0  0  0  0  0  0  0  0  0
    1.1044    1.1306    1.0137 C   0  0  0  0  0  0  0  0  0  0  0  0
    1.5598    2.2258    1.2244 O   0  0  0  0  0  0  0  0  0  0  0  0
    1.5362    0.4926    5.1850 H   0  0  0  0  0  0  0  0  0  0  0  0
    0.2011   -0.2774    4.3195 H   0  0  0  0  0  0  0  0  0  0  0  0
    0.5607    1.4363    4.0525 H   0  0  0  0  0  0  0  0  0  0  0  0
    2.7477    0.8265    3.0231 H   0  0  0  0  0  0  0  0  0  0  0  0
    2.3843   -0.9050    3.2928 H   0  0  0  0  0  0  0  0  0  0  0  0
   -0.9509   -2.4713   -0.6586 H   0  0  0  0  0  0  0  0  0  0  0  0
   -1.7909   -1.3000   -2.6850 H   0  0  0  0  0  0  0  0  0  0  0  0
   -1.2940    1.0681   -3.0539 H   0  0  0  0  0  0  0  0  0  0  0  0
    0.0610    2.3506   -1.4097 H   0  0  0  0  0  0  0  0  0  0  0  0
  1  2  1  0  0  0  0
  2  3  1  0  0  0  0
  3  4  1  0  0  0  0
  4  5  2  0  0  0  0
  4  6  1  0  0  0  0
  6  7  2  0  0  0  0
  7  8  1  0  0  0  0
  8  9  2  0  0  0  0
  9 10  1  0  0  0  0
 10 11  2  0  0  0  0
 11 12  1  0  0  0  0
 12 13  2  0  0  0  0
 12  3  1  0  0  0  0
 11  6  1  0  0  0  0
  1 14  1  0  0  0  0
  1 15  1  0  0  0  0
  1 16  1  0  0  0  0
  2 17  1  0  0  0  0
  2 18  1  0  0  0  0
  7 19  1  0  0  0  0
  8 20  1  0  0  0  0
  9 21  1  0  0  0  0
 10 22  1  0  0  0  0
M  END
