
  xtb     01172215013D
 energy: -190.200567893351 gnorm: 0.000352269755 xtb: 6.4.1 (unknown)
122134  0     0  0            999 V2000
    7.4200    0.2626    0.1807 C   0  0  0  0  0  0  0  0  0  0  0  0
    7.6393    0.0237   -1.3105 C   0  0  0  0  0  0  0  0  0  0  0  0
    6.8848   -1.0646   -1.8030 O   0  0  0  0  0  0  0  0  0  0  0  0
    5.5421   -0.9311   -1.9850 C   0  0  0  0  0  0  0  0  0  0  0  0
    4.8198    0.2546   -1.9024 C   0  0  0  0  0  0  0  0  0  0  0  0
    3.4565    0.2552   -2.1355 C   0  0  0  0  0  0  0  0  0  0  0  0
    2.7696   -0.9093   -2.4541 C   0  0  0  0  0  0  0  0  0  0  0  0
    1.2660   -0.8783   -2.6686 C   0  0  0  0  0  0  0  0  0  0  0  0
    0.8217    0.0947   -3.7446 C   0  0  0  0  0  0  0  0  0  0  0  0
    1.7001    0.7341   -4.6108 C   0  0  0  0  0  0  0  0  0  0  0  0
    1.2316    1.5961   -5.5803 C   0  0  0  0  0  0  0  0  0  0  0  0
   -0.1335    1.8447   -5.7205 C   0  0  0  0  0  0  0  0  0  0  0  0
   -0.4733    2.6974   -6.7263 O   0  0  0  0  0  0  0  0  0  0  0  0
   -1.8112    3.1316   -6.8592 C   0  0  0  0  0  0  0  0  0  0  0  0
   -2.2010    4.1656   -5.8068 C   0  0  0  0  0  0  0  0  0  0  0  0
   -1.0185    1.1977   -4.8638 C   0  0  0  0  0  0  0  0  0  0  0  0
   -0.5377    0.3360   -3.8949 C   0  0  0  0  0  0  0  0  0  0  0  0
    0.5924   -0.5550   -1.3347 C   0  0  0  0  0  0  0  0  0  0  0  0
    0.5780    0.6323   -0.6407 C   0  0  0  0  0  0  0  0  0  0  0  0
   -0.1278    0.6643    0.5581 C   0  0  0  0  0  0  0  0  0  0  0  0
   -0.7871   -0.4723    1.0727 C   0  0  0  0  0  0  0  0  0  0  0  0
   -0.8214   -1.6420    0.3503 C   0  0  0  0  0  0  0  0  0  0  0  0
   -0.1361   -1.6665   -0.8605 C   0  0  0  0  0  0  0  0  0  0  0  0
   -0.0560   -2.6801   -1.8665 C   0  0  0  0  0  0  0  0  0  0  0  0
   -0.7509   -4.2615   -2.0397 S   0  0  0  0  0  0  0  0  0  0  0  0
   -0.0076   -4.3777   -3.6009 C   0  0  0  0  0  0  0  0  0  0  0  0
    0.1119   -5.2738   -4.6675 C   0  0  0  0  0  0  0  0  0  0  0  0
   -0.3831   -6.8452   -5.1841 S   0  0  0  0  0  0  0  0  0  0  0  0
    0.4967   -6.6368   -6.6669 C   0  0  0  0  0  0  0  0  0  0  0  0
    1.1357   -5.4422   -6.7751 C   0  0  0  0  0  0  0  0  0  0  0  0
    0.9209   -4.6484   -5.6301 C   0  0  0  0  0  0  0  0  0  0  0  0
    1.3125   -3.4142   -5.1810 N   0  0  0  0  0  0  0  0  0  0  0  0
    2.0437   -2.4428   -5.9503 C   0  0  0  0  0  0  0  0  0  0  0  0
    1.1328   -1.7140   -6.9361 C   0  0  0  0  0  0  0  0  0  0  0  0
    0.7372   -3.2280   -3.9506 C   0  0  0  0  0  0  0  0  0  0  0  0
    0.7040   -2.2569   -2.9384 C   0  0  0  0  0  0  0  0  0  0  0  0
   -1.4481   -0.1536    2.4138 C   0  0  0  0  0  0  0  0  0  0  0  0
   -0.7118   -0.9112    3.5061 C   0  0  0  0  0  0  0  0  0  0  0  0
   -0.7475   -2.2993    3.5414 C   0  0  0  0  0  0  0  0  0  0  0  0
   -0.0640   -3.0205    4.5035 C   0  0  0  0  0  0  0  0  0  0  0  0
    0.6843   -2.3592    5.4716 C   0  0  0  0  0  0  0  0  0  0  0  0
    1.3817   -2.9463    6.4829 O   0  0  0  0  0  0  0  0  0  0  0  0
    1.5361   -4.3506    6.5085 C   0  0  0  0  0  0  0  0  0  0  0  0
    2.5461   -4.8494    5.4790 C   0  0  0  0  0  0  0  0  0  0  0  0
    0.7209   -0.9656    5.4441 C   0  0  0  0  0  0  0  0  0  0  0  0
    0.0390   -0.2575    4.4770 C   0  0  0  0  0  0  0  0  0  0  0  0
   -2.9354   -0.4473    2.3643 C   0  0  0  0  0  0  0  0  0  0  0  0
   -3.6063   -1.1775    3.3377 C   0  0  0  0  0  0  0  0  0  0  0  0
   -4.9661   -1.3893    3.2471 C   0  0  0  0  0  0  0  0  0  0  0  0
   -5.7037   -0.8714    2.1828 C   0  0  0  0  0  0  0  0  0  0  0  0
   -7.0339   -1.1611    2.1977 O   0  0  0  0  0  0  0  0  0  0  0  0
   -7.8896   -0.5927    1.2281 C   0  0  0  0  0  0  0  0  0  0  0  0
   -8.2072    0.8727    1.5136 C   0  0  0  0  0  0  0  0  0  0  0  0
   -5.0380   -0.1342    1.2085 C   0  0  0  0  0  0  0  0  0  0  0  0
   -3.6734    0.0676    1.3067 C   0  0  0  0  0  0  0  0  0  0  0  0
   -1.2042    1.3371    2.4974 C   0  0  0  0  0  0  0  0  0  0  0  0
   -0.4114    1.7499    1.4454 C   0  0  0  0  0  0  0  0  0  0  0  0
   -0.0419    3.4462    1.4284 S   0  0  0  0  0  0  0  0  0  0  0  0
   -0.9804    3.6288    2.8739 C   0  0  0  0  0  0  0  0  0  0  0  0
   -1.3775    4.6200    3.7766 C   0  0  0  0  0  0  0  0  0  0  0  0
   -1.2298    6.3117    4.0889 S   0  0  0  0  0  0  0  0  0  0  0  0
   -2.2230    6.1393    5.5031 C   0  0  0  0  0  0  0  0  0  0  0  0
   -2.6487    4.8698    5.7362 C   0  0  0  0  0  0  0  0  0  0  0  0
   -2.1688    3.9861    4.7483 C   0  0  0  0  0  0  0  0  0  0  0  0
   -2.2508    2.6441    4.4816 N   0  0  0  0  0  0  0  0  0  0  0  0
   -3.0871    1.7075    5.1843 C   0  0  0  0  0  0  0  0  0  0  0  0
   -4.5436    1.8204    4.7379 C   0  0  0  0  0  0  0  0  0  0  0  0
   -1.5453    2.4152    3.3284 C   0  0  0  0  0  0  0  0  0  0  0  0
    3.4985   -2.0909   -2.5327 C   0  0  0  0  0  0  0  0  0  0  0  0
    4.8588   -2.1030   -2.3076 C   0  0  0  0  0  0  0  0  0  0  0  0
    8.0534    1.0780    0.5192 H   0  0  0  0  0  0  0  0  0  0  0  0
    6.3816    0.5123    0.3847 H   0  0  0  0  0  0  0  0  0  0  0  0
    7.6716   -0.6362    0.7380 H   0  0  0  0  0  0  0  0  0  0  0  0
    8.6784   -0.2656   -1.4917 H   0  0  0  0  0  0  0  0  0  0  0  0
    7.4314    0.9342   -1.8864 H   0  0  0  0  0  0  0  0  0  0  0  0
    5.3011    1.1894   -1.6608 H   0  0  0  0  0  0  0  0  0  0  0  0
    2.9257    1.1921   -2.0734 H   0  0  0  0  0  0  0  0  0  0  0  0
    2.7641    0.5676   -4.5317 H   0  0  0  0  0  0  0  0  0  0  0  0
    1.9130    2.0949   -6.2514 H   0  0  0  0  0  0  0  0  0  0  0  0
   -1.8497    3.5827   -7.8548 H   0  0  0  0  0  0  0  0  0  0  0  0
   -2.5005    2.2781   -6.8427 H   0  0  0  0  0  0  0  0  0  0  0  0
   -1.5292    5.0185   -5.8628 H   0  0  0  0  0  0  0  0  0  0  0  0
   -2.1371    3.7445   -4.8064 H   0  0  0  0  0  0  0  0  0  0  0  0
   -3.2181    4.5044   -5.9841 H   0  0  0  0  0  0  0  0  0  0  0  0
   -2.0840    1.3491   -4.9384 H   0  0  0  0  0  0  0  0  0  0  0  0
   -1.2388   -0.1586   -3.2378 H   0  0  0  0  0  0  0  0  0  0  0  0
    1.0561    1.5272   -1.0068 H   0  0  0  0  0  0  0  0  0  0  0  0
   -1.3804   -2.5077    0.6687 H   0  0  0  0  0  0  0  0  0  0  0  0
    0.4807   -7.4362   -7.3805 H   0  0  0  0  0  0  0  0  0  0  0  0
    1.7241   -5.1548   -7.6276 H   0  0  0  0  0  0  0  0  0  0  0  0
    2.4957   -1.7311   -5.2573 H   0  0  0  0  0  0  0  0  0  0  0  0
    2.8418   -2.9621   -6.4901 H   0  0  0  0  0  0  0  0  0  0  0  0
    0.6922   -2.4201   -7.6363 H   0  0  0  0  0  0  0  0  0  0  0  0
    1.7002   -0.9730   -7.4917 H   0  0  0  0  0  0  0  0  0  0  0  0
    0.3333   -1.2069   -6.4014 H   0  0  0  0  0  0  0  0  0  0  0  0
   -1.3263   -2.8407    2.8100 H   0  0  0  0  0  0  0  0  0  0  0  0
   -0.1300   -4.0970    4.4831 H   0  0  0  0  0  0  0  0  0  0  0  0
    0.5682   -4.8511    6.3801 H   0  0  0  0  0  0  0  0  0  0  0  0
    1.8993   -4.5628    7.5181 H   0  0  0  0  0  0  0  0  0  0  0  0
    3.5075   -4.3697    5.6449 H   0  0  0  0  0  0  0  0  0  0  0  0
    2.6664   -5.9251    5.5741 H   0  0  0  0  0  0  0  0  0  0  0  0
    2.2177   -4.6175    4.4688 H   0  0  0  0  0  0  0  0  0  0  0  0
    1.2992   -0.4538    6.1971 H   0  0  0  0  0  0  0  0  0  0  0  0
    0.1030    0.8196    4.4843 H   0  0  0  0  0  0  0  0  0  0  0  0
   -3.0688   -1.5909    4.1781 H   0  0  0  0  0  0  0  0  0  0  0  0
   -5.4870   -1.9615    3.9986 H   0  0  0  0  0  0  0  0  0  0  0  0
   -8.8042   -1.1890    1.2922 H   0  0  0  0  0  0  0  0  0  0  0  0
   -7.4712   -0.7133    0.2213 H   0  0  0  0  0  0  0  0  0  0  0  0
   -7.3057    1.4798    1.4808 H   0  0  0  0  0  0  0  0  0  0  0  0
   -8.9119    1.2460    0.7757 H   0  0  0  0  0  0  0  0  0  0  0  0
   -8.6477    0.9670    2.5030 H   0  0  0  0  0  0  0  0  0  0  0  0
   -5.5631    0.2850    0.3645 H   0  0  0  0  0  0  0  0  0  0  0  0
   -3.1710    0.6415    0.5410 H   0  0  0  0  0  0  0  0  0  0  0  0
   -2.4316    7.0155    6.0839 H   0  0  0  0  0  0  0  0  0  0  0  0
   -3.2694    4.5917    6.5687 H   0  0  0  0  0  0  0  0  0  0  0  0
   -3.0061    1.9113    6.2566 H   0  0  0  0  0  0  0  0  0  0  0  0
   -2.7105    0.7019    4.9893 H   0  0  0  0  0  0  0  0  0  0  0  0
   -4.9265    2.8171    4.9460 H   0  0  0  0  0  0  0  0  0  0  0  0
   -4.6214    1.6315    3.6700 H   0  0  0  0  0  0  0  0  0  0  0  0
   -5.1530    1.0905    5.2627 H   0  0  0  0  0  0  0  0  0  0  0  0
    3.0057   -3.0216   -2.7675 H   0  0  0  0  0  0  0  0  0  0  0  0
    5.4204   -3.0214   -2.3739 H   0  0  0  0  0  0  0  0  0  0  0  0
  1  2  1  0  0  0  0
  2  3  1  0  0  0  0
  3  4  1  0  0  0  0
  4  5  2  0  0  0  0
  5  6  1  0  0  0  0
  6  7  2  0  0  0  0
  7  8  1  0  0  0  0
  8  9  1  0  0  0  0
  9 10  2  0  0  0  0
 10 11  1  0  0  0  0
 11 12  2  0  0  0  0
 12 13  1  0  0  0  0
 13 14  1  0  0  0  0
 14 15  1  0  0  0  0
 12 16  1  0  0  0  0
 16 17  2  0  0  0  0
  8 18  1  0  0  0  0
 18 19  2  0  0  0  0
 19 20  1  0  0  0  0
 20 21  2  0  0  0  0
 21 22  1  0  0  0  0
 22 23  2  0  0  0  0
 23 24  1  0  0  0  0
 24 25  1  0  0  0  0
 25 26  1  0  0  0  0
 26 27  1  0  0  0  0
 27 28  1  0  0  0  0
 28 29  1  0  0  0  0
 29 30  2  0  0  0  0
 30 31  1  0  0  0  0
 31 32  1  0  0  0  0
 32 33  1  0  0  0  0
 33 34  1  0  0  0  0
 32 35  1  0  0  0  0
 35 36  1  0  0  0  0
 21 37  1  0  0  0  0
 37 38  1  0  0  0  0
 38 39  2  0  0  0  0
 39 40  1  0  0  0  0
 40 41  2  0  0  0  0
 41 42  1  0  0  0  0
 42 43  1  0  0  0  0
 43 44  1  0  0  0  0
 41 45  1  0  0  0  0
 45 46  2  0  0  0  0
 37 47  1  0  0  0  0
 47 48  2  0  0  0  0
 48 49  1  0  0  0  0
 49 50  2  0  0  0  0
 50 51  1  0  0  0  0
 51 52  1  0  0  0  0
 52 53  1  0  0  0  0
 50 54  1  0  0  0  0
 54 55  2  0  0  0  0
 37 56  1  0  0  0  0
 56 57  2  0  0  0  0
 57 58  1  0  0  0  0
 58 59  1  0  0  0  0
 59 60  1  0  0  0  0
 60 61  1  0  0  0  0
 61 62  1  0  0  0  0
 62 63  2  0  0  0  0
 63 64  1  0  0  0  0
 64 65  1  0  0  0  0
 65 66  1  0  0  0  0
 66 67  1  0  0  0  0
 65 68  1  0  0  0  0
  7 69  1  0  0  0  0
 69 70  2  0  0  0  0
 70  4  1  0  0  0  0
 36  8  1  0  0  0  0
 46 38  1  0  0  0  0
 55 47  1  0  0  0  0
 68 56  1  0  0  0  0
 17  9  1  0  0  0  0
 23 18  1  0  0  0  0
 36 24  2  0  0  0  0
 68 59  2  0  0  0  0
 57 20  1  0  0  0  0
 64 60  2  0  0  0  0
 35 26  2  0  0  0  0
 31 27  2  0  0  0  0
  1 71  1  0  0  0  0
  1 72  1  0  0  0  0
  1 73  1  0  0  0  0
  2 74  1  0  0  0  0
  2 75  1  0  0  0  0
  5 76  1  0  0  0  0
  6 77  1  0  0  0  0
 10 78  1  0  0  0  0
 11 79  1  0  0  0  0
 14 80  1  0  0  0  0
 14 81  1  0  0  0  0
 15 82  1  0  0  0  0
 15 83  1  0  0  0  0
 15 84  1  0  0  0  0
 16 85  1  0  0  0  0
 17 86  1  0  0  0  0
 19 87  1  0  0  0  0
 22 88  1  0  0  0  0
 29 89  1  0  0  0  0
 30 90  1  0  0  0  0
 33 91  1  0  0  0  0
 33 92  1  0  0  0  0
 34 93  1  0  0  0  0
 34 94  1  0  0  0  0
 34 95  1  0  0  0  0
 39 96  1  0  0  0  0
 40 97  1  0  0  0  0
 43 98  1  0  0  0  0
 43 99  1  0  0  0  0
 44100  1  0  0  0  0
 44101  1  0  0  0  0
 44102  1  0  0  0  0
 45103  1  0  0  0  0
 46104  1  0  0  0  0
 48105  1  0  0  0  0
 49106  1  0  0  0  0
 52107  1  0  0  0  0
 52108  1  0  0  0  0
 53109  1  0  0  0  0
 53110  1  0  0  0  0
 53111  1  0  0  0  0
 54112  1  0  0  0  0
 55113  1  0  0  0  0
 62114  1  0  0  0  0
 63115  1  0  0  0  0
 66116  1  0  0  0  0
 66117  1  0  0  0  0
 67118  1  0  0  0  0
 67119  1  0  0  0  0
 67120  1  0  0  0  0
 69121  1  0  0  0  0
 70122  1  0  0  0  0
M  END
