
  xtb     01172215013D
 energy: -44.876487701560 gnorm: 0.000562786592 xtb: 6.4.1 (unknown)
 23 24  0     0  0            999 V2000
   -1.3044   -2.8937    1.7093 C   0  0  0  0  0  0  0  0  0  0  0  0
   -1.1253   -1.8534    2.8059 C   0  0  0  0  0  0  0  0  0  0  0  0
    0.2357   -1.4453    2.9345 O   0  0  0  0  0  0  0  0  0  0  0  0
    0.7006   -0.5773    2.0432 C   0  0  0  0  0  0  0  0  0  0  0  0
    2.0709   -0.1835    2.1636 C   0  0  0  0  0  0  0  0  0  0  0  0
    2.6128    0.6670    1.3508 N   0  0  0  0  0  0  0  0  0  0  0  0
    1.8361    1.1877    0.3693 C   0  0  0  0  0  0  0  0  0  0  0  0
    2.3852    2.1156   -0.5318 C   0  0  0  0  0  0  0  0  0  0  0  0
    1.5939    2.6372   -1.5174 C   0  0  0  0  0  0  0  0  0  0  0  0
    2.0994    3.5255   -2.3875 F   0  0  0  0  0  0  0  0  0  0  0  0
    0.2427    2.2557   -1.6379 C   0  0  0  0  0  0  0  0  0  0  0  0
   -0.4996    2.7922   -2.6177 F   0  0  0  0  0  0  0  0  0  0  0  0
   -0.3165    1.3531   -0.7760 C   0  0  0  0  0  0  0  0  0  0  0  0
    0.4746    0.8011    0.2471 C   0  0  0  0  0  0  0  0  0  0  0  0
   -0.0707   -0.0932    1.1007 N   0  0  0  0  0  0  0  0  0  0  0  0
   -1.0717   -2.4580    0.7413 H   0  0  0  0  0  0  0  0  0  0  0  0
   -2.3337   -3.2401    1.7026 H   0  0  0  0  0  0  0  0  0  0  0  0
   -0.6461   -3.7411    1.8850 H   0  0  0  0  0  0  0  0  0  0  0  0
   -1.3799   -2.2690    3.7831 H   0  0  0  0  0  0  0  0  0  0  0  0
   -1.7439   -0.9747    2.5992 H   0  0  0  0  0  0  0  0  0  0  0  0
    2.6866   -0.5987    2.9482 H   0  0  0  0  0  0  0  0  0  0  0  0
    3.4186    2.4057   -0.4359 H   0  0  0  0  0  0  0  0  0  0  0  0
   -1.3504    1.0641   -0.8705 H   0  0  0  0  0  0  0  0  0  0  0  0
  1  2  1  0  0  0  0
  2  3  1  0  0  0  0
  3  4  1  0  0  0  0
  4  5  2  0  0  0  0
  5  6  1  0  0  0  0
  6  7  2  0  0  0  0
  7  8  1  0  0  0  0
  8  9  2  0  0  0  0
  9 10  1  0  0  0  0
  9 11  1  0  0  0  0
 11 12  1  0  0  0  0
 11 13  2  0  0  0  0
 13 14  1  0  0  0  0
 14 15  2  0  0  0  0
 15  4  1  0  0  0  0
 14  7  1  0  0  0  0
  1 16  1  0  0  0  0
  1 17  1  0  0  0  0
  1 18  1  0  0  0  0
  2 19  1  0  0  0  0
  2 20  1  0  0  0  0
  5 21  1  0  0  0  0
  8 22  1  0  0  0  0
 13 23  1  0  0  0  0
M  END
