
  xtb     01172215013D
 energy: -47.135960898648 gnorm: 0.000624310642 xtb: 6.4.1 (unknown)
 28 29  0     0  0            999 V2000
   -1.1041   -1.8899    3.2905 C   0  0  0  0  0  0  0  0  0  0  0  0
   -1.6577   -0.9438    2.2229 C   0  0  0  0  0  0  0  0  0  0  0  0
   -0.5583   -0.4955    1.3053 C   0  0  0  0  0  0  0  0  0  0  0  0
    0.3512    0.2716    1.8539 N   0  0  0  0  0  0  0  0  0  0  0  0
    1.3890    0.6925    1.1083 C   0  0  0  0  0  0  0  0  0  0  0  0
    2.3810    1.5127    1.6809 C   0  0  0  0  0  0  0  0  0  0  0  0
    3.4260    1.9258    0.9056 C   0  0  0  0  0  0  0  0  0  0  0  0
    4.3848    2.7067    1.4282 F   0  0  0  0  0  0  0  0  0  0  0  0
    3.5243    1.5455   -0.4506 C   0  0  0  0  0  0  0  0  0  0  0  0
    4.5730    1.9786   -1.1680 F   0  0  0  0  0  0  0  0  0  0  0  0
    2.5768    0.7530   -1.0320 C   0  0  0  0  0  0  0  0  0  0  0  0
    1.4866    0.3122   -0.2566 C   0  0  0  0  0  0  0  0  0  0  0  0
    0.5343   -0.4610   -0.8114 N   0  0  0  0  0  0  0  0  0  0  0  0
   -0.4677   -0.8662   -0.0714 C   0  0  0  0  0  0  0  0  0  0  0  0
   -1.4741   -1.7343   -0.7660 C   0  0  0  0  0  0  0  0  0  0  0  0
   -1.2564   -3.2119   -0.4342 C   0  0  0  0  0  0  0  0  0  0  0  0
   -0.3247   -1.3876    3.8567 H   0  0  0  0  0  0  0  0  0  0  0  0
   -0.6777   -2.7813    2.8347 H   0  0  0  0  0  0  0  0  0  0  0  0
   -1.8962   -2.1931    3.9709 H   0  0  0  0  0  0  0  0  0  0  0  0
   -2.0630   -0.0602    2.7201 H   0  0  0  0  0  0  0  0  0  0  0  0
   -2.4591   -1.4309    1.6701 H   0  0  0  0  0  0  0  0  0  0  0  0
    2.3056    1.8013    2.7164 H   0  0  0  0  0  0  0  0  0  0  0  0
    2.6500    0.4621   -2.0670 H   0  0  0  0  0  0  0  0  0  0  0  0
   -1.3447   -1.5880   -1.8390 H   0  0  0  0  0  0  0  0  0  0  0  0
   -2.4877   -1.4350   -0.4933 H   0  0  0  0  0  0  0  0  0  0  0  0
   -1.9631   -3.8244   -0.9887 H   0  0  0  0  0  0  0  0  0  0  0  0
   -1.3943   -3.4017    0.6270 H   0  0  0  0  0  0  0  0  0  0  0  0
   -0.2481   -3.5101   -0.7109 H   0  0  0  0  0  0  0  0  0  0  0  0
  1  2  1  0  0  0  0
  2  3  1  0  0  0  0
  3  4  2  0  0  0  0
  4  5  1  0  0  0  0
  5  6  2  0  0  0  0
  6  7  1  0  0  0  0
  7  8  1  0  0  0  0
  7  9  2  0  0  0  0
  9 10  1  0  0  0  0
  9 11  1  0  0  0  0
 11 12  2  0  0  0  0
 12 13  1  0  0  0  0
 13 14  2  0  0  0  0
 14 15  1  0  0  0  0
 15 16  1  0  0  0  0
 14  3  1  0  0  0  0
 12  5  1  0  0  0  0
  1 17  1  0  0  0  0
  1 18  1  0  0  0  0
  1 19  1  0  0  0  0
  2 20  1  0  0  0  0
  2 21  1  0  0  0  0
  6 22  1  0  0  0  0
 11 23  1  0  0  0  0
 15 24  1  0  0  0  0
 15 25  1  0  0  0  0
 16 26  1  0  0  0  0
 16 27  1  0  0  0  0
 16 28  1  0  0  0  0
M  END
