
  xtb     01172215013D
 energy: -55.790792341993 gnorm: 0.000629260390 xtb: 6.4.1 (unknown)
 36 39  0     0  0            999 V2000
   -0.1659   -3.2215    3.9027 C   0  0  0  0  0  0  0  0  0  0  0  0
   -1.0400   -3.0751    2.8377 C   0  0  0  0  0  0  0  0  0  0  0  0
   -0.6844   -2.3082    1.7445 C   0  0  0  0  0  0  0  0  0  0  0  0
    0.5577   -1.6784    1.7073 C   0  0  0  0  0  0  0  0  0  0  0  0
    0.9675   -0.8726    0.5505 C   0  0  0  0  0  0  0  0  0  0  0  0
    2.2037   -1.0181    0.1396 N   0  0  0  0  0  0  0  0  0  0  0  0
    2.5901   -0.3965   -0.9905 C   0  0  0  0  0  0  0  0  0  0  0  0
    3.9147   -0.5192   -1.4520 C   0  0  0  0  0  0  0  0  0  0  0  0
    4.2688    0.0461   -2.6458 C   0  0  0  0  0  0  0  0  0  0  0  0
    3.3283    0.7494   -3.4182 C   0  0  0  0  0  0  0  0  0  0  0  0
    2.0388    0.8998   -2.9887 C   0  0  0  0  0  0  0  0  0  0  0  0
    1.6476    0.3440   -1.7556 C   0  0  0  0  0  0  0  0  0  0  0  0
    0.4064    0.5547   -1.2782 N   0  0  0  0  0  0  0  0  0  0  0  0
    0.0681    0.0117   -0.1341 C   0  0  0  0  0  0  0  0  0  0  0  0
   -1.2440    0.3829    0.4098 C   0  0  0  0  0  0  0  0  0  0  0  0
   -1.4122    0.6567    1.7654 C   0  0  0  0  0  0  0  0  0  0  0  0
   -2.6541    1.0204    2.2501 C   0  0  0  0  0  0  0  0  0  0  0  0
   -3.7388    1.1136    1.3931 C   0  0  0  0  0  0  0  0  0  0  0  0
   -3.5736    0.8606    0.0411 C   0  0  0  0  0  0  0  0  0  0  0  0
   -2.3321    0.5048   -0.4507 C   0  0  0  0  0  0  0  0  0  0  0  0
    1.4424   -1.8517    2.7687 C   0  0  0  0  0  0  0  0  0  0  0  0
    1.0779   -2.6128    3.8630 C   0  0  0  0  0  0  0  0  0  0  0  0
   -0.4509   -3.8163    4.7580 H   0  0  0  0  0  0  0  0  0  0  0  0
   -2.0034   -3.5629    2.8579 H   0  0  0  0  0  0  0  0  0  0  0  0
   -1.3637   -2.2105    0.9102 H   0  0  0  0  0  0  0  0  0  0  0  0
    4.6190   -1.0723   -0.8499 H   0  0  0  0  0  0  0  0  0  0  0  0
    5.2817   -0.0478   -3.0094 H   0  0  0  0  0  0  0  0  0  0  0  0
    3.6379    1.1771   -4.3607 H   0  0  0  0  0  0  0  0  0  0  0  0
    1.3050    1.4455   -3.5617 H   0  0  0  0  0  0  0  0  0  0  0  0
   -0.5667    0.6010    2.4357 H   0  0  0  0  0  0  0  0  0  0  0  0
   -2.7759    1.2344    3.3017 H   0  0  0  0  0  0  0  0  0  0  0  0
   -4.7091    1.3916    1.7776 H   0  0  0  0  0  0  0  0  0  0  0  0
   -4.4150    0.9435   -0.6313 H   0  0  0  0  0  0  0  0  0  0  0  0
   -2.1882    0.3094   -1.5025 H   0  0  0  0  0  0  0  0  0  0  0  0
    2.4101   -1.3758    2.7226 H   0  0  0  0  0  0  0  0  0  0  0  0
    1.7660   -2.7345    4.6869 H   0  0  0  0  0  0  0  0  0  0  0  0
  1  2  2  0  0  0  0
  2  3  1  0  0  0  0
  3  4  2  0  0  0  0
  4  5  1  0  0  0  0
  5  6  2  0  0  0  0
  6  7  1  0  0  0  0
  7  8  2  0  0  0  0
  8  9  1  0  0  0  0
  9 10  2  0  0  0  0
 10 11  1  0  0  0  0
 11 12  2  0  0  0  0
 12 13  1  0  0  0  0
 13 14  2  0  0  0  0
 14 15  1  0  0  0  0
 15 16  2  0  0  0  0
 16 17  1  0  0  0  0
 17 18  2  0  0  0  0
 18 19  1  0  0  0  0
 19 20  2  0  0  0  0
  4 21  1  0  0  0  0
 21 22  2  0  0  0  0
 22  1  1  0  0  0  0
 14  5  1  0  0  0  0
 20 15  1  0  0  0  0
 12  7  1  0  0  0  0
  1 23  1  0  0  0  0
  2 24  1  0  0  0  0
  3 25  1  0  0  0  0
  8 26  1  0  0  0  0
  9 27  1  0  0  0  0
 10 28  1  0  0  0  0
 11 29  1  0  0  0  0
 16 30  1  0  0  0  0
 17 31  1  0  0  0  0
 18 32  1  0  0  0  0
 19 33  1  0  0  0  0
 20 34  1  0  0  0  0
 21 35  1  0  0  0  0
 22 36  1  0  0  0  0
M  END
