
  xtb     01172215013D
 energy: -26.011583898300 gnorm: 0.000170433547 xtb: 6.4.1 (unknown)
 16 17  0     0  0            999 V2000
    0.6264   -0.9281   -1.1122 C   0  0  0  0  0  0  0  0  0  0  0  0
   -0.3333   -1.2261   -0.1284 C   0  0  0  0  0  0  0  0  0  0  0  0
   -0.2011   -0.7507    1.1463 C   0  0  0  0  0  0  0  0  0  0  0  0
    0.9096    0.0485    1.4824 C   0  0  0  0  0  0  0  0  0  0  0  0
    1.0444    0.5205    2.7406 N   0  0  0  0  0  0  0  0  0  0  0  0
    2.0930    1.2550    2.9932 C   0  0  0  0  0  0  0  0  0  0  0  0
    3.0559    1.5541    2.0060 C   0  0  0  0  0  0  0  0  0  0  0  0
    2.9552    1.1139    0.7817 N   0  0  0  0  0  0  0  0  0  0  0  0
    1.8811    0.3502    0.4864 C   0  0  0  0  0  0  0  0  0  0  0  0
    1.7151   -0.1557   -0.8181 C   0  0  0  0  0  0  0  0  0  0  0  0
    0.4935   -1.3189   -2.1104 H   0  0  0  0  0  0  0  0  0  0  0  0
   -1.1824   -1.8392   -0.3923 H   0  0  0  0  0  0  0  0  0  0  0  0
   -0.9251   -0.9668    1.9166 H   0  0  0  0  0  0  0  0  0  0  0  0
    2.1925    1.6287    4.0039 H   0  0  0  0  0  0  0  0  0  0  0  0
    3.9197    2.1650    2.2332 H   0  0  0  0  0  0  0  0  0  0  0  0
    2.4633    0.0853   -1.5572 H   0  0  0  0  0  0  0  0  0  0  0  0
  1  2  2  0  0  0  0
  2  3  1  0  0  0  0
  3  4  2  0  0  0  0
  4  5  1  0  0  0  0
  5  6  2  0  0  0  0
  6  7  1  0  0  0  0
  7  8  2  0  0  0  0
  8  9  1  0  0  0  0
  9 10  2  0  0  0  0
 10  1  1  0  0  0  0
  9  4  1  0  0  0  0
  1 11  1  0  0  0  0
  2 12  1  0  0  0  0
  3 13  1  0  0  0  0
  6 14  1  0  0  0  0
  7 15  1  0  0  0  0
 10 16  1  0  0  0  0
M  END
