
  xtb     01172215023D
 energy: -145.652463423314 gnorm: 0.000224744402 xtb: 6.4.1 (unknown)
 98108  0     0  0            999 V2000
   -0.7539    6.0472    4.6475 C   0  0  0  0  0  0  0  0  0  0  0  0
    0.3740    5.9708    3.6163 C   0  0  0  0  0  0  0  0  0  0  0  0
    0.6563    4.5404    3.2566 C   0  0  0  0  0  0  0  0  0  0  0  0
   -0.0638    3.9062    2.2535 C   0  0  0  0  0  0  0  0  0  0  0  0
    0.1549    2.5745    1.9522 C   0  0  0  0  0  0  0  0  0  0  0  0
    1.1101    1.8450    2.6459 C   0  0  0  0  0  0  0  0  0  0  0  0
    1.3119    0.3590    2.3961 C   0  0  0  0  0  0  0  0  0  0  0  0
    2.7686   -0.0411    2.4699 C   0  0  0  0  0  0  0  0  0  0  0  0
    3.7409    0.7755    1.9047 C   0  0  0  0  0  0  0  0  0  0  0  0
    5.0716    0.4070    1.9364 C   0  0  0  0  0  0  0  0  0  0  0  0
    5.4684   -0.7837    2.5317 C   0  0  0  0  0  0  0  0  0  0  0  0
    6.9130   -1.1943    2.5329 C   0  0  0  0  0  0  0  0  0  0  0  0
    7.2567   -1.9469    1.2460 C   0  0  0  0  0  0  0  0  0  0  0  0
    4.4923   -1.6023    3.0821 C   0  0  0  0  0  0  0  0  0  0  0  0
    3.1580   -1.2399    3.0492 C   0  0  0  0  0  0  0  0  0  0  0  0
    0.7175   -0.1044    1.0772 C   0  0  0  0  0  0  0  0  0  0  0  0
    1.1692    0.1416   -0.1991 C   0  0  0  0  0  0  0  0  0  0  0  0
    0.4277   -0.3878   -1.2501 C   0  0  0  0  0  0  0  0  0  0  0  0
   -0.7559   -1.1248   -1.0295 C   0  0  0  0  0  0  0  0  0  0  0  0
   -1.1881   -1.4008    0.2472 C   0  0  0  0  0  0  0  0  0  0  0  0
   -0.4321   -0.8934    1.2984 C   0  0  0  0  0  0  0  0  0  0  0  0
   -0.5920   -1.0210    2.7181 C   0  0  0  0  0  0  0  0  0  0  0  0
   -1.7994   -1.8832    3.8603 Se  0  0  0  0  0  2  0  0  0  0  0  0
   -0.7417   -1.1942    5.2502 C   0  0  0  0  0  0  0  0  0  0  0  0
   -0.7861   -1.2794    6.6564 C   0  0  0  0  0  0  0  0  0  0  0  0
    0.2381   -0.5968    7.2280 C   0  0  0  0  0  0  0  0  0  0  0  0
    1.2846    0.1695    6.0810 S   0  0  0  0  0  0  0  0  0  0  0  0
    0.3306   -0.4358    4.7748 C   0  0  0  0  0  0  0  0  0  0  0  0
    0.4149   -0.3498    3.3788 C   0  0  0  0  0  0  0  0  0  0  0  0
   -1.3866   -1.5360   -2.3486 C   0  0  0  0  0  0  0  0  0  0  0  0
   -2.6678   -0.7773   -2.6545 C   0  0  0  0  0  0  0  0  0  0  0  0
   -3.4957   -1.2212   -3.6785 C   0  0  0  0  0  0  0  0  0  0  0  0
   -4.6295   -0.5109   -4.0218 C   0  0  0  0  0  0  0  0  0  0  0  0
   -4.9667    0.6606   -3.3559 C   0  0  0  0  0  0  0  0  0  0  0  0
   -6.1750    1.4548   -3.7618 C   0  0  0  0  0  0  0  0  0  0  0  0
   -5.8123    2.4538   -4.8625 C   0  0  0  0  0  0  0  0  0  0  0  0
   -4.1312    1.1045   -2.3406 C   0  0  0  0  0  0  0  0  0  0  0  0
   -2.9930    0.3990   -1.9944 C   0  0  0  0  0  0  0  0  0  0  0  0
   -1.5919   -3.0345   -2.3629 C   0  0  0  0  0  0  0  0  0  0  0  0
   -0.6172   -3.8894   -2.8567 C   0  0  0  0  0  0  0  0  0  0  0  0
   -0.8015   -5.2594   -2.8184 C   0  0  0  0  0  0  0  0  0  0  0  0
   -1.9543   -5.8100   -2.2759 C   0  0  0  0  0  0  0  0  0  0  0  0
   -2.1729   -7.2958   -2.2731 C   0  0  0  0  0  0  0  0  0  0  0  0
   -2.8835   -7.7348   -3.5549 C   0  0  0  0  0  0  0  0  0  0  0  0
   -2.9230   -4.9503   -1.7744 C   0  0  0  0  0  0  0  0  0  0  0  0
   -2.7456   -3.5811   -1.8139 C   0  0  0  0  0  0  0  0  0  0  0  0
   -0.3574   -1.0307   -3.3272 C   0  0  0  0  0  0  0  0  0  0  0  0
    0.6403   -0.3439   -2.6682 C   0  0  0  0  0  0  0  0  0  0  0  0
    1.9368    0.3807   -3.8084 Se  0  0  0  0  0  2  0  0  0  0  0  0
    0.9228   -0.3774   -5.1948 C   0  0  0  0  0  0  0  0  0  0  0  0
    1.0559   -0.4293   -6.5971 C   0  0  0  0  0  0  0  0  0  0  0  0
    0.0415   -1.1277   -7.1670 C   0  0  0  0  0  0  0  0  0  0  0  0
   -1.1050   -1.7399   -6.0231 S   0  0  0  0  0  0  0  0  0  0  0  0
   -0.2088   -1.0448   -4.7205 C   0  0  0  0  0  0  0  0  0  0  0  0
    1.8290    2.4729    3.6557 C   0  0  0  0  0  0  0  0  0  0  0  0
    1.6043    3.8030    3.9539 C   0  0  0  0  0  0  0  0  0  0  0  0
   -0.9649    7.0822    4.9069 H   0  0  0  0  0  0  0  0  0  0  0  0
   -1.6604    5.5962    4.2500 H   0  0  0  0  0  0  0  0  0  0  0  0
   -0.4750    5.5114    5.5521 H   0  0  0  0  0  0  0  0  0  0  0  0
    0.0827    6.5273    2.7230 H   0  0  0  0  0  0  0  0  0  0  0  0
    1.2721    6.4337    4.0302 H   0  0  0  0  0  0  0  0  0  0  0  0
   -0.8085    4.4606    1.6998 H   0  0  0  0  0  0  0  0  0  0  0  0
   -0.4231    2.1020    1.1716 H   0  0  0  0  0  0  0  0  0  0  0  0
    3.4547    1.7138    1.4513 H   0  0  0  0  0  0  0  0  0  0  0  0
    5.8153    1.0571    1.4971 H   0  0  0  0  0  0  0  0  0  0  0  0
    7.1147   -1.8380    3.3915 H   0  0  0  0  0  0  0  0  0  0  0  0
    7.5485   -0.3097    2.6123 H   0  0  0  0  0  0  0  0  0  0  0  0
    6.6445   -2.8415    1.1567 H   0  0  0  0  0  0  0  0  0  0  0  0
    7.0694   -1.3179    0.3786 H   0  0  0  0  0  0  0  0  0  0  0  0
    8.3041   -2.2400    1.2436 H   0  0  0  0  0  0  0  0  0  0  0  0
    4.7784   -2.5354    3.5467 H   0  0  0  0  0  0  0  0  0  0  0  0
    2.4162   -1.8958    3.4812 H   0  0  0  0  0  0  0  0  0  0  0  0
    2.0622    0.7181   -0.3921 H   0  0  0  0  0  0  0  0  0  0  0  0
   -2.0746   -1.9875    0.4398 H   0  0  0  0  0  0  0  0  0  0  0  0
   -1.5360   -1.8180    7.2079 H   0  0  0  0  0  0  0  0  0  0  0  0
    0.4553   -0.4871    8.2721 H   0  0  0  0  0  0  0  0  0  0  0  0
   -3.2523   -2.1319   -4.2061 H   0  0  0  0  0  0  0  0  0  0  0  0
   -5.2623   -0.8727   -4.8198 H   0  0  0  0  0  0  0  0  0  0  0  0
   -6.9537    0.7829   -4.1286 H   0  0  0  0  0  0  0  0  0  0  0  0
   -6.5691    1.9968   -2.8996 H   0  0  0  0  0  0  0  0  0  0  0  0
   -5.0439    3.1394   -4.5122 H   0  0  0  0  0  0  0  0  0  0  0  0
   -5.4299    1.9308   -5.7363 H   0  0  0  0  0  0  0  0  0  0  0  0
   -6.6858    3.0311   -5.1570 H   0  0  0  0  0  0  0  0  0  0  0  0
   -4.3723    2.0157   -1.8114 H   0  0  0  0  0  0  0  0  0  0  0  0
   -2.3565    0.7680   -1.2035 H   0  0  0  0  0  0  0  0  0  0  0  0
    0.2936   -3.4842   -3.2734 H   0  0  0  0  0  0  0  0  0  0  0  0
   -0.0337   -5.9105   -3.2120 H   0  0  0  0  0  0  0  0  0  0  0  0
   -2.7806   -7.5779   -1.4106 H   0  0  0  0  0  0  0  0  0  0  0  0
   -1.2135   -7.8117   -2.1984 H   0  0  0  0  0  0  0  0  0  0  0  0
   -2.2836   -7.4801   -4.4258 H   0  0  0  0  0  0  0  0  0  0  0  0
   -3.8449   -7.2338   -3.6444 H   0  0  0  0  0  0  0  0  0  0  0  0
   -3.0506   -8.8096   -3.5495 H   0  0  0  0  0  0  0  0  0  0  0  0
   -3.8272   -5.3583   -1.3447 H   0  0  0  0  0  0  0  0  0  0  0  0
   -3.5147   -2.9290   -1.4251 H   0  0  0  0  0  0  0  0  0  0  0  0
    1.8601    0.0259   -7.1472 H   0  0  0  0  0  0  0  0  0  0  0  0
   -0.1169   -1.3289   -8.2080 H   0  0  0  0  0  0  0  0  0  0  0  0
    2.5713    1.9168    4.2096 H   0  0  0  0  0  0  0  0  0  0  0  0
    2.1738    4.2743    4.7423 H   0  0  0  0  0  0  0  0  0  0  0  0
  1  2  1  0  0  0  0
  2  3  1  0  0  0  0
  3  4  2  0  0  0  0
  4  5  1  0  0  0  0
  5  6  2  0  0  0  0
  6  7  1  0  0  0  0
  7  8  1  0  0  0  0
  8  9  2  0  0  0  0
  9 10  1  0  0  0  0
 10 11  2  0  0  0  0
 11 12  1  0  0  0  0
 12 13  1  0  0  0  0
 11 14  1  0  0  0  0
 14 15  2  0  0  0  0
  7 16  1  0  0  0  0
 16 17  2  0  0  0  0
 17 18  1  0  0  0  0
 18 19  2  0  0  0  0
 19 20  1  0  0  0  0
 20 21  2  0  0  0  0
 21 22  1  0  0  0  0
 22 23  1  0  0  0  0
 23 24  1  0  0  0  0
 24 25  1  0  0  0  0
 25 26  2  0  0  0  0
 26 27  1  0  0  0  0
 27 28  1  0  0  0  0
 28 29  1  0  0  0  0
 19 30  1  0  0  0  0
 30 31  1  0  0  0  0
 31 32  2  0  0  0  0
 32 33  1  0  0  0  0
 33 34  2  0  0  0  0
 34 35  1  0  0  0  0
 35 36  1  0  0  0  0
 34 37  1  0  0  0  0
 37 38  2  0  0  0  0
 30 39  1  0  0  0  0
 39 40  2  0  0  0  0
 40 41  1  0  0  0  0
 41 42  2  0  0  0  0
 42 43  1  0  0  0  0
 43 44  1  0  0  0  0
 42 45  1  0  0  0  0
 45 46  2  0  0  0  0
 30 47  1  0  0  0  0
 47 48  2  0  0  0  0
 48 49  1  0  0  0  0
 49 50  1  0  0  0  0
 50 51  1  0  0  0  0
 51 52  2  0  0  0  0
 52 53  1  0  0  0  0
 53 54  1  0  0  0  0
  6 55  1  0  0  0  0
 55 56  2  0  0  0  0
 56  3  1  0  0  0  0
 29  7  1  0  0  0  0
 38 31  1  0  0  0  0
 46 39  1  0  0  0  0
 54 47  1  0  0  0  0
 15  8  1  0  0  0  0
 21 16  1  0  0  0  0
 29 22  2  0  0  0  0
 54 50  2  0  0  0  0
 48 18  1  0  0  0  0
 28 24  2  0  0  0  0
  1 57  1  0  0  0  0
  1 58  1  0  0  0  0
  1 59  1  0  0  0  0
  2 60  1  0  0  0  0
  2 61  1  0  0  0  0
  4 62  1  0  0  0  0
  5 63  1  0  0  0  0
  9 64  1  0  0  0  0
 10 65  1  0  0  0  0
 12 66  1  0  0  0  0
 12 67  1  0  0  0  0
 13 68  1  0  0  0  0
 13 69  1  0  0  0  0
 13 70  1  0  0  0  0
 14 71  1  0  0  0  0
 15 72  1  0  0  0  0
 17 73  1  0  0  0  0
 20 74  1  0  0  0  0
 25 75  1  0  0  0  0
 26 76  1  0  0  0  0
 32 77  1  0  0  0  0
 33 78  1  0  0  0  0
 35 79  1  0  0  0  0
 35 80  1  0  0  0  0
 36 81  1  0  0  0  0
 36 82  1  0  0  0  0
 36 83  1  0  0  0  0
 37 84  1  0  0  0  0
 38 85  1  0  0  0  0
 40 86  1  0  0  0  0
 41 87  1  0  0  0  0
 43 88  1  0  0  0  0
 43 89  1  0  0  0  0
 44 90  1  0  0  0  0
 44 91  1  0  0  0  0
 44 92  1  0  0  0  0
 45 93  1  0  0  0  0
 46 94  1  0  0  0  0
 51 95  1  0  0  0  0
 52 96  1  0  0  0  0
 55 97  1  0  0  0  0
 56 98  1  0  0  0  0
M  END
