
  xtb     01172215023D
 energy: -82.505908867487 gnorm: 0.000478886676 xtb: 6.4.1 (unknown)
 55 60  0     0  0            999 V2000
    1.3469    0.2384    5.8027 C   0  0  0  0  0  0  0  0  0  0  0  0
    2.3058   -0.8186    5.2612 C   0  0  0  0  0  0  0  0  0  0  0  0
    1.6352   -1.9160    4.6787 O   0  0  0  0  0  0  0  0  0  0  0  0
    1.0776   -1.7944    3.4398 C   0  0  0  0  0  0  0  0  0  0  0  0
    0.3545   -2.9128    3.0114 C   0  0  0  0  0  0  0  0  0  0  0  0
   -0.2520   -2.9460    1.7695 C   0  0  0  0  0  0  0  0  0  0  0  0
   -0.1334   -1.8461    0.9458 C   0  0  0  0  0  0  0  0  0  0  0  0
    0.5890   -0.7231    1.3635 C   0  0  0  0  0  0  0  0  0  0  0  0
    1.1975   -0.6853    2.6085 C   0  0  0  0  0  0  0  0  0  0  0  0
    0.5471    0.2712    0.3025 C   0  0  0  0  0  0  0  0  0  0  0  0
    1.1037    1.5391    0.2351 C   0  0  0  0  0  0  0  0  0  0  0  0
    0.9054    2.2905   -0.9188 C   0  0  0  0  0  0  0  0  0  0  0  0
    1.4053    3.5398   -1.1426 O   0  0  0  0  0  0  0  0  0  0  0  0
    2.0932    4.2190   -0.1137 C   0  0  0  0  0  0  0  0  0  0  0  0
    1.1545    4.7903    0.9458 C   0  0  0  0  0  0  0  0  0  0  0  0
    0.1576    1.7615   -1.9762 C   0  0  0  0  0  0  0  0  0  0  0  0
   -0.3970    0.4972   -1.9045 C   0  0  0  0  0  0  0  0  0  0  0  0
   -0.2007   -0.2473   -0.7602 C   0  0  0  0  0  0  0  0  0  0  0  0
   -0.6981   -1.6352   -0.4378 C   0  0  0  0  0  0  0  0  0  0  0  0
   -0.2592   -2.6803   -1.4345 C   0  0  0  0  0  0  0  0  0  0  0  0
    1.0223   -3.0224   -1.8057 C   0  0  0  0  0  0  0  0  0  0  0  0
    1.1911   -4.0247   -2.7517 C   0  0  0  0  0  0  0  0  0  0  0  0
    0.0959   -4.6664   -3.3099 C   0  0  0  0  0  0  0  0  0  0  0  0
   -1.1946   -4.3246   -2.9387 C   0  0  0  0  0  0  0  0  0  0  0  0
   -1.3705   -3.3257   -1.9955 C   0  0  0  0  0  0  0  0  0  0  0  0
   -2.5761   -2.7562   -1.4143 C   0  0  0  0  0  0  0  0  0  0  0  0
   -3.9152   -3.0392   -1.6267 C   0  0  0  0  0  0  0  0  0  0  0  0
   -4.8654   -2.3222   -0.9172 C   0  0  0  0  0  0  0  0  0  0  0  0
   -4.4884   -1.3411   -0.0126 C   0  0  0  0  0  0  0  0  0  0  0  0
   -3.1479   -1.0522    0.2053 C   0  0  0  0  0  0  0  0  0  0  0  0
   -2.2010   -1.7631   -0.4983 C   0  0  0  0  0  0  0  0  0  0  0  0
    1.9088    1.0257    6.2981 H   0  0  0  0  0  0  0  0  0  0  0  0
    0.7553    0.6748    5.0015 H   0  0  0  0  0  0  0  0  0  0  0  0
    0.6679   -0.2164    6.5196 H   0  0  0  0  0  0  0  0  0  0  0  0
    3.0167   -0.3759    4.5521 H   0  0  0  0  0  0  0  0  0  0  0  0
    2.8755   -1.2570    6.0858 H   0  0  0  0  0  0  0  0  0  0  0  0
    0.2873   -3.7532    3.6839 H   0  0  0  0  0  0  0  0  0  0  0  0
   -0.8070   -3.8168    1.4537 H   0  0  0  0  0  0  0  0  0  0  0  0
    1.7511    0.1920    2.9036 H   0  0  0  0  0  0  0  0  0  0  0  0
    1.6785    1.9126    1.0678 H   0  0  0  0  0  0  0  0  0  0  0  0
    2.8502    3.5692    0.3433 H   0  0  0  0  0  0  0  0  0  0  0  0
    2.6100    5.0350   -0.6273 H   0  0  0  0  0  0  0  0  0  0  0  0
    1.7254    5.3580    1.6757 H   0  0  0  0  0  0  0  0  0  0  0  0
    0.6147    3.9967    1.4568 H   0  0  0  0  0  0  0  0  0  0  0  0
    0.4286    5.4485    0.4749 H   0  0  0  0  0  0  0  0  0  0  0  0
    0.0291    2.3744   -2.8543 H   0  0  0  0  0  0  0  0  0  0  0  0
   -0.9721    0.1034   -2.7293 H   0  0  0  0  0  0  0  0  0  0  0  0
    1.8748   -2.5219   -1.3703 H   0  0  0  0  0  0  0  0  0  0  0  0
    2.1879   -4.3081   -3.0566 H   0  0  0  0  0  0  0  0  0  0  0  0
    0.2519   -5.4435   -4.0443 H   0  0  0  0  0  0  0  0  0  0  0  0
   -2.0445   -4.8273   -3.3762 H   0  0  0  0  0  0  0  0  0  0  0  0
   -4.2139   -3.8024   -2.3301 H   0  0  0  0  0  0  0  0  0  0  0  0
   -5.9146   -2.5297   -1.0702 H   0  0  0  0  0  0  0  0  0  0  0  0
   -5.2468   -0.7951    0.5290 H   0  0  0  0  0  0  0  0  0  0  0  0
   -2.8529   -0.2881    0.9097 H   0  0  0  0  0  0  0  0  0  0  0  0
  1  2  1  0  0  0  0
  2  3  1  0  0  0  0
  3  4  1  0  0  0  0
  4  5  2  0  0  0  0
  5  6  1  0  0  0  0
  6  7  2  0  0  0  0
  7  8  1  0  0  0  0
  8  9  2  0  0  0  0
  8 10  1  0  0  0  0
 10 11  2  0  0  0  0
 11 12  1  0  0  0  0
 12 13  1  0  0  0  0
 13 14  1  0  0  0  0
 14 15  1  0  0  0  0
 12 16  2  0  0  0  0
 16 17  1  0  0  0  0
 17 18  2  0  0  0  0
 18 19  1  0  0  0  0
 19 20  1  0  0  0  0
 20 21  2  0  0  0  0
 21 22  1  0  0  0  0
 22 23  2  0  0  0  0
 23 24  1  0  0  0  0
 24 25  2  0  0  0  0
 25 26  1  0  0  0  0
 26 27  2  0  0  0  0
 27 28  1  0  0  0  0
 28 29  2  0  0  0  0
 29 30  1  0  0  0  0
 30 31  2  0  0  0  0
  9  4  1  0  0  0  0
 18 10  1  0  0  0  0
 31 19  1  0  0  0  0
 19  7  1  0  0  0  0
 25 20  1  0  0  0  0
 31 26  1  0  0  0  0
  1 32  1  0  0  0  0
  1 33  1  0  0  0  0
  1 34  1  0  0  0  0
  2 35  1  0  0  0  0
  2 36  1  0  0  0  0
  5 37  1  0  0  0  0
  6 38  1  0  0  0  0
  9 39  1  0  0  0  0
 11 40  1  0  0  0  0
 14 41  1  0  0  0  0
 14 42  1  0  0  0  0
 15 43  1  0  0  0  0
 15 44  1  0  0  0  0
 15 45  1  0  0  0  0
 16 46  1  0  0  0  0
 17 47  1  0  0  0  0
 21 48  1  0  0  0  0
 22 49  1  0  0  0  0
 23 50  1  0  0  0  0
 24 51  1  0  0  0  0
 27 52  1  0  0  0  0
 28 53  1  0  0  0  0
 29 54  1  0  0  0  0
 30 55  1  0  0  0  0
M  END
