
  xtb     01172215023D
 energy: -64.565556731198 gnorm: 0.000162411337 xtb: 6.4.1 (unknown)
 38 43  0     0  0            999 V2000
    0.1736   -4.2441   -1.4519 C   0  0  0  0  0  0  0  0  0  0  0  0
    1.3058   -3.2805   -1.8017 C   0  0  0  0  0  0  0  0  0  0  0  0
    1.9098   -2.7238   -0.6195 N   0  0  0  0  0  0  0  0  0  0  0  0
    2.9760   -3.2264    0.0795 C   0  0  0  0  0  0  0  0  0  0  0  0
    3.8980   -4.2830   -0.0642 C   0  0  0  0  0  0  0  0  0  0  0  0
    4.7881   -4.2958    0.9624 C   0  0  0  0  0  0  0  0  0  0  0  0
    4.5469   -3.0377    2.1348 S   0  0  0  0  0  0  0  0  0  0  0  0
    3.1964   -2.4532    1.2325 C   0  0  0  0  0  0  0  0  0  0  0  0
    2.2156   -1.4555    1.2418 C   0  0  0  0  0  0  0  0  0  0  0  0
    1.6858   -0.0998    2.1923 S   0  0  0  0  0  0  0  0  0  0  0  0
    0.4081    0.1917    1.0374 C   0  0  0  0  0  0  0  0  0  0  0  0
    0.4002   -0.7146   -0.0226 C   0  0  0  0  0  0  0  0  0  0  0  0
   -0.8850   -0.4307   -1.1710 S   0  0  0  0  0  0  0  0  0  0  0  0
   -1.4194    0.9204   -0.2165 C   0  0  0  0  0  0  0  0  0  0  0  0
   -2.4069    1.9115   -0.2015 C   0  0  0  0  0  0  0  0  0  0  0  0
   -3.7662    2.4871   -1.0961 S   0  0  0  0  0  0  0  0  0  0  0  0
   -4.0123    3.7404    0.0804 C   0  0  0  0  0  0  0  0  0  0  0  0
   -3.1159    3.7340    1.1015 C   0  0  0  0  0  0  0  0  0  0  0  0
   -2.1858    2.6853    0.9510 C   0  0  0  0  0  0  0  0  0  0  0  0
   -1.0908    2.2116    1.6251 N   0  0  0  0  0  0  0  0  0  0  0  0
   -0.5895    2.6656    2.8958 C   0  0  0  0  0  0  0  0  0  0  0  0
   -1.2044    1.8815    4.0533 C   0  0  0  0  0  0  0  0  0  0  0  0
   -0.6308    1.1290    0.9294 C   0  0  0  0  0  0  0  0  0  0  0  0
    1.4332   -1.6578    0.0905 C   0  0  0  0  0  0  0  0  0  0  0  0
    0.5460   -5.0571   -0.8325 H   0  0  0  0  0  0  0  0  0  0  0  0
   -0.6076   -3.7196   -0.9073 H   0  0  0  0  0  0  0  0  0  0  0  0
   -0.2546   -4.6600   -2.3595 H   0  0  0  0  0  0  0  0  0  0  0  0
    2.0833   -3.7981   -2.3693 H   0  0  0  0  0  0  0  0  0  0  0  0
    0.9160   -2.4567   -2.4069 H   0  0  0  0  0  0  0  0  0  0  0  0
    3.9069   -4.9932   -0.8709 H   0  0  0  0  0  0  0  0  0  0  0  0
    5.5965   -4.9821    1.1175 H   0  0  0  0  0  0  0  0  0  0  0  0
   -4.8293    4.4181   -0.0672 H   0  0  0  0  0  0  0  0  0  0  0  0
   -3.1287    4.4402    1.9117 H   0  0  0  0  0  0  0  0  0  0  0  0
   -0.8209    3.7294    2.9923 H   0  0  0  0  0  0  0  0  0  0  0  0
    0.4972    2.5388    2.8998 H   0  0  0  0  0  0  0  0  0  0  0  0
   -2.2874    1.9837    4.0470 H   0  0  0  0  0  0  0  0  0  0  0  0
   -0.8208    2.2527    4.9994 H   0  0  0  0  0  0  0  0  0  0  0  0
   -0.9525    0.8275    3.9653 H   0  0  0  0  0  0  0  0  0  0  0  0
  1  2  1  0  0  0  0
  2  3  1  0  0  0  0
  3  4  1  0  0  0  0
  4  5  1  0  0  0  0
  5  6  2  0  0  0  0
  6  7  1  0  0  0  0
  7  8  1  0  0  0  0
  8  9  1  0  0  0  0
  9 10  1  0  0  0  0
 10 11  1  0  0  0  0
 11 12  2  0  0  0  0
 12 13  1  0  0  0  0
 13 14  1  0  0  0  0
 14 15  1  0  0  0  0
 15 16  1  0  0  0  0
 16 17  1  0  0  0  0
 17 18  2  0  0  0  0
 18 19  1  0  0  0  0
 19 20  1  0  0  0  0
 20 21  1  0  0  0  0
 21 22  1  0  0  0  0
 20 23  1  0  0  0  0
 12 24  1  0  0  0  0
 24  3  1  0  0  0  0
  8  4  2  0  0  0  0
 24  9  2  0  0  0  0
 23 11  1  0  0  0  0
 23 14  2  0  0  0  0
 19 15  2  0  0  0  0
  1 25  1  0  0  0  0
  1 26  1  0  0  0  0
  1 27  1  0  0  0  0
  2 28  1  0  0  0  0
  2 29  1  0  0  0  0
  5 30  1  0  0  0  0
  6 31  1  0  0  0  0
 17 32  1  0  0  0  0
 18 33  1  0  0  0  0
 21 34  1  0  0  0  0
 21 35  1  0  0  0  0
 22 36  1  0  0  0  0
 22 37  1  0  0  0  0
 22 38  1  0  0  0  0
M  END
