
  xtb     01172215023D
 energy: -158.464911868300 gnorm: 0.000400421280 xtb: 6.4.1 (unknown)
 86 95  0     0  0            999 V2000
    6.3534    0.4930    6.3700 C   0  0  0  0  0  0  0  0  0  0  0  0
    5.2077    0.5587    5.3701 C   0  0  0  0  0  0  0  0  0  0  0  0
    5.1220   -0.6262    4.4607 C   0  0  0  0  0  0  0  0  0  0  0  0
    5.9220   -1.7249    4.4645 C   0  0  0  0  0  0  0  0  0  0  0  0
    5.5157   -2.9027    3.2571 S   0  0  0  0  0  0  0  0  0  0  0  0
    4.2150   -1.9064    2.7013 C   0  0  0  0  0  0  0  0  0  0  0  0
    4.1385   -0.7330    3.4454 C   0  0  0  0  0  0  0  0  0  0  0  0
    2.8422    0.3235    2.9442 S   0  0  0  0  0  0  0  0  0  0  0  0
    2.4073   -0.8284    1.7278 C   0  0  0  0  0  0  0  0  0  0  0  0
    1.4153   -1.0186    0.7494 C   0  0  0  0  0  0  0  0  0  0  0  0
    0.2823   -0.2287    0.4481 C   0  0  0  0  0  0  0  0  0  0  0  0
    0.1011    0.9727    0.9904 N   0  0  0  0  0  0  0  0  0  0  0  0
   -1.0203    1.6243    0.7345 C   0  0  0  0  0  0  0  0  0  0  0  0
   -1.0803    3.0016    1.2356 C   0  0  0  0  0  0  0  0  0  0  0  0
   -1.6876    4.0218    0.5054 C   0  0  0  0  0  0  0  0  0  0  0  0
   -1.7122    5.3120    0.9970 C   0  0  0  0  0  0  0  0  0  0  0  0
   -1.1253    5.5908    2.2247 C   0  0  0  0  0  0  0  0  0  0  0  0
   -1.1273    6.9888    2.7703 C   0  0  0  0  0  0  0  0  0  0  0  0
   -1.3591    7.0239    4.0945 F   0  0  0  0  0  0  0  0  0  0  0  0
   -2.0497    7.7794    2.2032 F   0  0  0  0  0  0  0  0  0  0  0  0
    0.0582    7.6071    2.5886 F   0  0  0  0  0  0  0  0  0  0  0  0
   -0.4892    4.5883    2.9479 C   0  0  0  0  0  0  0  0  0  0  0  0
   -0.4655    3.3017    2.4508 C   0  0  0  0  0  0  0  0  0  0  0  0
   -2.0599    1.0022   -0.0097 C   0  0  0  0  0  0  0  0  0  0  0  0
   -3.4240    1.5315   -0.1125 C   0  0  0  0  0  0  0  0  0  0  0  0
   -4.1290    1.3526   -1.3022 C   0  0  0  0  0  0  0  0  0  0  0  0
   -5.4196    1.8237   -1.4283 C   0  0  0  0  0  0  0  0  0  0  0  0
   -6.0197    2.4741   -0.3563 C   0  0  0  0  0  0  0  0  0  0  0  0
   -7.4313    2.9626   -0.5005 C   0  0  0  0  0  0  0  0  0  0  0  0
   -8.3290    1.9615   -0.3869 F   0  0  0  0  0  0  0  0  0  0  0  0
   -7.6616    3.5264   -1.6995 F   0  0  0  0  0  0  0  0  0  0  0  0
   -7.7742    3.8755    0.4195 F   0  0  0  0  0  0  0  0  0  0  0  0
   -5.3400    2.6300    0.8451 C   0  0  0  0  0  0  0  0  0  0  0  0
   -4.0477    2.1587    0.9649 C   0  0  0  0  0  0  0  0  0  0  0  0
   -1.8413   -0.1413   -0.6363 N   0  0  0  0  0  0  0  0  0  0  0  0
   -0.6711   -0.7514   -0.4671 C   0  0  0  0  0  0  0  0  0  0  0  0
   -0.3407   -1.9349   -1.1669 C   0  0  0  0  0  0  0  0  0  0  0  0
   -1.0258   -2.5778   -2.2139 C   0  0  0  0  0  0  0  0  0  0  0  0
   -2.4894   -2.4046   -3.1189 S   0  0  0  0  0  0  0  0  0  0  0  0
   -2.0274   -3.7844   -4.0839 C   0  0  0  0  0  0  0  0  0  0  0  0
   -2.6451   -4.4475   -5.1722 C   0  0  0  0  0  0  0  0  0  0  0  0
   -3.9760   -4.0658   -5.7343 C   0  0  0  0  0  0  0  0  0  0  0  0
   -5.1021   -4.4517   -4.7746 C   0  0  0  0  0  0  0  0  0  0  0  0
   -1.8764   -5.4844   -5.5985 C   0  0  0  0  0  0  0  0  0  0  0  0
   -0.3996   -5.6852   -4.7123 S   0  0  0  0  0  0  0  0  0  0  0  0
   -0.8031   -4.3326   -3.7113 C   0  0  0  0  0  0  0  0  0  0  0  0
   -0.2304   -3.6411   -2.6310 C   0  0  0  0  0  0  0  0  0  0  0  0
    0.9064   -3.7120   -1.8638 N   0  0  0  0  0  0  0  0  0  0  0  0
    2.0501   -4.4082   -2.4099 C   0  0  0  0  0  0  0  0  0  0  0  0
    2.8639   -3.4906   -3.3208 C   0  0  0  0  0  0  0  0  0  0  0  0
    0.8572   -2.6701   -0.9499 C   0  0  0  0  0  0  0  0  0  0  0  0
    1.6920   -2.2665    0.1228 C   0  0  0  0  0  0  0  0  0  0  0  0
    2.7893   -2.8290    0.7442 N   0  0  0  0  0  0  0  0  0  0  0  0
    3.3109   -4.1746    0.7149 C   0  0  0  0  0  0  0  0  0  0  0  0
    4.6524   -4.2513   -0.0130 C   0  0  0  0  0  0  0  0  0  0  0  0
    3.2225   -1.9576    1.7086 C   0  0  0  0  0  0  0  0  0  0  0  0
    7.3096    0.4337    5.8553 H   0  0  0  0  0  0  0  0  0  0  0  0
    6.3536    1.3847    6.9919 H   0  0  0  0  0  0  0  0  0  0  0  0
    6.2505   -0.3753    7.0166 H   0  0  0  0  0  0  0  0  0  0  0  0
    4.2558    0.6465    5.9029 H   0  0  0  0  0  0  0  0  0  0  0  0
    5.3070    1.4549    4.7503 H   0  0  0  0  0  0  0  0  0  0  0  0
    6.7498   -1.9427    5.1080 H   0  0  0  0  0  0  0  0  0  0  0  0
   -2.1286    3.8093   -0.4565 H   0  0  0  0  0  0  0  0  0  0  0  0
   -2.1846    6.1014    0.4332 H   0  0  0  0  0  0  0  0  0  0  0  0
   -0.0216    4.8217    3.8923 H   0  0  0  0  0  0  0  0  0  0  0  0
    0.0311    2.5108    2.9904 H   0  0  0  0  0  0  0  0  0  0  0  0
   -3.6484    0.8361   -2.1181 H   0  0  0  0  0  0  0  0  0  0  0  0
   -5.9646    1.6939   -2.3509 H   0  0  0  0  0  0  0  0  0  0  0  0
   -5.8220    3.1176    1.6783 H   0  0  0  0  0  0  0  0  0  0  0  0
   -3.5267    2.2643    1.9041 H   0  0  0  0  0  0  0  0  0  0  0  0
   -3.9952   -2.9851   -5.8939 H   0  0  0  0  0  0  0  0  0  0  0  0
   -4.1211   -4.5620   -6.6952 H   0  0  0  0  0  0  0  0  0  0  0  0
   -5.0994   -5.5252   -4.5992 H   0  0  0  0  0  0  0  0  0  0  0  0
   -6.0649   -4.1703   -5.1931 H   0  0  0  0  0  0  0  0  0  0  0  0
   -4.9770   -3.9440   -3.8212 H   0  0  0  0  0  0  0  0  0  0  0  0
   -2.0805   -6.1651   -6.4010 H   0  0  0  0  0  0  0  0  0  0  0  0
    2.6808   -4.8073   -1.6225 H   0  0  0  0  0  0  0  0  0  0  0  0
    1.6606   -5.2496   -2.9889 H   0  0  0  0  0  0  0  0  0  0  0  0
    2.2505   -3.1411   -4.1479 H   0  0  0  0  0  0  0  0  0  0  0  0
    3.2205   -2.6232   -2.7681 H   0  0  0  0  0  0  0  0  0  0  0  0
    3.7167   -4.0292   -3.7249 H   0  0  0  0  0  0  0  0  0  0  0  0
    3.4616   -4.4901    1.7535 H   0  0  0  0  0  0  0  0  0  0  0  0
    2.5620   -4.8377    0.2794 H   0  0  0  0  0  0  0  0  0  0  0  0
    5.3984   -3.6801    0.5330 H   0  0  0  0  0  0  0  0  0  0  0  0
    4.5838   -3.8458   -1.0186 H   0  0  0  0  0  0  0  0  0  0  0  0
    4.9852   -5.2839   -0.0686 H   0  0  0  0  0  0  0  0  0  0  0  0
  1  2  1  0  0  0  0
  2  3  1  0  0  0  0
  3  4  2  0  0  0  0
  4  5  1  0  0  0  0
  5  6  1  0  0  0  0
  6  7  2  0  0  0  0
  7  8  1  0  0  0  0
  8  9  1  0  0  0  0
  9 10  1  0  0  0  0
 10 11  2  0  0  0  0
 11 12  1  0  0  0  0
 12 13  2  0  0  0  0
 13 14  1  0  0  0  0
 14 15  2  0  0  0  0
 15 16  1  0  0  0  0
 16 17  2  0  0  0  0
 17 18  1  0  0  0  0
 18 19  1  0  0  0  0
 18 20  1  0  0  0  0
 18 21  1  0  0  0  0
 17 22  1  0  0  0  0
 22 23  2  0  0  0  0
 13 24  1  0  0  0  0
 24 25  1  0  0  0  0
 25 26  2  0  0  0  0
 26 27  1  0  0  0  0
 27 28  2  0  0  0  0
 28 29  1  0  0  0  0
 29 30  1  0  0  0  0
 29 31  1  0  0  0  0
 29 32  1  0  0  0  0
 28 33  1  0  0  0  0
 33 34  2  0  0  0  0
 24 35  2  0  0  0  0
 35 36  1  0  0  0  0
 36 37  2  0  0  0  0
 37 38  1  0  0  0  0
 38 39  1  0  0  0  0
 39 40  1  0  0  0  0
 40 41  1  0  0  0  0
 41 42  1  0  0  0  0
 42 43  1  0  0  0  0
 41 44  2  0  0  0  0
 44 45  1  0  0  0  0
 45 46  1  0  0  0  0
 46 47  1  0  0  0  0
 47 48  1  0  0  0  0
 48 49  1  0  0  0  0
 49 50  1  0  0  0  0
 48 51  1  0  0  0  0
 51 52  2  0  0  0  0
 52 53  1  0  0  0  0
 53 54  1  0  0  0  0
 54 55  1  0  0  0  0
 53 56  1  0  0  0  0
  7  3  1  0  0  0  0
 56  9  2  0  0  0  0
 56  6  1  0  0  0  0
 52 10  1  0  0  0  0
 36 11  1  0  0  0  0
 51 37  1  0  0  0  0
 23 14  1  0  0  0  0
 34 25  1  0  0  0  0
 47 38  2  0  0  0  0
 46 40  2  0  0  0  0
  1 57  1  0  0  0  0
  1 58  1  0  0  0  0
  1 59  1  0  0  0  0
  2 60  1  0  0  0  0
  2 61  1  0  0  0  0
  4 62  1  0  0  0  0
 15 63  1  0  0  0  0
 16 64  1  0  0  0  0
 22 65  1  0  0  0  0
 23 66  1  0  0  0  0
 26 67  1  0  0  0  0
 27 68  1  0  0  0  0
 33 69  1  0  0  0  0
 34 70  1  0  0  0  0
 42 71  1  0  0  0  0
 42 72  1  0  0  0  0
 43 73  1  0  0  0  0
 43 74  1  0  0  0  0
 43 75  1  0  0  0  0
 44 76  1  0  0  0  0
 49 77  1  0  0  0  0
 49 78  1  0  0  0  0
 50 79  1  0  0  0  0
 50 80  1  0  0  0  0
 50 81  1  0  0  0  0
 54 82  1  0  0  0  0
 54 83  1  0  0  0  0
 55 84  1  0  0  0  0
 55 85  1  0  0  0  0
 55 86  1  0  0  0  0
M  END
