
  xtb     01172215043D
 energy: -145.652255566552 gnorm: 0.000188730583 xtb: 6.4.1 (unknown)
 98108  0     0  0            999 V2000
    0.1258    5.2877    5.6033 C   0  0  0  0  0  0  0  0  0  0  0  0
    1.2474    5.2257    4.5645 C   0  0  0  0  0  0  0  0  0  0  0  0
    1.3348    3.8473    3.9754 C   0  0  0  0  0  0  0  0  0  0  0  0
    0.5748    3.4985    2.8677 C   0  0  0  0  0  0  0  0  0  0  0  0
    0.6126    2.2156    2.3515 C   0  0  0  0  0  0  0  0  0  0  0  0
    1.4227    1.2504    2.9313 C   0  0  0  0  0  0  0  0  0  0  0  0
    1.4415   -0.1876    2.4436 C   0  0  0  0  0  0  0  0  0  0  0  0
    2.8491   -0.7419    2.3989 C   0  0  0  0  0  0  0  0  0  0  0  0
    3.1212   -2.0513    2.7671 C   0  0  0  0  0  0  0  0  0  0  0  0
    4.4112   -2.5458    2.6979 C   0  0  0  0  0  0  0  0  0  0  0  0
    5.4581   -1.7496    2.2558 C   0  0  0  0  0  0  0  0  0  0  0  0
    6.8529   -2.2949    2.1448 C   0  0  0  0  0  0  0  0  0  0  0  0
    7.1074   -2.8293    0.7340 C   0  0  0  0  0  0  0  0  0  0  0  0
    5.1778   -0.4438    1.8732 C   0  0  0  0  0  0  0  0  0  0  0  0
    3.8920    0.0554    1.9424 C   0  0  0  0  0  0  0  0  0  0  0  0
    0.7664   -0.3771    1.0950 C   0  0  0  0  0  0  0  0  0  0  0  0
    1.2035    0.0404   -0.1412 C   0  0  0  0  0  0  0  0  0  0  0  0
    0.3854   -0.2370   -1.2312 C   0  0  0  0  0  0  0  0  0  0  0  0
   -0.8512   -0.9048   -1.0844 C   0  0  0  0  0  0  0  0  0  0  0  0
   -1.2703   -1.3550    0.1466 C   0  0  0  0  0  0  0  0  0  0  0  0
   -0.4451   -1.0908    1.2345 C   0  0  0  0  0  0  0  0  0  0  0  0
   -0.5752   -1.4239    2.6227 C   0  0  0  0  0  0  0  0  0  0  0  0
   -1.7323   -2.2785    3.5867 S   0  0  0  0  0  0  0  0  0  0  0  0
   -0.7493   -1.9964    4.9934 C   0  0  0  0  0  0  0  0  0  0  0  0
   -0.9113   -2.3775    6.3411 C   0  0  0  0  0  0  0  0  0  0  0  0
    0.1052   -1.9640    7.1394 C   0  0  0  0  0  0  0  0  0  0  0  0
    1.4291   -1.0026    6.2354 Se  0  0  0  0  0  2  0  0  0  0  0  0
    0.4062   -1.2661    4.7005 C   0  0  0  0  0  0  0  0  0  0  0  0
    0.5027   -0.9520    3.3398 C   0  0  0  0  0  0  0  0  0  0  0  0
   -1.5589   -1.0345   -2.4236 C   0  0  0  0  0  0  0  0  0  0  0  0
   -2.7996   -0.1669   -2.5392 C   0  0  0  0  0  0  0  0  0  0  0  0
   -3.6503   -0.3491   -3.6233 C   0  0  0  0  0  0  0  0  0  0  0  0
   -4.7452    0.4732   -3.8034 C   0  0  0  0  0  0  0  0  0  0  0  0
   -5.0197    1.4993   -2.9080 C   0  0  0  0  0  0  0  0  0  0  0  0
   -6.1779    2.4278   -3.1353 C   0  0  0  0  0  0  0  0  0  0  0  0
   -5.7446    3.6134   -4.0001 C   0  0  0  0  0  0  0  0  0  0  0  0
   -4.1649    1.6796   -1.8297 C   0  0  0  0  0  0  0  0  0  0  0  0
   -3.0650    0.8610   -1.6464 C   0  0  0  0  0  0  0  0  0  0  0  0
   -1.8648   -2.4899   -2.7029 C   0  0  0  0  0  0  0  0  0  0  0  0
   -0.9880   -3.2863   -3.4251 C   0  0  0  0  0  0  0  0  0  0  0  0
   -1.2702   -4.6229   -3.6412 C   0  0  0  0  0  0  0  0  0  0  0  0
   -2.4251   -5.2000   -3.1323 C   0  0  0  0  0  0  0  0  0  0  0  0
   -2.7547   -6.6391   -3.4070 C   0  0  0  0  0  0  0  0  0  0  0  0
   -3.6077   -6.7586   -4.6715 C   0  0  0  0  0  0  0  0  0  0  0  0
   -3.2957   -4.4007   -2.4024 C   0  0  0  0  0  0  0  0  0  0  0  0
   -3.0214   -3.0640   -2.1888 C   0  0  0  0  0  0  0  0  0  0  0  0
   -0.5336   -0.4274   -3.3452 C   0  0  0  0  0  0  0  0  0  0  0  0
    0.5445    0.0435   -2.6279 C   0  0  0  0  0  0  0  0  0  0  0  0
    1.7518    0.8071   -3.6066 S   0  0  0  0  0  0  0  0  0  0  0  0
    0.7870    0.4926   -5.0191 C   0  0  0  0  0  0  0  0  0  0  0  0
    1.0044    0.7736   -6.3835 C   0  0  0  0  0  0  0  0  0  0  0  0
   -0.0038    0.3458   -7.1846 C   0  0  0  0  0  0  0  0  0  0  0  0
   -1.3977   -0.4886   -6.2598 Se  0  0  0  0  0  2  0  0  0  0  0  0
   -0.4083   -0.1650   -4.7145 C   0  0  0  0  0  0  0  0  0  0  0  0
    2.1803    1.5928    4.0453 C   0  0  0  0  0  0  0  0  0  0  0  0
    2.1364    2.8741    4.5586 C   0  0  0  0  0  0  0  0  0  0  0  0
   -0.8289    5.0430    5.1430 H   0  0  0  0  0  0  0  0  0  0  0  0
    0.3119    4.5735    6.4024 H   0  0  0  0  0  0  0  0  0  0  0  0
    0.0590    6.2838    6.0348 H   0  0  0  0  0  0  0  0  0  0  0  0
    1.0491    5.9549    3.7762 H   0  0  0  0  0  0  0  0  0  0  0  0
    2.1944    5.4862    5.0413 H   0  0  0  0  0  0  0  0  0  0  0  0
   -0.0577    4.2400    2.4003 H   0  0  0  0  0  0  0  0  0  0  0  0
    0.0082    1.9679    1.4913 H   0  0  0  0  0  0  0  0  0  0  0  0
    2.3224   -2.6920    3.1124 H   0  0  0  0  0  0  0  0  0  0  0  0
    4.6061   -3.5660    2.9971 H   0  0  0  0  0  0  0  0  0  0  0  0
    7.5760   -1.5070    2.3663 H   0  0  0  0  0  0  0  0  0  0  0  0
    6.9946   -3.1014    2.8670 H   0  0  0  0  0  0  0  0  0  0  0  0
    8.1194   -3.2190    0.6505 H   0  0  0  0  0  0  0  0  0  0  0  0
    6.4064   -3.6275    0.5003 H   0  0  0  0  0  0  0  0  0  0  0  0
    6.9781   -2.0366    0.0005 H   0  0  0  0  0  0  0  0  0  0  0  0
    5.9784    0.1923    1.5226 H   0  0  0  0  0  0  0  0  0  0  0  0
    3.6975    1.0788    1.6550 H   0  0  0  0  0  0  0  0  0  0  0  0
    2.1381    0.5643   -0.2696 H   0  0  0  0  0  0  0  0  0  0  0  0
   -2.1995   -1.8887    0.2741 H   0  0  0  0  0  0  0  0  0  0  0  0
   -1.7577   -2.9411    6.6936 H   0  0  0  0  0  0  0  0  0  0  0  0
    0.1937   -2.1387    8.1961 H   0  0  0  0  0  0  0  0  0  0  0  0
   -3.4572   -1.1512   -4.3252 H   0  0  0  0  0  0  0  0  0  0  0  0
   -5.3958    0.3160   -4.6519 H   0  0  0  0  0  0  0  0  0  0  0  0
   -6.9885    1.8945   -3.6359 H   0  0  0  0  0  0  0  0  0  0  0  0
   -6.5511    2.7976   -2.1781 H   0  0  0  0  0  0  0  0  0  0  0  0
   -4.9465    4.1666   -3.5098 H   0  0  0  0  0  0  0  0  0  0  0  0
   -6.5809    4.2874   -4.1714 H   0  0  0  0  0  0  0  0  0  0  0  0
   -5.3759    3.2640   -4.9620 H   0  0  0  0  0  0  0  0  0  0  0  0
   -4.3595    2.4732   -1.1220 H   0  0  0  0  0  0  0  0  0  0  0  0
   -2.4113    1.0253   -0.8024 H   0  0  0  0  0  0  0  0  0  0  0  0
   -0.0769   -2.8626   -3.8228 H   0  0  0  0  0  0  0  0  0  0  0  0
   -0.5786   -5.2269   -4.2115 H   0  0  0  0  0  0  0  0  0  0  0  0
   -1.8345   -7.2121   -3.5376 H   0  0  0  0  0  0  0  0  0  0  0  0
   -3.3031   -7.0610   -2.5620 H   0  0  0  0  0  0  0  0  0  0  0  0
   -4.5351   -6.2021   -4.5555 H   0  0  0  0  0  0  0  0  0  0  0  0
   -3.0721   -6.3545   -5.5276 H   0  0  0  0  0  0  0  0  0  0  0  0
   -3.8495   -7.7999   -4.8719 H   0  0  0  0  0  0  0  0  0  0  0  0
   -4.1999   -4.8311   -1.9952 H   0  0  0  0  0  0  0  0  0  0  0  0
   -3.7175   -2.4561   -1.6288 H   0  0  0  0  0  0  0  0  0  0  0  0
    1.8841    1.2768   -6.7458 H   0  0  0  0  0  0  0  0  0  0  0  0
   -0.0543    0.4517   -8.2529 H   0  0  0  0  0  0  0  0  0  0  0  0
    2.8207    0.8498    4.5050 H   0  0  0  0  0  0  0  0  0  0  0  0
    2.7342    3.1221    5.4240 H   0  0  0  0  0  0  0  0  0  0  0  0
  1  2  1  0  0  0  0
  2  3  1  0  0  0  0
  3  4  2  0  0  0  0
  4  5  1  0  0  0  0
  5  6  2  0  0  0  0
  6  7  1  0  0  0  0
  7  8  1  0  0  0  0
  8  9  2  0  0  0  0
  9 10  1  0  0  0  0
 10 11  2  0  0  0  0
 11 12  1  0  0  0  0
 12 13  1  0  0  0  0
 11 14  1  0  0  0  0
 14 15  2  0  0  0  0
  7 16  1  0  0  0  0
 16 17  2  0  0  0  0
 17 18  1  0  0  0  0
 18 19  2  0  0  0  0
 19 20  1  0  0  0  0
 20 21  2  0  0  0  0
 21 22  1  0  0  0  0
 22 23  1  0  0  0  0
 23 24  1  0  0  0  0
 24 25  1  0  0  0  0
 25 26  2  0  0  0  0
 26 27  1  0  0  0  0
 27 28  1  0  0  0  0
 28 29  1  0  0  0  0
 19 30  1  0  0  0  0
 30 31  1  0  0  0  0
 31 32  2  0  0  0  0
 32 33  1  0  0  0  0
 33 34  2  0  0  0  0
 34 35  1  0  0  0  0
 35 36  1  0  0  0  0
 34 37  1  0  0  0  0
 37 38  2  0  0  0  0
 30 39  1  0  0  0  0
 39 40  2  0  0  0  0
 40 41  1  0  0  0  0
 41 42  2  0  0  0  0
 42 43  1  0  0  0  0
 43 44  1  0  0  0  0
 42 45  1  0  0  0  0
 45 46  2  0  0  0  0
 30 47  1  0  0  0  0
 47 48  2  0  0  0  0
 48 49  1  0  0  0  0
 49 50  1  0  0  0  0
 50 51  1  0  0  0  0
 51 52  2  0  0  0  0
 52 53  1  0  0  0  0
 53 54  1  0  0  0  0
  6 55  1  0  0  0  0
 55 56  2  0  0  0  0
 56  3  1  0  0  0  0
 29  7  1  0  0  0  0
 38 31  1  0  0  0  0
 46 39  1  0  0  0  0
 54 47  1  0  0  0  0
 15  8  1  0  0  0  0
 21 16  1  0  0  0  0
 29 22  2  0  0  0  0
 54 50  2  0  0  0  0
 48 18  1  0  0  0  0
 28 24  2  0  0  0  0
  1 57  1  0  0  0  0
  1 58  1  0  0  0  0
  1 59  1  0  0  0  0
  2 60  1  0  0  0  0
  2 61  1  0  0  0  0
  4 62  1  0  0  0  0
  5 63  1  0  0  0  0
  9 64  1  0  0  0  0
 10 65  1  0  0  0  0
 12 66  1  0  0  0  0
 12 67  1  0  0  0  0
 13 68  1  0  0  0  0
 13 69  1  0  0  0  0
 13 70  1  0  0  0  0
 14 71  1  0  0  0  0
 15 72  1  0  0  0  0
 17 73  1  0  0  0  0
 20 74  1  0  0  0  0
 25 75  1  0  0  0  0
 26 76  1  0  0  0  0
 32 77  1  0  0  0  0
 33 78  1  0  0  0  0
 35 79  1  0  0  0  0
 35 80  1  0  0  0  0
 36 81  1  0  0  0  0
 36 82  1  0  0  0  0
 36 83  1  0  0  0  0
 37 84  1  0  0  0  0
 38 85  1  0  0  0  0
 40 86  1  0  0  0  0
 41 87  1  0  0  0  0
 43 88  1  0  0  0  0
 43 89  1  0  0  0  0
 44 90  1  0  0  0  0
 44 91  1  0  0  0  0
 44 92  1  0  0  0  0
 45 93  1  0  0  0  0
 46 94  1  0  0  0  0
 51 95  1  0  0  0  0
 52 96  1  0  0  0  0
 55 97  1  0  0  0  0
 56 98  1  0  0  0  0
M  END
