
  xtb     01172215043D
 energy: -145.795784252904 gnorm: 0.000437057709 xtb: 6.4.1 (unknown)
 98108  0     0  0            999 V2000
    6.2109   -1.8770    2.6035 C   0  0  0  0  0  0  0  0  0  0  0  0
    6.1796   -0.6788    3.5544 C   0  0  0  0  0  0  0  0  0  0  0  0
    4.9610    0.1611    3.3000 C   0  0  0  0  0  0  0  0  0  0  0  0
    3.7728   -0.0850    3.9740 C   0  0  0  0  0  0  0  0  0  0  0  0
    2.6379    0.6602    3.7123 C   0  0  0  0  0  0  0  0  0  0  0  0
    2.6644    1.6766    2.7670 C   0  0  0  0  0  0  0  0  0  0  0  0
    1.4117    2.4615    2.4194 C   0  0  0  0  0  0  0  0  0  0  0  0
    0.4237    2.5263    3.5660 C   0  0  0  0  0  0  0  0  0  0  0  0
   -0.9197    2.2238    3.3999 C   0  0  0  0  0  0  0  0  0  0  0  0
   -1.7978    2.3265    4.4643 C   0  0  0  0  0  0  0  0  0  0  0  0
   -1.3618    2.7381    5.7155 C   0  0  0  0  0  0  0  0  0  0  0  0
   -2.3274    2.8873    6.8559 C   0  0  0  0  0  0  0  0  0  0  0  0
   -2.9458    4.2867    6.8549 C   0  0  0  0  0  0  0  0  0  0  0  0
   -0.0175    3.0518    5.8741 C   0  0  0  0  0  0  0  0  0  0  0  0
    0.8636    2.9480    4.8160 C   0  0  0  0  0  0  0  0  0  0  0  0
    1.7062    3.8790    1.9718 C   0  0  0  0  0  0  0  0  0  0  0  0
    2.2265    5.0479    2.5474 C   0  0  0  0  0  0  0  0  0  0  0  0
    2.2455    6.0795    1.6561 C   0  0  0  0  0  0  0  0  0  0  0  0
    1.6284    5.6577    0.0966 S   0  0  0  0  0  0  0  0  0  0  0  0
    1.3380    4.0578    0.6488 C   0  0  0  0  0  0  0  0  0  0  0  0
    0.8236    2.8325    0.1400 C   0  0  0  0  0  0  0  0  0  0  0  0
    0.2162    2.2502   -1.3723 S   0  0  0  0  0  0  0  0  0  0  0  0
   -0.0254    0.6665   -0.6528 C   0  0  0  0  0  0  0  0  0  0  0  0
   -0.5447   -0.4249   -1.3093 C   0  0  0  0  0  0  0  0  0  0  0  0
   -0.6822   -1.6160   -0.5973 C   0  0  0  0  0  0  0  0  0  0  0  0
   -1.1976   -2.8673   -1.0088 C   0  0  0  0  0  0  0  0  0  0  0  0
   -1.1795   -3.8141   -0.0092 C   0  0  0  0  0  0  0  0  0  0  0  0
   -0.5424   -3.2407    1.4942 S   0  0  0  0  0  0  0  0  0  0  0  0
   -0.2841   -1.6618    0.7698 C   0  0  0  0  0  0  0  0  0  0  0  0
    0.2309   -0.5692    1.4277 C   0  0  0  0  0  0  0  0  0  0  0  0
    0.3674    0.6222    0.7159 C   0  0  0  0  0  0  0  0  0  0  0  0
    0.8424    1.8855    1.1393 C   0  0  0  0  0  0  0  0  0  0  0  0
   -1.6999   -5.0378   -0.5160 C   0  0  0  0  0  0  0  0  0  0  0  0
   -2.0258   -6.6273    0.0461 S   0  0  0  0  0  0  0  0  0  0  0  0
   -2.6059   -7.0597   -1.5246 C   0  0  0  0  0  0  0  0  0  0  0  0
   -2.5521   -6.0382   -2.4261 C   0  0  0  0  0  0  0  0  0  0  0  0
   -2.0288   -4.8704   -1.8508 C   0  0  0  0  0  0  0  0  0  0  0  0
   -1.7446   -3.4500   -2.2955 C   0  0  0  0  0  0  0  0  0  0  0  0
   -0.6564   -3.3674   -3.3515 C   0  0  0  0  0  0  0  0  0  0  0  0
    0.3877   -4.2833   -3.3479 C   0  0  0  0  0  0  0  0  0  0  0  0
    1.4129   -4.1852   -4.2693 C   0  0  0  0  0  0  0  0  0  0  0  0
    1.4304   -3.1657   -5.2118 C   0  0  0  0  0  0  0  0  0  0  0  0
    2.5218   -3.0847   -6.2401 C   0  0  0  0  0  0  0  0  0  0  0  0
    2.1351   -3.8697   -7.4951 C   0  0  0  0  0  0  0  0  0  0  0  0
    0.3888   -2.2481   -5.2073 C   0  0  0  0  0  0  0  0  0  0  0  0
   -0.6397   -2.3429   -4.2884 C   0  0  0  0  0  0  0  0  0  0  0  0
   -3.0500   -2.8310   -2.7518 C   0  0  0  0  0  0  0  0  0  0  0  0
   -3.7569   -1.9362   -1.9625 C   0  0  0  0  0  0  0  0  0  0  0  0
   -4.9661   -1.4227   -2.3968 C   0  0  0  0  0  0  0  0  0  0  0  0
   -5.5039   -1.7943   -3.6205 C   0  0  0  0  0  0  0  0  0  0  0  0
   -6.7938   -1.1995   -4.1079 C   0  0  0  0  0  0  0  0  0  0  0  0
   -6.5264    0.0816   -4.9006 C   0  0  0  0  0  0  0  0  0  0  0  0
   -4.7948   -2.6954   -4.4054 C   0  0  0  0  0  0  0  0  0  0  0  0
   -3.5873   -3.2101   -3.9771 C   0  0  0  0  0  0  0  0  0  0  0  0
    3.8481    1.9181    2.0815 C   0  0  0  0  0  0  0  0  0  0  0  0
    4.9801    1.1721    2.3480 C   0  0  0  0  0  0  0  0  0  0  0  0
    5.3239   -2.4915    2.7406 H   0  0  0  0  0  0  0  0  0  0  0  0
    6.2346   -1.5390    1.5699 H   0  0  0  0  0  0  0  0  0  0  0  0
    7.0906   -2.4888    2.7901 H   0  0  0  0  0  0  0  0  0  0  0  0
    6.1732   -1.0380    4.5856 H   0  0  0  0  0  0  0  0  0  0  0  0
    7.0801   -0.0789    3.4069 H   0  0  0  0  0  0  0  0  0  0  0  0
    3.7328   -0.8702    4.7158 H   0  0  0  0  0  0  0  0  0  0  0  0
    1.7288    0.4543    4.2589 H   0  0  0  0  0  0  0  0  0  0  0  0
   -1.2873    1.9006    2.4377 H   0  0  0  0  0  0  0  0  0  0  0  0
   -2.8396    2.0785    4.3178 H   0  0  0  0  0  0  0  0  0  0  0  0
   -1.8099    2.7233    7.8033 H   0  0  0  0  0  0  0  0  0  0  0  0
   -3.1219    2.1434    6.7672 H   0  0  0  0  0  0  0  0  0  0  0  0
   -3.4800    4.4631    5.9239 H   0  0  0  0  0  0  0  0  0  0  0  0
   -3.6433    4.3959    7.6823 H   0  0  0  0  0  0  0  0  0  0  0  0
   -2.1700    5.0430    6.9516 H   0  0  0  0  0  0  0  0  0  0  0  0
    0.3437    3.3775    6.8395 H   0  0  0  0  0  0  0  0  0  0  0  0
    1.9084    3.1813    4.9620 H   0  0  0  0  0  0  0  0  0  0  0  0
    2.5752    5.1365    3.5599 H   0  0  0  0  0  0  0  0  0  0  0  0
    2.5905    7.0815    1.8162 H   0  0  0  0  0  0  0  0  0  0  0  0
   -0.8400   -0.3684   -2.3438 H   0  0  0  0  0  0  0  0  0  0  0  0
    0.5215   -0.6242    2.4637 H   0  0  0  0  0  0  0  0  0  0  0  0
   -2.9552   -8.0605   -1.6837 H   0  0  0  0  0  0  0  0  0  0  0  0
   -2.8719   -6.1343   -3.4475 H   0  0  0  0  0  0  0  0  0  0  0  0
    0.3993   -5.0799   -2.6181 H   0  0  0  0  0  0  0  0  0  0  0  0
    2.2149   -4.9096   -4.2522 H   0  0  0  0  0  0  0  0  0  0  0  0
    2.6993   -2.0414   -6.5091 H   0  0  0  0  0  0  0  0  0  0  0  0
    3.4472   -3.4943   -5.8304 H   0  0  0  0  0  0  0  0  0  0  0  0
    1.2202   -3.4682   -7.9252 H   0  0  0  0  0  0  0  0  0  0  0  0
    2.9248   -3.8104   -8.2405 H   0  0  0  0  0  0  0  0  0  0  0  0
    1.9667   -4.9160   -7.2495 H   0  0  0  0  0  0  0  0  0  0  0  0
    0.3831   -1.4439   -5.9295 H   0  0  0  0  0  0  0  0  0  0  0  0
   -1.4407   -1.6180   -4.3102 H   0  0  0  0  0  0  0  0  0  0  0  0
   -3.3651   -1.6331   -1.0032 H   0  0  0  0  0  0  0  0  0  0  0  0
   -5.5009   -0.7233   -1.7697 H   0  0  0  0  0  0  0  0  0  0  0  0
   -7.4389   -0.9684   -3.2578 H   0  0  0  0  0  0  0  0  0  0  0  0
   -7.3138   -1.9162   -4.7469 H   0  0  0  0  0  0  0  0  0  0  0  0
   -6.0189    0.8135   -4.2760 H   0  0  0  0  0  0  0  0  0  0  0  0
   -7.4601    0.5135   -5.2536 H   0  0  0  0  0  0  0  0  0  0  0  0
   -5.8946   -0.1305   -5.7603 H   0  0  0  0  0  0  0  0  0  0  0  0
   -5.1956   -2.9995   -5.3621 H   0  0  0  0  0  0  0  0  0  0  0  0
   -3.0462   -3.9041   -4.6039 H   0  0  0  0  0  0  0  0  0  0  0  0
    3.8849    2.6974    1.3340 H   0  0  0  0  0  0  0  0  0  0  0  0
    5.8933    1.3789    1.8081 H   0  0  0  0  0  0  0  0  0  0  0  0
  1  2  1  0  0  0  0
  2  3  1  0  0  0  0
  3  4  2  0  0  0  0
  4  5  1  0  0  0  0
  5  6  2  0  0  0  0
  6  7  1  0  0  0  0
  7  8  1  0  0  0  0
  8  9  2  0  0  0  0
  9 10  1  0  0  0  0
 10 11  2  0  0  0  0
 11 12  1  0  0  0  0
 12 13  1  0  0  0  0
 11 14  1  0  0  0  0
 14 15  2  0  0  0  0
  7 16  1  0  0  0  0
 16 17  1  0  0  0  0
 17 18  2  0  0  0  0
 18 19  1  0  0  0  0
 19 20  1  0  0  0  0
 20 21  1  0  0  0  0
 21 22  1  0  0  0  0
 22 23  1  0  0  0  0
 23 24  2  0  0  0  0
 24 25  1  0  0  0  0
 25 26  1  0  0  0  0
 26 27  2  0  0  0  0
 27 28  1  0  0  0  0
 28 29  1  0  0  0  0
 29 30  1  0  0  0  0
 30 31  2  0  0  0  0
 31 32  1  0  0  0  0
 27 33  1  0  0  0  0
 33 34  1  0  0  0  0
 34 35  1  0  0  0  0
 35 36  2  0  0  0  0
 36 37  1  0  0  0  0
 37 38  1  0  0  0  0
 38 39  1  0  0  0  0
 39 40  2  0  0  0  0
 40 41  1  0  0  0  0
 41 42  2  0  0  0  0
 42 43  1  0  0  0  0
 43 44  1  0  0  0  0
 42 45  1  0  0  0  0
 45 46  2  0  0  0  0
 38 47  1  0  0  0  0
 47 48  2  0  0  0  0
 48 49  1  0  0  0  0
 49 50  2  0  0  0  0
 50 51  1  0  0  0  0
 51 52  1  0  0  0  0
 50 53  1  0  0  0  0
 53 54  2  0  0  0  0
  6 55  1  0  0  0  0
 55 56  2  0  0  0  0
 56  3  1  0  0  0  0
 32  7  1  0  0  0  0
 37 33  2  0  0  0  0
 46 39  1  0  0  0  0
 54 47  1  0  0  0  0
 15  8  1  0  0  0  0
 20 16  2  0  0  0  0
 32 21  2  0  0  0  0
 31 23  1  0  0  0  0
 29 25  2  0  0  0  0
 38 26  1  0  0  0  0
  1 57  1  0  0  0  0
  1 58  1  0  0  0  0
  1 59  1  0  0  0  0
  2 60  1  0  0  0  0
  2 61  1  0  0  0  0
  4 62  1  0  0  0  0
  5 63  1  0  0  0  0
  9 64  1  0  0  0  0
 10 65  1  0  0  0  0
 12 66  1  0  0  0  0
 12 67  1  0  0  0  0
 13 68  1  0  0  0  0
 13 69  1  0  0  0  0
 13 70  1  0  0  0  0
 14 71  1  0  0  0  0
 15 72  1  0  0  0  0
 17 73  1  0  0  0  0
 18 74  1  0  0  0  0
 24 75  1  0  0  0  0
 30 76  1  0  0  0  0
 35 77  1  0  0  0  0
 36 78  1  0  0  0  0
 40 79  1  0  0  0  0
 41 80  1  0  0  0  0
 43 81  1  0  0  0  0
 43 82  1  0  0  0  0
 44 83  1  0  0  0  0
 44 84  1  0  0  0  0
 44 85  1  0  0  0  0
 45 86  1  0  0  0  0
 46 87  1  0  0  0  0
 48 88  1  0  0  0  0
 49 89  1  0  0  0  0
 51 90  1  0  0  0  0
 51 91  1  0  0  0  0
 52 92  1  0  0  0  0
 52 93  1  0  0  0  0
 52 94  1  0  0  0  0
 53 95  1  0  0  0  0
 54 96  1  0  0  0  0
 55 97  1  0  0  0  0
 56 98  1  0  0  0  0
M  END
