
  xtb     01172215043D
 energy: -88.764493243142 gnorm: 0.000191129522 xtb: 6.4.1 (unknown)
 52 59  0     0  0            999 V2000
    4.7211   -2.4841    4.3076 C   0  0  0  0  0  0  0  0  0  0  0  0
    4.8969   -2.3503    2.7978 C   0  0  0  0  0  0  0  0  0  0  0  0
    3.6741   -1.9231    2.1827 N   0  0  0  0  0  0  0  0  0  0  0  0
    2.7071   -2.7669    1.9153 N   0  0  0  0  0  0  0  0  0  0  0  0
    1.7434   -2.0007    1.3999 C   0  0  0  0  0  0  0  0  0  0  0  0
    2.2163   -0.6618    1.3881 C   0  0  0  0  0  0  0  0  0  0  0  0
    3.4499   -0.6632    1.8985 N   0  0  0  0  0  0  0  0  0  0  0  0
    1.4150    0.3520    0.8290 C   0  0  0  0  0  0  0  0  0  0  0  0
    1.6722    1.7061    0.5632 C   0  0  0  0  0  0  0  0  0  0  0  0
    2.9371    2.8676    0.7982 S   0  0  0  0  0  0  0  0  0  0  0  0
    1.9964    4.0347   -0.0939 C   0  0  0  0  0  0  0  0  0  0  0  0
    2.2267    5.3742   -0.4656 C   0  0  0  0  0  0  0  0  0  0  0  0
    1.1932    5.8780   -1.1851 C   0  0  0  0  0  0  0  0  0  0  0  0
   -0.0923    4.7427   -1.4296 S   0  0  0  0  0  0  0  0  0  0  0  0
    0.7713    3.5371   -0.5360 C   0  0  0  0  0  0  0  0  0  0  0  0
    0.5794    2.2007   -0.1466 C   0  0  0  0  0  0  0  0  0  0  0  0
   -0.3583    1.2146   -0.3050 N   0  0  0  0  0  0  0  0  0  0  0  0
   -1.4159    1.3883   -1.2726 C   0  0  0  0  0  0  0  0  0  0  0  0
   -2.5398    2.2880   -0.7592 C   0  0  0  0  0  0  0  0  0  0  0  0
    0.1256    0.0625    0.3011 C   0  0  0  0  0  0  0  0  0  0  0  0
   -0.4119   -1.2442    0.4726 C   0  0  0  0  0  0  0  0  0  0  0  0
    0.4346   -2.2784    0.9615 C   0  0  0  0  0  0  0  0  0  0  0  0
   -0.3309   -3.4545    0.9932 C   0  0  0  0  0  0  0  0  0  0  0  0
   -0.1569   -5.1165    1.4537 S   0  0  0  0  0  0  0  0  0  0  0  0
   -1.8472   -5.3648    1.1008 C   0  0  0  0  0  0  0  0  0  0  0  0
   -2.6941   -6.4874    1.1904 C   0  0  0  0  0  0  0  0  0  0  0  0
   -3.9629   -6.1875    0.8161 C   0  0  0  0  0  0  0  0  0  0  0  0
   -4.1668   -4.5342    0.3405 S   0  0  0  0  0  0  0  0  0  0  0  0
   -2.4927   -4.2156    0.6467 C   0  0  0  0  0  0  0  0  0  0  0  0
   -1.6168   -3.1193    0.5731 C   0  0  0  0  0  0  0  0  0  0  0  0
   -1.6707   -1.7883    0.2540 N   0  0  0  0  0  0  0  0  0  0  0  0
   -2.9553   -1.1479    0.0972 C   0  0  0  0  0  0  0  0  0  0  0  0
   -3.5937   -1.4387   -1.2608 C   0  0  0  0  0  0  0  0  0  0  0  0
    4.4440   -1.5254    4.7395 H   0  0  0  0  0  0  0  0  0  0  0  0
    5.6496   -2.8188    4.7613 H   0  0  0  0  0  0  0  0  0  0  0  0
    3.9399   -3.2079    4.5265 H   0  0  0  0  0  0  0  0  0  0  0  0
    5.1714   -3.3138    2.3627 H   0  0  0  0  0  0  0  0  0  0  0  0
    5.6545   -1.6010    2.5617 H   0  0  0  0  0  0  0  0  0  0  0  0
    3.1123    5.9269   -0.2123 H   0  0  0  0  0  0  0  0  0  0  0  0
    1.0892    6.8599   -1.6015 H   0  0  0  0  0  0  0  0  0  0  0  0
   -0.9802    1.8576   -2.1630 H   0  0  0  0  0  0  0  0  0  0  0  0
   -1.7884    0.4101   -1.5644 H   0  0  0  0  0  0  0  0  0  0  0  0
   -2.1768    3.3029   -0.6252 H   0  0  0  0  0  0  0  0  0  0  0  0
   -3.3513    2.3056   -1.4814 H   0  0  0  0  0  0  0  0  0  0  0  0
   -2.9277    1.9432    0.1966 H   0  0  0  0  0  0  0  0  0  0  0  0
   -2.3748   -7.4596    1.5170 H   0  0  0  0  0  0  0  0  0  0  0  0
   -4.8171   -6.8337    0.7846 H   0  0  0  0  0  0  0  0  0  0  0  0
   -2.8391   -0.0806    0.2642 H   0  0  0  0  0  0  0  0  0  0  0  0
   -3.6194   -1.5369    0.8787 H   0  0  0  0  0  0  0  0  0  0  0  0
   -2.9295   -1.1815   -2.0826 H   0  0  0  0  0  0  0  0  0  0  0  0
   -4.5128   -0.8682   -1.3610 H   0  0  0  0  0  0  0  0  0  0  0  0
   -3.8339   -2.4947   -1.3440 H   0  0  0  0  0  0  0  0  0  0  0  0
  1  2  1  0  0  0  0
  2  3  1  0  0  0  0
  3  4  1  0  0  0  0
  4  5  2  0  0  0  0
  5  6  1  0  0  0  0
  6  7  2  0  0  0  0
  6  8  1  0  0  0  0
  8  9  1  0  0  0  0
  9 10  1  0  0  0  0
 10 11  1  0  0  0  0
 11 12  1  0  0  0  0
 12 13  2  0  0  0  0
 13 14  1  0  0  0  0
 14 15  1  0  0  0  0
 15 16  1  0  0  0  0
 16 17  1  0  0  0  0
 17 18  1  0  0  0  0
 18 19  1  0  0  0  0
 17 20  1  0  0  0  0
 20 21  1  0  0  0  0
 21 22  2  0  0  0  0
 22 23  1  0  0  0  0
 23 24  1  0  0  0  0
 24 25  1  0  0  0  0
 25 26  1  0  0  0  0
 26 27  2  0  0  0  0
 27 28  1  0  0  0  0
 28 29  1  0  0  0  0
 29 30  1  0  0  0  0
 30 31  1  0  0  0  0
 31 32  1  0  0  0  0
 32 33  1  0  0  0  0
  7  3  1  0  0  0  0
 20  8  2  0  0  0  0
 31 21  1  0  0  0  0
 22  5  1  0  0  0  0
 30 23  2  0  0  0  0
 16  9  2  0  0  0  0
 29 25  2  0  0  0  0
 15 11  2  0  0  0  0
  1 34  1  0  0  0  0
  1 35  1  0  0  0  0
  1 36  1  0  0  0  0
  2 37  1  0  0  0  0
  2 38  1  0  0  0  0
 12 39  1  0  0  0  0
 13 40  1  0  0  0  0
 18 41  1  0  0  0  0
 18 42  1  0  0  0  0
 19 43  1  0  0  0  0
 19 44  1  0  0  0  0
 19 45  1  0  0  0  0
 26 46  1  0  0  0  0
 27 47  1  0  0  0  0
 32 48  1  0  0  0  0
 32 49  1  0  0  0  0
 33 50  1  0  0  0  0
 33 51  1  0  0  0  0
 33 52  1  0  0  0  0
M  END
