
  xtb     01172215043D
 energy: -86.354962094112 gnorm: 0.000543715191 xtb: 6.4.1 (unknown)
 58 63  0     0  0            999 V2000
    2.4258    0.4121    5.0777 C   0  0  0  0  0  0  0  0  0  0  0  0
    3.3988   -0.3926    4.2144 C   0  0  0  0  0  0  0  0  0  0  0  0
    3.3936    0.1059    2.8017 C   0  0  0  0  0  0  0  0  0  0  0  0
    4.3934    0.8692    2.2747 C   0  0  0  0  0  0  0  0  0  0  0  0
    4.1210    1.4181    0.6522 S   0  0  0  0  0  0  0  0  0  0  0  0
    2.6019    0.6106    0.6478 C   0  0  0  0  0  0  0  0  0  0  0  0
    1.5043    0.3876   -0.2109 C   0  0  0  0  0  0  0  0  0  0  0  0
    1.2261    0.6690   -1.5632 C   0  0  0  0  0  0  0  0  0  0  0  0
    1.9117    1.3160   -2.5085 N   0  0  0  0  0  0  0  0  0  0  0  0
    1.1752    1.1860   -3.5847 N   0  0  0  0  0  0  0  0  0  0  0  0
    1.5949    1.7116   -4.8510 C   0  0  0  0  0  0  0  0  0  0  0  0
    2.4889    0.7117   -5.5789 C   0  0  0  0  0  0  0  0  0  0  0  0
    0.0591    0.5112   -3.4559 N   0  0  0  0  0  0  0  0  0  0  0  0
    0.0382    0.1565   -2.1690 C   0  0  0  0  0  0  0  0  0  0  0  0
   -0.9203   -0.5132   -1.3827 C   0  0  0  0  0  0  0  0  0  0  0  0
   -2.2178   -1.0193   -1.6099 C   0  0  0  0  0  0  0  0  0  0  0  0
   -3.3258   -1.2554   -2.9047 S   0  0  0  0  0  0  0  0  0  0  0  0
   -4.4686   -1.9285   -1.7870 C   0  0  0  0  0  0  0  0  0  0  0  0
   -4.0490   -1.9755   -0.4902 C   0  0  0  0  0  0  0  0  0  0  0  0
   -4.8511   -2.5996    0.6104 C   0  0  0  0  0  0  0  0  0  0  0  0
   -4.2712   -3.9608    0.9988 C   0  0  0  0  0  0  0  0  0  0  0  0
   -2.7395   -1.4401   -0.3886 C   0  0  0  0  0  0  0  0  0  0  0  0
   -1.8028   -1.2363    0.6111 N   0  0  0  0  0  0  0  0  0  0  0  0
   -2.2131   -0.8498    1.9465 C   0  0  0  0  0  0  0  0  0  0  0  0
   -3.0753    0.4133    1.9213 C   0  0  0  0  0  0  0  0  0  0  0  0
   -0.6778   -0.6941   -0.0033 C   0  0  0  0  0  0  0  0  0  0  0  0
    0.5848   -0.3785    0.5387 C   0  0  0  0  0  0  0  0  0  0  0  0
    1.1163   -0.6685    1.7920 N   0  0  0  0  0  0  0  0  0  0  0  0
    0.8933   -1.9423    2.4467 C   0  0  0  0  0  0  0  0  0  0  0  0
    1.9038   -2.9922    1.9816 C   0  0  0  0  0  0  0  0  0  0  0  0
    2.3532   -0.0477    1.8501 C   0  0  0  0  0  0  0  0  0  0  0  0
    1.4167    0.3566    4.6747 H   0  0  0  0  0  0  0  0  0  0  0  0
    2.4163    0.0310    6.0966 H   0  0  0  0  0  0  0  0  0  0  0  0
    2.7233    1.4578    5.1011 H   0  0  0  0  0  0  0  0  0  0  0  0
    4.4076   -0.2936    4.6197 H   0  0  0  0  0  0  0  0  0  0  0  0
    3.1277   -1.4501    4.2474 H   0  0  0  0  0  0  0  0  0  0  0  0
    5.3044    1.1562    2.7626 H   0  0  0  0  0  0  0  0  0  0  0  0
    0.6945    1.9155   -5.4337 H   0  0  0  0  0  0  0  0  0  0  0  0
    2.1390    2.6390   -4.6601 H   0  0  0  0  0  0  0  0  0  0  0  0
    3.3700    0.4960   -4.9794 H   0  0  0  0  0  0  0  0  0  0  0  0
    2.8044    1.1220   -6.5341 H   0  0  0  0  0  0  0  0  0  0  0  0
    1.9472   -0.2145   -5.7551 H   0  0  0  0  0  0  0  0  0  0  0  0
   -5.4130   -2.2662   -2.1667 H   0  0  0  0  0  0  0  0  0  0  0  0
   -5.8793   -2.7299    0.2675 H   0  0  0  0  0  0  0  0  0  0  0  0
   -4.8708   -1.9477    1.4863 H   0  0  0  0  0  0  0  0  0  0  0  0
   -4.8429   -4.3997    1.8135 H   0  0  0  0  0  0  0  0  0  0  0  0
   -4.3034   -4.6376    0.1482 H   0  0  0  0  0  0  0  0  0  0  0  0
   -3.2344   -3.8621    1.3133 H   0  0  0  0  0  0  0  0  0  0  0  0
   -1.3247   -0.6428    2.5423 H   0  0  0  0  0  0  0  0  0  0  0  0
   -2.7640   -1.6761    2.4050 H   0  0  0  0  0  0  0  0  0  0  0  0
   -2.5114    1.2368    1.4884 H   0  0  0  0  0  0  0  0  0  0  0  0
   -3.3677    0.6832    2.9329 H   0  0  0  0  0  0  0  0  0  0  0  0
   -3.9711    0.2621    1.3244 H   0  0  0  0  0  0  0  0  0  0  0  0
   -0.1056   -2.2977    2.1963 H   0  0  0  0  0  0  0  0  0  0  0  0
    0.9604   -1.8046    3.5297 H   0  0  0  0  0  0  0  0  0  0  0  0
    1.8131   -3.1416    0.9079 H   0  0  0  0  0  0  0  0  0  0  0  0
    1.7145   -3.9376    2.4836 H   0  0  0  0  0  0  0  0  0  0  0  0
    2.9213   -2.6763    2.1975 H   0  0  0  0  0  0  0  0  0  0  0  0
  1  2  1  0  0  0  0
  2  3  1  0  0  0  0
  3  4  2  0  0  0  0
  4  5  1  0  0  0  0
  5  6  1  0  0  0  0
  6  7  1  0  0  0  0
  7  8  1  0  0  0  0
  8  9  2  0  0  0  0
  9 10  1  0  0  0  0
 10 11  1  0  0  0  0
 11 12  1  0  0  0  0
 10 13  1  0  0  0  0
 13 14  2  0  0  0  0
 14 15  1  0  0  0  0
 15 16  1  0  0  0  0
 16 17  1  0  0  0  0
 17 18  1  0  0  0  0
 18 19  2  0  0  0  0
 19 20  1  0  0  0  0
 20 21  1  0  0  0  0
 19 22  1  0  0  0  0
 22 23  1  0  0  0  0
 23 24  1  0  0  0  0
 24 25  1  0  0  0  0
 23 26  1  0  0  0  0
 26 27  1  0  0  0  0
 27 28  1  0  0  0  0
 28 29  1  0  0  0  0
 29 30  1  0  0  0  0
 28 31  1  0  0  0  0
 31  3  1  0  0  0  0
 31  6  2  0  0  0  0
 27  7  2  0  0  0  0
 14  8  1  0  0  0  0
 26 15  2  0  0  0  0
 22 16  2  0  0  0  0
  1 32  1  0  0  0  0
  1 33  1  0  0  0  0
  1 34  1  0  0  0  0
  2 35  1  0  0  0  0
  2 36  1  0  0  0  0
  4 37  1  0  0  0  0
 11 38  1  0  0  0  0
 11 39  1  0  0  0  0
 12 40  1  0  0  0  0
 12 41  1  0  0  0  0
 12 42  1  0  0  0  0
 18 43  1  0  0  0  0
 20 44  1  0  0  0  0
 20 45  1  0  0  0  0
 21 46  1  0  0  0  0
 21 47  1  0  0  0  0
 21 48  1  0  0  0  0
 24 49  1  0  0  0  0
 24 50  1  0  0  0  0
 25 51  1  0  0  0  0
 25 52  1  0  0  0  0
 25 53  1  0  0  0  0
 29 54  1  0  0  0  0
 29 55  1  0  0  0  0
 30 56  1  0  0  0  0
 30 57  1  0  0  0  0
 30 58  1  0  0  0  0
M  END
