
  xtb     01172215053D
 energy: -40.655551839806 gnorm: 0.000198462950 xtb: 6.4.1 (unknown)
 23 24  0     0  0            999 V2000
   -1.8716   -2.9444    3.0203 C   0  0  0  0  0  0  0  0  0  0  0  0
   -1.1328   -2.1232    1.9796 C   0  0  0  0  0  0  0  0  0  0  0  0
   -0.6662   -0.9311    2.6079 O   0  0  0  0  0  0  0  0  0  0  0  0
    0.0105   -0.0800    1.8433 C   0  0  0  0  0  0  0  0  0  0  0  0
    0.4868    1.1216    2.4553 C   0  0  0  0  0  0  0  0  0  0  0  0
    1.1550    2.0086    1.7893 N   0  0  0  0  0  0  0  0  0  0  0  0
    1.3956    1.7657    0.4766 C   0  0  0  0  0  0  0  0  0  0  0  0
    2.1176    2.7031   -0.2834 C   0  0  0  0  0  0  0  0  0  0  0  0
    2.3648    2.4662   -1.6080 C   0  0  0  0  0  0  0  0  0  0  0  0
    1.8905    1.2835   -2.1912 C   0  0  0  0  0  0  0  0  0  0  0  0
    2.1497    1.0784   -3.4979 F   0  0  0  0  0  0  0  0  0  0  0  0
    1.1839    0.3413   -1.4953 C   0  0  0  0  0  0  0  0  0  0  0  0
    0.9236    0.5730   -0.1341 C   0  0  0  0  0  0  0  0  0  0  0  0
    0.2265   -0.3429    0.5788 N   0  0  0  0  0  0  0  0  0  0  0  0
   -1.2054   -3.1936    3.8417 H   0  0  0  0  0  0  0  0  0  0  0  0
   -2.2398   -3.8614    2.5698 H   0  0  0  0  0  0  0  0  0  0  0  0
   -2.7115   -2.3793    3.4151 H   0  0  0  0  0  0  0  0  0  0  0  0
   -0.2747   -2.6699    1.5726 H   0  0  0  0  0  0  0  0  0  0  0  0
   -1.7878   -1.8518    1.1440 H   0  0  0  0  0  0  0  0  0  0  0  0
    0.2920    1.3092    3.5014 H   0  0  0  0  0  0  0  0  0  0  0  0
    2.4638    3.5995    0.2058 H   0  0  0  0  0  0  0  0  0  0  0  0
    2.9153    3.1653   -2.2174 H   0  0  0  0  0  0  0  0  0  0  0  0
    0.8290   -0.5612   -1.9651 H   0  0  0  0  0  0  0  0  0  0  0  0
  1  2  1  0  0  0  0
  2  3  1  0  0  0  0
  3  4  1  0  0  0  0
  4  5  2  0  0  0  0
  5  6  1  0  0  0  0
  6  7  2  0  0  0  0
  7  8  1  0  0  0  0
  8  9  2  0  0  0  0
  9 10  1  0  0  0  0
 10 11  1  0  0  0  0
 10 12  2  0  0  0  0
 12 13  1  0  0  0  0
 13 14  2  0  0  0  0
 14  4  1  0  0  0  0
 13  7  1  0  0  0  0
  1 15  1  0  0  0  0
  1 16  1  0  0  0  0
  1 17  1  0  0  0  0
  2 18  1  0  0  0  0
  2 19  1  0  0  0  0
  5 20  1  0  0  0  0
  8 21  1  0  0  0  0
  9 22  1  0  0  0  0
 12 23  1  0  0  0  0
M  END
