
  xtb     01172215053D
 energy: -118.794498703801 gnorm: 0.000332144851 xtb: 6.4.1 (unknown)
 50 53  0     0  0            999 V2000
    4.3972   -3.8749    2.1336 C   0  0  0  0  0  0  0  0  0  0  0  0
    4.5512   -2.8138    3.2148 C   0  0  0  0  0  0  0  0  0  0  0  0
    3.3248   -2.1369    3.4815 O   0  0  0  0  0  0  0  0  0  0  0  0
    2.7855   -1.2719    2.6184 C   0  0  0  0  0  0  0  0  0  0  0  0
    3.3630   -0.6771    1.4904 C   0  0  0  0  0  0  0  0  0  0  0  0
    4.6276   -0.9594    1.1212 F   0  0  0  0  0  0  0  0  0  0  0  0
    2.6591    0.2249    0.7010 C   0  0  0  0  0  0  0  0  0  0  0  0
    3.2693    0.7179   -0.3762 F   0  0  0  0  0  0  0  0  0  0  0  0
    1.3443    0.5879    0.9811 C   0  0  0  0  0  0  0  0  0  0  0  0
    0.6175    1.5007    0.0840 C   0  0  0  0  0  0  0  0  0  0  0  0
    1.2352    2.5991   -0.2681 N   0  0  0  0  0  0  0  0  0  0  0  0
    0.6059    3.4666   -1.0772 C   0  0  0  0  0  0  0  0  0  0  0  0
    1.2556    4.6498   -1.4784 C   0  0  0  0  0  0  0  0  0  0  0  0
    0.5843    5.5332   -2.2748 C   0  0  0  0  0  0  0  0  0  0  0  0
    1.1770    6.6658   -2.6704 F   0  0  0  0  0  0  0  0  0  0  0  0
   -0.7423    5.2789   -2.6952 C   0  0  0  0  0  0  0  0  0  0  0  0
   -1.3537    6.1819   -3.4706 F   0  0  0  0  0  0  0  0  0  0  0  0
   -1.3943    4.1366   -2.3273 C   0  0  0  0  0  0  0  0  0  0  0  0
   -0.7238    3.2031   -1.5136 C   0  0  0  0  0  0  0  0  0  0  0  0
   -1.3322    2.0564   -1.1704 N   0  0  0  0  0  0  0  0  0  0  0  0
   -0.6952    1.2058   -0.4069 C   0  0  0  0  0  0  0  0  0  0  0  0
   -1.4019   -0.0425   -0.0761 C   0  0  0  0  0  0  0  0  0  0  0  0
   -0.8153   -1.2983   -0.1696 C   0  0  0  0  0  0  0  0  0  0  0  0
    0.4377   -1.4218   -0.6410 F   0  0  0  0  0  0  0  0  0  0  0  0
   -1.4845   -2.4640    0.1808 C   0  0  0  0  0  0  0  0  0  0  0  0
   -0.8063   -3.6247    0.0540 F   0  0  0  0  0  0  0  0  0  0  0  0
   -2.8040   -2.4343    0.6445 C   0  0  0  0  0  0  0  0  0  0  0  0
   -3.5702   -3.4590    1.0167 O   0  0  0  0  0  0  0  0  0  0  0  0
   -3.0858   -4.8001    0.9875 C   0  0  0  0  0  0  0  0  0  0  0  0
   -4.2150   -5.6865    1.4828 C   0  0  0  0  0  0  0  0  0  0  0  0
   -3.3988   -1.1601    0.7218 C   0  0  0  0  0  0  0  0  0  0  0  0
   -4.6629   -1.0855    1.1547 F   0  0  0  0  0  0  0  0  0  0  0  0
   -2.7271   -0.0045    0.3695 C   0  0  0  0  0  0  0  0  0  0  0  0
   -3.3503    1.1654    0.4954 F   0  0  0  0  0  0  0  0  0  0  0  0
    0.7722    0.0225    2.1201 C   0  0  0  0  0  0  0  0  0  0  0  0
   -0.4746    0.3639    2.4832 F   0  0  0  0  0  0  0  0  0  0  0  0
    1.4651   -0.8775    2.9063 C   0  0  0  0  0  0  0  0  0  0  0  0
    0.8664   -1.4080    3.9821 F   0  0  0  0  0  0  0  0  0  0  0  0
    5.3184   -4.4446    2.0574 H   0  0  0  0  0  0  0  0  0  0  0  0
    4.1887   -3.4261    1.1660 H   0  0  0  0  0  0  0  0  0  0  0  0
    3.5840   -4.5501    2.3891 H   0  0  0  0  0  0  0  0  0  0  0  0
    5.3449   -2.1054    2.9643 H   0  0  0  0  0  0  0  0  0  0  0  0
    4.7885   -3.2828    4.1726 H   0  0  0  0  0  0  0  0  0  0  0  0
    2.2652    4.8419   -1.1546 H   0  0  0  0  0  0  0  0  0  0  0  0
   -2.4040    3.9390   -2.6474 H   0  0  0  0  0  0  0  0  0  0  0  0
   -2.2090   -4.8956    1.6372 H   0  0  0  0  0  0  0  0  0  0  0  0
   -2.8035   -5.0731   -0.0354 H   0  0  0  0  0  0  0  0  0  0  0  0
   -5.0864   -5.5707    0.8447 H   0  0  0  0  0  0  0  0  0  0  0  0
   -4.4891   -5.4089    2.4964 H   0  0  0  0  0  0  0  0  0  0  0  0
   -3.8971   -6.7245    1.4694 H   0  0  0  0  0  0  0  0  0  0  0  0
  1  2  1  0  0  0  0
  2  3  1  0  0  0  0
  3  4  1  0  0  0  0
  4  5  2  0  0  0  0
  5  6  1  0  0  0  0
  5  7  1  0  0  0  0
  7  8  1  0  0  0  0
  7  9  2  0  0  0  0
  9 10  1  0  0  0  0
 10 11  2  0  0  0  0
 11 12  1  0  0  0  0
 12 13  2  0  0  0  0
 13 14  1  0  0  0  0
 14 15  1  0  0  0  0
 14 16  2  0  0  0  0
 16 17  1  0  0  0  0
 16 18  1  0  0  0  0
 18 19  2  0  0  0  0
 19 20  1  0  0  0  0
 20 21  2  0  0  0  0
 21 22  1  0  0  0  0
 22 23  2  0  0  0  0
 23 24  1  0  0  0  0
 23 25  1  0  0  0  0
 25 26  1  0  0  0  0
 25 27  2  0  0  0  0
 27 28  1  0  0  0  0
 28 29  1  0  0  0  0
 29 30  1  0  0  0  0
 27 31  1  0  0  0  0
 31 32  1  0  0  0  0
 31 33  2  0  0  0  0
 33 34  1  0  0  0  0
  9 35  1  0  0  0  0
 35 36  1  0  0  0  0
 35 37  2  0  0  0  0
 37 38  1  0  0  0  0
 37  4  1  0  0  0  0
 21 10  1  0  0  0  0
 33 22  1  0  0  0  0
 19 12  1  0  0  0  0
  1 39  1  0  0  0  0
  1 40  1  0  0  0  0
  1 41  1  0  0  0  0
  2 42  1  0  0  0  0
  2 43  1  0  0  0  0
 13 44  1  0  0  0  0
 18 45  1  0  0  0  0
 29 46  1  0  0  0  0
 29 47  1  0  0  0  0
 30 48  1  0  0  0  0
 30 49  1  0  0  0  0
 30 50  1  0  0  0  0
M  END
