
  xtb     01172215053D
 energy: -57.945590493127 gnorm: 0.000543467706 xtb: 6.4.1 (unknown)
 33 34  0     0  0            999 V2000
   -0.4265   -4.2033    2.9097 C   0  0  0  0  0  0  0  0  0  0  0  0
   -0.1603   -4.1540    1.4093 C   0  0  0  0  0  0  0  0  0  0  0  0
   -0.4433   -2.8856    0.8462 O   0  0  0  0  0  0  0  0  0  0  0  0
    0.3873   -1.8381    1.0820 C   0  0  0  0  0  0  0  0  0  0  0  0
    1.6332   -1.9408    1.6865 C   0  0  0  0  0  0  0  0  0  0  0  0
    2.4018   -0.8057    1.8725 C   0  0  0  0  0  0  0  0  0  0  0  0
    3.5996   -0.9318    2.4733 F   0  0  0  0  0  0  0  0  0  0  0  0
    1.9560    0.4351    1.4639 C   0  0  0  0  0  0  0  0  0  0  0  0
    2.7249    1.5188    1.6850 F   0  0  0  0  0  0  0  0  0  0  0  0
    0.7103    0.5724    0.8423 C   0  0  0  0  0  0  0  0  0  0  0  0
    0.2400    1.8700    0.3877 C   0  0  0  0  0  0  0  0  0  0  0  0
   -1.0445    2.3412    0.3636 C   0  0  0  0  0  0  0  0  0  0  0  0
   -1.1474    3.6342   -0.1840 C   0  0  0  0  0  0  0  0  0  0  0  0
    0.0542    4.1324   -0.5781 C   0  0  0  0  0  0  0  0  0  0  0  0
    1.3414    3.0429   -0.2744 S   0  0  0  0  0  0  0  0  0  0  0  0
   -0.0730   -0.5764    0.6525 C   0  0  0  0  0  0  0  0  0  0  0  0
   -1.3112   -0.4448    0.0828 O   0  0  0  0  0  0  0  0  0  0  0  0
   -1.4912   -1.0438   -1.1954 C   0  0  0  0  0  0  0  0  0  0  0  0
   -0.6724   -0.3456   -2.2757 C   0  0  0  0  0  0  0  0  0  0  0  0
    0.2220   -3.5151    3.4458 H   0  0  0  0  0  0  0  0  0  0  0  0
   -0.2534   -5.2106    3.2778 H   0  0  0  0  0  0  0  0  0  0  0  0
   -1.4585   -3.9261    3.1083 H   0  0  0  0  0  0  0  0  0  0  0  0
   -0.8432   -4.8309    0.8886 H   0  0  0  0  0  0  0  0  0  0  0  0
    0.8675   -4.4591    1.1791 H   0  0  0  0  0  0  0  0  0  0  0  0
    2.0334   -2.8798    2.0291 H   0  0  0  0  0  0  0  0  0  0  0  0
   -1.8778    1.7779    0.7388 H   0  0  0  0  0  0  0  0  0  0  0  0
   -2.0758    4.1684   -0.2801 H   0  0  0  0  0  0  0  0  0  0  0  0
    0.2667    5.0821   -1.0280 H   0  0  0  0  0  0  0  0  0  0  0  0
   -2.5596   -0.9322   -1.3931 H   0  0  0  0  0  0  0  0  0  0  0  0
   -1.2445   -2.1098   -1.1574 H   0  0  0  0  0  0  0  0  0  0  0  0
   -0.9196    0.7129   -2.3087 H   0  0  0  0  0  0  0  0  0  0  0  0
    0.3920   -0.4465   -2.0712 H   0  0  0  0  0  0  0  0  0  0  0  0
   -0.8873   -0.7906   -3.2433 H   0  0  0  0  0  0  0  0  0  0  0  0
  1  2  1  0  0  0  0
  2  3  1  0  0  0  0
  3  4  1  0  0  0  0
  4  5  2  0  0  0  0
  5  6  1  0  0  0  0
  6  7  1  0  0  0  0
  6  8  2  0  0  0  0
  8  9  1  0  0  0  0
  8 10  1  0  0  0  0
 10 11  1  0  0  0  0
 11 12  2  0  0  0  0
 12 13  1  0  0  0  0
 13 14  2  0  0  0  0
 14 15  1  0  0  0  0
 10 16  2  0  0  0  0
 16 17  1  0  0  0  0
 17 18  1  0  0  0  0
 18 19  1  0  0  0  0
 16  4  1  0  0  0  0
 15 11  1  0  0  0  0
  1 20  1  0  0  0  0
  1 21  1  0  0  0  0
  1 22  1  0  0  0  0
  2 23  1  0  0  0  0
  2 24  1  0  0  0  0
  5 25  1  0  0  0  0
 12 26  1  0  0  0  0
 13 27  1  0  0  0  0
 14 28  1  0  0  0  0
 18 29  1  0  0  0  0
 18 30  1  0  0  0  0
 19 31  1  0  0  0  0
 19 32  1  0  0  0  0
 19 33  1  0  0  0  0
M  END
