
  xtb     01172215053D
 energy: -98.991358617662 gnorm: 0.000176018126 xtb: 6.4.1 (unknown)
 58 65  0     0  0            999 V2000
    8.6783   -1.2730    2.5117 C   0  0  0  0  0  0  0  0  0  0  0  0
    8.4311   -0.3115    1.3538 C   0  0  0  0  0  0  0  0  0  0  0  0
    7.0952    0.1494    1.3065 O   0  0  0  0  0  0  0  0  0  0  0  0
    6.1438   -0.6926    0.8455 C   0  0  0  0  0  0  0  0  0  0  0  0
    6.2864   -1.9324    0.2946 C   0  0  0  0  0  0  0  0  0  0  0  0
    4.7798   -2.6471   -0.1904 S   0  0  0  0  0  0  0  0  0  0  0  0
    3.9127   -1.2548    0.3596 C   0  0  0  0  0  0  0  0  0  0  0  0
    4.7777   -0.3005    0.8823 C   0  0  0  0  0  0  0  0  0  0  0  0
    3.9756    1.1391    1.4521 S   0  0  0  0  0  0  0  0  0  0  0  0
    2.4611    0.4435    0.9792 C   0  0  0  0  0  0  0  0  0  0  0  0
    1.0974    0.7803    0.9430 C   0  0  0  0  0  0  0  0  0  0  0  0
    0.4483    1.9841    1.2877 C   0  0  0  0  0  0  0  0  0  0  0  0
    0.9713    3.0902    1.7937 N   0  0  0  0  0  0  0  0  0  0  0  0
   -0.2084    4.1899    1.9446 S   0  0  0  0  0  0  0  0  0  0  0  0
   -1.4323    3.2960    1.3709 N   0  0  0  0  0  0  0  0  0  0  0  0
   -0.9585    2.1041    1.0422 C   0  0  0  0  0  0  0  0  0  0  0  0
   -1.6582    0.9856    0.5438 C   0  0  0  0  0  0  0  0  0  0  0  0
   -3.0311    0.8061    0.3083 C   0  0  0  0  0  0  0  0  0  0  0  0
   -4.5060    1.7085    0.3889 S   0  0  0  0  0  0  0  0  0  0  0  0
   -5.3814    0.2741   -0.0877 C   0  0  0  0  0  0  0  0  0  0  0  0
   -6.7556    0.0177   -0.3152 C   0  0  0  0  0  0  0  0  0  0  0  0
   -7.8343    1.0389   -0.1508 C   0  0  0  0  0  0  0  0  0  0  0  0
   -8.0649    1.3576    1.3265 C   0  0  0  0  0  0  0  0  0  0  0  0
   -6.9479   -1.2792   -0.6741 C   0  0  0  0  0  0  0  0  0  0  0  0
   -5.4909   -2.2153   -0.7555 S   0  0  0  0  0  0  0  0  0  0  0  0
   -4.5602   -0.8313   -0.2909 C   0  0  0  0  0  0  0  0  0  0  0  0
   -3.2072   -0.5216   -0.0725 C   0  0  0  0  0  0  0  0  0  0  0  0
   -1.9995   -1.1642   -0.0943 N   0  0  0  0  0  0  0  0  0  0  0  0
   -1.9802   -2.5917   -0.3033 C   0  0  0  0  0  0  0  0  0  0  0  0
   -2.1193   -2.9539   -1.7827 C   0  0  0  0  0  0  0  0  0  0  0  0
   -1.0168   -0.2545    0.2610 C   0  0  0  0  0  0  0  0  0  0  0  0
    0.4020   -0.3305    0.3840 C   0  0  0  0  0  0  0  0  0  0  0  0
    1.3423   -1.2937    0.0581 N   0  0  0  0  0  0  0  0  0  0  0  0
    1.2629   -2.5323   -0.6779 C   0  0  0  0  0  0  0  0  0  0  0  0
    1.3745   -3.7491    0.2418 C   0  0  0  0  0  0  0  0  0  0  0  0
    2.5759   -0.8286    0.4237 C   0  0  0  0  0  0  0  0  0  0  0  0
    8.0719   -2.1694    2.4064 H   0  0  0  0  0  0  0  0  0  0  0  0
    8.4202   -0.7910    3.4512 H   0  0  0  0  0  0  0  0  0  0  0  0
    9.7266   -1.5569    2.5349 H   0  0  0  0  0  0  0  0  0  0  0  0
    9.0259    0.5957    1.4873 H   0  0  0  0  0  0  0  0  0  0  0  0
    8.7070   -0.7744    0.3978 H   0  0  0  0  0  0  0  0  0  0  0  0
    7.1778   -2.5000    0.1229 H   0  0  0  0  0  0  0  0  0  0  0  0
   -8.7574    0.6672   -0.5989 H   0  0  0  0  0  0  0  0  0  0  0  0
   -7.5371    1.9519   -0.6722 H   0  0  0  0  0  0  0  0  0  0  0  0
   -7.1542    1.7469    1.7747 H   0  0  0  0  0  0  0  0  0  0  0  0
   -8.3622    0.4609    1.8661 H   0  0  0  0  0  0  0  0  0  0  0  0
   -8.8492    2.1029    1.4316 H   0  0  0  0  0  0  0  0  0  0  0  0
   -7.8744   -1.7649   -0.9082 H   0  0  0  0  0  0  0  0  0  0  0  0
   -1.0796   -3.0126    0.1340 H   0  0  0  0  0  0  0  0  0  0  0  0
   -2.8370   -3.0109    0.2361 H   0  0  0  0  0  0  0  0  0  0  0  0
   -3.1060   -2.6750   -2.1422 H   0  0  0  0  0  0  0  0  0  0  0  0
   -1.9955   -4.0253   -1.9140 H   0  0  0  0  0  0  0  0  0  0  0  0
   -1.3826   -2.4344   -2.3922 H   0  0  0  0  0  0  0  0  0  0  0  0
    2.1073   -2.5497   -1.3760 H   0  0  0  0  0  0  0  0  0  0  0  0
    0.3503   -2.5511   -1.2659 H   0  0  0  0  0  0  0  0  0  0  0  0
    0.6498   -3.7051    1.0523 H   0  0  0  0  0  0  0  0  0  0  0  0
    1.2129   -4.6595   -0.3287 H   0  0  0  0  0  0  0  0  0  0  0  0
    2.3668   -3.7908    0.6823 H   0  0  0  0  0  0  0  0  0  0  0  0
  1  2  1  0  0  0  0
  2  3  1  0  0  0  0
  3  4  1  0  0  0  0
  4  5  2  0  0  0  0
  5  6  1  0  0  0  0
  6  7  1  0  0  0  0
  7  8  2  0  0  0  0
  8  9  1  0  0  0  0
  9 10  1  0  0  0  0
 10 11  1  0  0  0  0
 11 12  1  0  0  0  0
 12 13  2  0  0  0  0
 13 14  1  0  0  0  0
 14 15  1  0  0  0  0
 15 16  2  0  0  0  0
 16 17  1  0  0  0  0
 17 18  1  0  0  0  0
 18 19  1  0  0  0  0
 19 20  1  0  0  0  0
 20 21  1  0  0  0  0
 21 22  1  0  0  0  0
 22 23  1  0  0  0  0
 21 24  2  0  0  0  0
 24 25  1  0  0  0  0
 25 26  1  0  0  0  0
 26 27  1  0  0  0  0
 27 28  1  0  0  0  0
 28 29  1  0  0  0  0
 29 30  1  0  0  0  0
 28 31  1  0  0  0  0
 31 32  1  0  0  0  0
 32 33  1  0  0  0  0
 33 34  1  0  0  0  0
 34 35  1  0  0  0  0
 33 36  1  0  0  0  0
  8  4  1  0  0  0  0
 36 10  2  0  0  0  0
 36  7  1  0  0  0  0
 32 11  2  0  0  0  0
 16 12  1  0  0  0  0
 31 17  2  0  0  0  0
 27 18  2  0  0  0  0
 26 20  2  0  0  0  0
  1 37  1  0  0  0  0
  1 38  1  0  0  0  0
  1 39  1  0  0  0  0
  2 40  1  0  0  0  0
  2 41  1  0  0  0  0
  5 42  1  0  0  0  0
 22 43  1  0  0  0  0
 22 44  1  0  0  0  0
 23 45  1  0  0  0  0
 23 46  1  0  0  0  0
 23 47  1  0  0  0  0
 24 48  1  0  0  0  0
 29 49  1  0  0  0  0
 29 50  1  0  0  0  0
 30 51  1  0  0  0  0
 30 52  1  0  0  0  0
 30 53  1  0  0  0  0
 34 54  1  0  0  0  0
 34 55  1  0  0  0  0
 35 56  1  0  0  0  0
 35 57  1  0  0  0  0
 35 58  1  0  0  0  0
M  END
