
  xtb     01172215053D
 energy: -102.586291392259 gnorm: 0.000581241979 xtb: 6.4.1 (unknown)
 72 79  0     0  0            999 V2000
    2.9140    0.2798   -1.5099 C   0  0  0  0  0  0  0  0  0  0  0  0
    1.8006    1.1453   -0.9365 C   0  0  0  0  0  0  0  0  0  0  0  0
    1.1475    0.6341    0.3692 C   0  0  0  0  0  0  0  0  0  0  0  0
    2.1286    0.6598    1.5480 C   0  0  0  0  0  0  0  0  0  0  0  0
    1.4740    0.2067    2.8476 C   0  0  0  0  0  0  0  0  0  0  0  0
    0.4819   -0.7014    0.1876 C   0  0  0  0  0  0  0  0  0  0  0  0
   -0.8752   -0.5998    0.2199 C   0  0  0  0  0  0  0  0  0  0  0  0
   -1.2671    0.7674    0.4355 C   0  0  0  0  0  0  0  0  0  0  0  0
   -2.5100    1.3757    0.4798 C   0  0  0  0  0  0  0  0  0  0  0  0
   -2.5347    2.7382    0.7439 C   0  0  0  0  0  0  0  0  0  0  0  0
   -1.3374    3.4828    0.9554 C   0  0  0  0  0  0  0  0  0  0  0  0
   -0.0895    2.8598    0.8649 C   0  0  0  0  0  0  0  0  0  0  0  0
   -0.0685    1.5165    0.6025 C   0  0  0  0  0  0  0  0  0  0  0  0
   -1.7697    4.8048    1.2071 C   0  0  0  0  0  0  0  0  0  0  0  0
   -1.1315    6.3691    1.5627 S   0  0  0  0  0  0  0  0  0  0  0  0
   -2.7374    7.0181    1.6145 C   0  0  0  0  0  0  0  0  0  0  0  0
   -3.7159    6.1043    1.3751 C   0  0  0  0  0  0  0  0  0  0  0  0
   -3.1630    4.8286    1.1401 C   0  0  0  0  0  0  0  0  0  0  0  0
   -3.6244    3.5717    0.8523 N   0  0  0  0  0  0  0  0  0  0  0  0
   -4.9946    3.1721    0.7099 C   0  0  0  0  0  0  0  0  0  0  0  0
   -1.5408   -1.9349    0.0347 C   0  0  0  0  0  0  0  0  0  0  0  0
   -2.5088   -1.9581   -1.1553 C   0  0  0  0  0  0  0  0  0  0  0  0
   -1.8376   -1.5107   -2.4485 C   0  0  0  0  0  0  0  0  0  0  0  0
   -2.2087   -2.4464    1.3325 C   0  0  0  0  0  0  0  0  0  0  0  0
   -3.3322   -1.5845    1.8914 C   0  0  0  0  0  0  0  0  0  0  0  0
   -0.3240   -2.8188   -0.1896 C   0  0  0  0  0  0  0  0  0  0  0  0
   -0.3025   -4.1641   -0.4415 C   0  0  0  0  0  0  0  0  0  0  0  0
    0.9457   -4.7870   -0.5290 C   0  0  0  0  0  0  0  0  0  0  0  0
    1.3779   -6.1114   -0.7677 C   0  0  0  0  0  0  0  0  0  0  0  0
    0.7394   -7.6801   -1.1032 S   0  0  0  0  0  0  0  0  0  0  0  0
    2.3457   -8.3284   -1.1549 C   0  0  0  0  0  0  0  0  0  0  0  0
    3.3244   -7.4112   -0.9301 C   0  0  0  0  0  0  0  0  0  0  0  0
    2.7715   -6.1334   -0.7065 C   0  0  0  0  0  0  0  0  0  0  0  0
    3.2334   -4.8714   -0.4424 N   0  0  0  0  0  0  0  0  0  0  0  0
    4.6030   -4.4741   -0.2875 C   0  0  0  0  0  0  0  0  0  0  0  0
    2.1431   -4.0395   -0.3290 C   0  0  0  0  0  0  0  0  0  0  0  0
    2.1176   -2.6760   -0.0707 C   0  0  0  0  0  0  0  0  0  0  0  0
    0.8743   -2.0686   -0.0267 C   0  0  0  0  0  0  0  0  0  0  0  0
    3.7330    0.1695   -0.8037 H   0  0  0  0  0  0  0  0  0  0  0  0
    3.3085    0.7490   -2.4091 H   0  0  0  0  0  0  0  0  0  0  0  0
    2.5379   -0.7038   -1.7763 H   0  0  0  0  0  0  0  0  0  0  0  0
    1.0112    1.2368   -1.6872 H   0  0  0  0  0  0  0  0  0  0  0  0
    2.1882    2.1484   -0.7439 H   0  0  0  0  0  0  0  0  0  0  0  0
    2.9747    0.0070    1.3295 H   0  0  0  0  0  0  0  0  0  0  0  0
    2.5097    1.6766    1.6665 H   0  0  0  0  0  0  0  0  0  0  0  0
    1.1249   -0.8198    2.7600 H   0  0  0  0  0  0  0  0  0  0  0  0
    2.1854    0.2613    3.6689 H   0  0  0  0  0  0  0  0  0  0  0  0
    0.6218    0.8396    3.0850 H   0  0  0  0  0  0  0  0  0  0  0  0
   -3.4204    0.8240    0.3109 H   0  0  0  0  0  0  0  0  0  0  0  0
    0.8130    3.4368    1.0005 H   0  0  0  0  0  0  0  0  0  0  0  0
   -2.8572    8.0624    1.8250 H   0  0  0  0  0  0  0  0  0  0  0  0
   -4.7642    6.3434    1.3716 H   0  0  0  0  0  0  0  0  0  0  0  0
   -5.2844    2.4807    1.5068 H   0  0  0  0  0  0  0  0  0  0  0  0
   -5.1503    2.6797   -0.2531 H   0  0  0  0  0  0  0  0  0  0  0  0
   -5.6307    4.0529    0.7602 H   0  0  0  0  0  0  0  0  0  0  0  0
   -3.3539   -1.3005   -0.9475 H   0  0  0  0  0  0  0  0  0  0  0  0
   -2.8935   -2.9733   -1.2764 H   0  0  0  0  0  0  0  0  0  0  0  0
   -0.9882   -2.1504   -2.6775 H   0  0  0  0  0  0  0  0  0  0  0  0
   -2.5411   -1.5596   -3.2769 H   0  0  0  0  0  0  0  0  0  0  0  0
   -1.4811   -0.4870   -2.3577 H   0  0  0  0  0  0  0  0  0  0  0  0
   -2.5910   -3.4507    1.1357 H   0  0  0  0  0  0  0  0  0  0  0  0
   -1.4285   -2.5350    2.0930 H   0  0  0  0  0  0  0  0  0  0  0  0
   -3.7375   -2.0558    2.7848 H   0  0  0  0  0  0  0  0  0  0  0  0
   -4.1420   -1.4759    1.1743 H   0  0  0  0  0  0  0  0  0  0  0  0
   -2.9625   -0.6001    2.1640 H   0  0  0  0  0  0  0  0  0  0  0  0
   -1.2048   -4.7428   -0.5708 H   0  0  0  0  0  0  0  0  0  0  0  0
    2.4654   -9.3750   -1.3532 H   0  0  0  0  0  0  0  0  0  0  0  0
    4.3729   -7.6498   -0.9267 H   0  0  0  0  0  0  0  0  0  0  0  0
    4.8362   -3.6410   -0.9552 H   0  0  0  0  0  0  0  0  0  0  0  0
    4.8055   -4.1641    0.7419 H   0  0  0  0  0  0  0  0  0  0  0  0
    5.2486   -5.3136   -0.5348 H   0  0  0  0  0  0  0  0  0  0  0  0
    3.0275   -2.1229    0.0967 H   0  0  0  0  0  0  0  0  0  0  0  0
  1  2  1  0  0  0  0
  2  3  1  0  0  0  0
  3  4  1  0  0  0  0
  4  5  1  0  0  0  0
  3  6  1  0  0  0  0
  6  7  2  0  0  0  0
  7  8  1  0  0  0  0
  8  9  2  0  0  0  0
  9 10  1  0  0  0  0
 10 11  2  0  0  0  0
 11 12  1  0  0  0  0
 12 13  2  0  0  0  0
 11 14  1  0  0  0  0
 14 15  1  0  0  0  0
 15 16  1  0  0  0  0
 16 17  2  0  0  0  0
 17 18  1  0  0  0  0
 18 19  1  0  0  0  0
 19 20  1  0  0  0  0
  7 21  1  0  0  0  0
 21 22  1  0  0  0  0
 22 23  1  0  0  0  0
 21 24  1  0  0  0  0
 24 25  1  0  0  0  0
 21 26  1  0  0  0  0
 26 27  2  0  0  0  0
 27 28  1  0  0  0  0
 28 29  1  0  0  0  0
 29 30  1  0  0  0  0
 30 31  1  0  0  0  0
 31 32  2  0  0  0  0
 32 33  1  0  0  0  0
 33 34  1  0  0  0  0
 34 35  1  0  0  0  0
 34 36  1  0  0  0  0
 36 37  1  0  0  0  0
 37 38  2  0  0  0  0
 13  3  1  0  0  0  0
 18 14  2  0  0  0  0
 38 26  1  0  0  0  0
 38  6  1  0  0  0  0
 13  8  1  0  0  0  0
 36 28  2  0  0  0  0
 19 10  1  0  0  0  0
 33 29  2  0  0  0  0
  1 39  1  0  0  0  0
  1 40  1  0  0  0  0
  1 41  1  0  0  0  0
  2 42  1  0  0  0  0
  2 43  1  0  0  0  0
  4 44  1  0  0  0  0
  4 45  1  0  0  0  0
  5 46  1  0  0  0  0
  5 47  1  0  0  0  0
  5 48  1  0  0  0  0
  9 49  1  0  0  0  0
 12 50  1  0  0  0  0
 16 51  1  0  0  0  0
 17 52  1  0  0  0  0
 20 53  1  0  0  0  0
 20 54  1  0  0  0  0
 20 55  1  0  0  0  0
 22 56  1  0  0  0  0
 22 57  1  0  0  0  0
 23 58  1  0  0  0  0
 23 59  1  0  0  0  0
 23 60  1  0  0  0  0
 24 61  1  0  0  0  0
 24 62  1  0  0  0  0
 25 63  1  0  0  0  0
 25 64  1  0  0  0  0
 25 65  1  0  0  0  0
 27 66  1  0  0  0  0
 31 67  1  0  0  0  0
 32 68  1  0  0  0  0
 35 69  1  0  0  0  0
 35 70  1  0  0  0  0
 35 71  1  0  0  0  0
 37 72  1  0  0  0  0
M  END
