
  xtb     01172215053D
 energy: -95.863539952964 gnorm: 0.000673969476 xtb: 6.4.1 (unknown)
 64 71  0     0  0            999 V2000
    3.3642    1.5679    0.7067 C   0  0  0  0  0  0  0  0  0  0  0  0
    2.3295    0.6643    0.0499 C   0  0  0  0  0  0  0  0  0  0  0  0
    1.4240   -0.1355    1.0171 C   0  0  0  0  0  0  0  0  0  0  0  0
    2.2390   -1.0907    1.8994 C   0  0  0  0  0  0  0  0  0  0  0  0
    1.3527   -2.0368    2.7004 C   0  0  0  0  0  0  0  0  0  0  0  0
    0.3947   -0.8368    0.1746 C   0  0  0  0  0  0  0  0  0  0  0  0
   -0.8541   -0.3370    0.3724 C   0  0  0  0  0  0  0  0  0  0  0  0
   -0.8229    0.6705    1.3931 C   0  0  0  0  0  0  0  0  0  0  0  0
   -1.8335    1.4260    1.9625 C   0  0  0  0  0  0  0  0  0  0  0  0
   -1.4811    2.2866    2.9877 C   0  0  0  0  0  0  0  0  0  0  0  0
   -2.5864    3.3366    3.8595 S   0  0  0  0  0  0  0  0  0  0  0  0
   -1.2783    3.9062    4.8538 C   0  0  0  0  0  0  0  0  0  0  0  0
   -1.1828    4.8307    5.9128 C   0  0  0  0  0  0  0  0  0  0  0  0
    0.0943    4.9240    6.3655 C   0  0  0  0  0  0  0  0  0  0  0  0
    1.2051    3.8993    5.5233 S   0  0  0  0  0  0  0  0  0  0  0  0
   -0.0725    3.3134    4.5208 C   0  0  0  0  0  0  0  0  0  0  0  0
   -0.1515    2.3823    3.4542 C   0  0  0  0  0  0  0  0  0  0  0  0
    0.8602    1.6137    2.8657 C   0  0  0  0  0  0  0  0  0  0  0  0
    0.5278    0.7824    1.8292 C   0  0  0  0  0  0  0  0  0  0  0  0
   -1.8716   -0.9931   -0.5138 C   0  0  0  0  0  0  0  0  0  0  0  0
   -2.5249    0.0141   -1.4792 C   0  0  0  0  0  0  0  0  0  0  0  0
   -1.5070    0.8037   -2.2926 C   0  0  0  0  0  0  0  0  0  0  0  0
   -2.9671   -1.7175    0.2895 C   0  0  0  0  0  0  0  0  0  0  0  0
   -2.4042   -2.6952    1.3130 C   0  0  0  0  0  0  0  0  0  0  0  0
   -0.9893   -1.9758   -1.2607 C   0  0  0  0  0  0  0  0  0  0  0  0
   -1.3512   -2.8798   -2.2222 C   0  0  0  0  0  0  0  0  0  0  0  0
   -0.3545   -3.6900   -2.7792 C   0  0  0  0  0  0  0  0  0  0  0  0
    0.9847   -3.5645   -2.3470 C   0  0  0  0  0  0  0  0  0  0  0  0
    1.3587   -2.6526   -1.3742 C   0  0  0  0  0  0  0  0  0  0  0  0
    0.3626   -1.8570   -0.8347 C   0  0  0  0  0  0  0  0  0  0  0  0
    2.0723   -4.6705   -3.1705 S   0  0  0  0  0  0  0  0  0  0  0  0
    0.7441   -5.3056   -4.0958 C   0  0  0  0  0  0  0  0  0  0  0  0
    0.6278   -6.2986   -5.0887 C   0  0  0  0  0  0  0  0  0  0  0  0
   -0.6585   -6.4222   -5.5066 C   0  0  0  0  0  0  0  0  0  0  0  0
   -1.7528   -5.3440   -4.7110 S   0  0  0  0  0  0  0  0  0  0  0  0
   -0.4553   -4.6925   -3.7770 C   0  0  0  0  0  0  0  0  0  0  0  0
    3.9605    2.0507   -0.0645 H   0  0  0  0  0  0  0  0  0  0  0  0
    2.8841    2.3440    1.2956 H   0  0  0  0  0  0  0  0  0  0  0  0
    4.0360    1.0026    1.3467 H   0  0  0  0  0  0  0  0  0  0  0  0
    2.8394   -0.0549   -0.5950 H   0  0  0  0  0  0  0  0  0  0  0  0
    1.6834    1.2742   -0.5868 H   0  0  0  0  0  0  0  0  0  0  0  0
    2.8491   -0.5054    2.5887 H   0  0  0  0  0  0  0  0  0  0  0  0
    2.9102   -1.6731    1.2650 H   0  0  0  0  0  0  0  0  0  0  0  0
    1.9606   -2.6641    3.3485 H   0  0  0  0  0  0  0  0  0  0  0  0
    0.6575   -1.4737    3.3199 H   0  0  0  0  0  0  0  0  0  0  0  0
    0.7801   -2.6808    2.0369 H   0  0  0  0  0  0  0  0  0  0  0  0
   -2.8576    1.3488    1.6337 H   0  0  0  0  0  0  0  0  0  0  0  0
   -2.0100    5.3886    6.3107 H   0  0  0  0  0  0  0  0  0  0  0  0
    0.4680    5.5415    7.1579 H   0  0  0  0  0  0  0  0  0  0  0  0
    1.8639    1.6895    3.2548 H   0  0  0  0  0  0  0  0  0  0  0  0
   -3.1857   -0.5323   -2.1555 H   0  0  0  0  0  0  0  0  0  0  0  0
   -3.1373    0.7074   -0.8990 H   0  0  0  0  0  0  0  0  0  0  0  0
   -2.0169    1.4727   -2.9820 H   0  0  0  0  0  0  0  0  0  0  0  0
   -0.8716    0.1337   -2.8676 H   0  0  0  0  0  0  0  0  0  0  0  0
   -0.8748    1.4005   -1.6390 H   0  0  0  0  0  0  0  0  0  0  0  0
   -3.5769   -0.9713    0.8027 H   0  0  0  0  0  0  0  0  0  0  0  0
   -3.6123   -2.2536   -0.4098 H   0  0  0  0  0  0  0  0  0  0  0  0
   -3.2143   -3.2112    1.8231 H   0  0  0  0  0  0  0  0  0  0  0  0
   -1.7746   -3.4379    0.8275 H   0  0  0  0  0  0  0  0  0  0  0  0
   -1.8087   -2.1704    2.0562 H   0  0  0  0  0  0  0  0  0  0  0  0
   -2.3704   -2.9876   -2.5624 H   0  0  0  0  0  0  0  0  0  0  0  0
    2.3868   -2.5762   -1.0576 H   0  0  0  0  0  0  0  0  0  0  0  0
    1.4474   -6.8813   -5.4661 H   0  0  0  0  0  0  0  0  0  0  0  0
   -1.0480   -7.0915   -6.2477 H   0  0  0  0  0  0  0  0  0  0  0  0
  1  2  1  0  0  0  0
  2  3  1  0  0  0  0
  3  4  1  0  0  0  0
  4  5  1  0  0  0  0
  3  6  1  0  0  0  0
  6  7  2  0  0  0  0
  7  8  1  0  0  0  0
  8  9  2  0  0  0  0
  9 10  1  0  0  0  0
 10 11  1  0  0  0  0
 11 12  1  0  0  0  0
 12 13  1  0  0  0  0
 13 14  2  0  0  0  0
 14 15  1  0  0  0  0
 15 16  1  0  0  0  0
 16 17  1  0  0  0  0
 17 18  1  0  0  0  0
 18 19  2  0  0  0  0
  7 20  1  0  0  0  0
 20 21  1  0  0  0  0
 21 22  1  0  0  0  0
 20 23  1  0  0  0  0
 23 24  1  0  0  0  0
 20 25  1  0  0  0  0
 25 26  2  0  0  0  0
 26 27  1  0  0  0  0
 27 28  2  0  0  0  0
 28 29  1  0  0  0  0
 29 30  2  0  0  0  0
 28 31  1  0  0  0  0
 31 32  1  0  0  0  0
 32 33  1  0  0  0  0
 33 34  2  0  0  0  0
 34 35  1  0  0  0  0
 35 36  1  0  0  0  0
 19  3  1  0  0  0  0
 30 25  1  0  0  0  0
 36 32  2  0  0  0  0
 30  6  1  0  0  0  0
 19  8  1  0  0  0  0
 36 27  1  0  0  0  0
 17 10  2  0  0  0  0
 16 12  2  0  0  0  0
  1 37  1  0  0  0  0
  1 38  1  0  0  0  0
  1 39  1  0  0  0  0
  2 40  1  0  0  0  0
  2 41  1  0  0  0  0
  4 42  1  0  0  0  0
  4 43  1  0  0  0  0
  5 44  1  0  0  0  0
  5 45  1  0  0  0  0
  5 46  1  0  0  0  0
  9 47  1  0  0  0  0
 13 48  1  0  0  0  0
 14 49  1  0  0  0  0
 18 50  1  0  0  0  0
 21 51  1  0  0  0  0
 21 52  1  0  0  0  0
 22 53  1  0  0  0  0
 22 54  1  0  0  0  0
 22 55  1  0  0  0  0
 23 56  1  0  0  0  0
 23 57  1  0  0  0  0
 24 58  1  0  0  0  0
 24 59  1  0  0  0  0
 24 60  1  0  0  0  0
 26 61  1  0  0  0  0
 29 62  1  0  0  0  0
 33 63  1  0  0  0  0
 34 64  1  0  0  0  0
M  END
