
  xtb     01172215063D
 energy: -145.636744128506 gnorm: 0.000273415694 xtb: 6.4.1 (unknown)
 98108  0     0  0            999 V2000
    5.7938   -2.8949    2.8941 C   0  0  0  0  0  0  0  0  0  0  0  0
    5.9886   -1.6414    3.7493 C   0  0  0  0  0  0  0  0  0  0  0  0
    4.9185   -0.6316    3.4495 C   0  0  0  0  0  0  0  0  0  0  0  0
    3.6914   -0.6884    4.0959 C   0  0  0  0  0  0  0  0  0  0  0  0
    2.6859    0.2121    3.7971 C   0  0  0  0  0  0  0  0  0  0  0  0
    2.8845    1.1991    2.8409 C   0  0  0  0  0  0  0  0  0  0  0  0
    1.7807    2.1661    2.4523 C   0  0  0  0  0  0  0  0  0  0  0  0
    0.7383    2.3413    3.5401 C   0  0  0  0  0  0  0  0  0  0  0  0
   -0.6210    2.2337    3.2849 C   0  0  0  0  0  0  0  0  0  0  0  0
   -1.5419    2.4282    4.2986 C   0  0  0  0  0  0  0  0  0  0  0  0
   -1.1341    2.7403    5.5878 C   0  0  0  0  0  0  0  0  0  0  0  0
   -2.1437    2.9844    6.6724 C   0  0  0  0  0  0  0  0  0  0  0  0
   -2.6528    4.4260    6.6178 C   0  0  0  0  0  0  0  0  0  0  0  0
    0.2273    2.8622    5.8355 C   0  0  0  0  0  0  0  0  0  0  0  0
    1.1510    2.6671    4.8274 C   0  0  0  0  0  0  0  0  0  0  0  0
    2.3009    3.5410    2.0891 C   0  0  0  0  0  0  0  0  0  0  0  0
    2.9726    4.5898    2.7361 C   0  0  0  0  0  0  0  0  0  0  0  0
    3.1714    5.6483    1.9001 C   0  0  0  0  0  0  0  0  0  0  0  0
    2.5434    5.3989    0.3085 S   0  0  0  0  0  0  0  0  0  0  0  0
    2.0022    3.8353    0.7709 C   0  0  0  0  0  0  0  0  0  0  0  0
    1.3349    2.7254    0.1770 C   0  0  0  0  0  0  0  0  0  0  0  0
    0.6348    2.2775   -1.4984 Se  0  0  0  0  0  2  0  0  0  0  0  0
    0.1822    0.6169   -0.6975 C   0  0  0  0  0  0  0  0  0  0  0  0
   -0.4612   -0.4206   -1.3328 C   0  0  0  0  0  0  0  0  0  0  0  0
   -0.7144   -1.5922   -0.6205 C   0  0  0  0  0  0  0  0  0  0  0  0
   -1.3595   -2.7720   -1.0667 C   0  0  0  0  0  0  0  0  0  0  0  0
   -1.4490   -3.7856   -0.1375 C   0  0  0  0  0  0  0  0  0  0  0  0
   -0.7105   -3.3537    1.5257 Se  0  0  0  0  0  2  0  0  0  0  0  0
   -0.2990   -1.6759    0.7384 C   0  0  0  0  0  0  0  0  0  0  0  0
    0.3267   -0.6311    1.3795 C   0  0  0  0  0  0  0  0  0  0  0  0
    0.5789    0.5411    0.6675 C   0  0  0  0  0  0  0  0  0  0  0  0
    1.1992    1.7314    1.1215 C   0  0  0  0  0  0  0  0  0  0  0  0
   -2.0880   -4.9070   -0.7411 C   0  0  0  0  0  0  0  0  0  0  0  0
   -2.5641   -6.4984   -0.3019 S   0  0  0  0  0  0  0  0  0  0  0  0
   -3.1710   -6.7546   -1.9006 C   0  0  0  0  0  0  0  0  0  0  0  0
   -3.0173   -5.6763   -2.7207 C   0  0  0  0  0  0  0  0  0  0  0  0
   -2.3910   -4.6098   -2.0576 C   0  0  0  0  0  0  0  0  0  0  0  0
   -1.9747   -3.1916   -2.3870 C   0  0  0  0  0  0  0  0  0  0  0  0
   -0.9047   -3.1287   -3.4620 C   0  0  0  0  0  0  0  0  0  0  0  0
    0.0860   -4.1017   -3.5002 C   0  0  0  0  0  0  0  0  0  0  0  0
    1.0955   -4.0427   -4.4417 C   0  0  0  0  0  0  0  0  0  0  0  0
    1.1512   -3.0060   -5.3638 C   0  0  0  0  0  0  0  0  0  0  0  0
    2.2173   -2.9683   -6.4205 C   0  0  0  0  0  0  0  0  0  0  0  0
    1.7343   -3.6726   -7.6901 C   0  0  0  0  0  0  0  0  0  0  0  0
    0.1667   -2.0288   -5.3144 C   0  0  0  0  0  0  0  0  0  0  0  0
   -0.8468   -2.0848   -4.3755 C   0  0  0  0  0  0  0  0  0  0  0  0
   -3.2292   -2.4202   -2.7474 C   0  0  0  0  0  0  0  0  0  0  0  0
   -3.8279   -1.5326   -1.8654 C   0  0  0  0  0  0  0  0  0  0  0  0
   -5.0006   -0.8847   -2.2108 C   0  0  0  0  0  0  0  0  0  0  0  0
   -5.6093   -1.1097   -3.4370 C   0  0  0  0  0  0  0  0  0  0  0  0
   -6.8591   -0.3723   -3.8233 C   0  0  0  0  0  0  0  0  0  0  0  0
   -6.5108    0.9557   -4.4988 C   0  0  0  0  0  0  0  0  0  0  0  0
   -5.0086   -2.0026   -4.3158 C   0  0  0  0  0  0  0  0  0  0  0  0
   -3.8390   -2.6530   -3.9755 C   0  0  0  0  0  0  0  0  0  0  0  0
    4.1071    1.2524    2.1838 C   0  0  0  0  0  0  0  0  0  0  0  0
    5.1096    0.3507    2.4868 C   0  0  0  0  0  0  0  0  0  0  0  0
    4.8209   -3.3397    3.0910 H   0  0  0  0  0  0  0  0  0  0  0  0
    5.8453   -2.6431    1.8371 H   0  0  0  0  0  0  0  0  0  0  0  0
    6.5639   -3.6305    3.1149 H   0  0  0  0  0  0  0  0  0  0  0  0
    5.9509   -1.9176    4.8052 H   0  0  0  0  0  0  0  0  0  0  0  0
    6.9716   -1.2132    3.5430 H   0  0  0  0  0  0  0  0  0  0  0  0
    3.5184   -1.4469    4.8464 H   0  0  0  0  0  0  0  0  0  0  0  0
    1.7447    0.1494    4.3246 H   0  0  0  0  0  0  0  0  0  0  0  0
   -0.9698    1.9919    2.2924 H   0  0  0  0  0  0  0  0  0  0  0  0
   -2.5963    2.3306    4.0821 H   0  0  0  0  0  0  0  0  0  0  0  0
   -1.6912    2.7986    7.6485 H   0  0  0  0  0  0  0  0  0  0  0  0
   -2.9872    2.3012    6.5513 H   0  0  0  0  0  0  0  0  0  0  0  0
   -3.1222    4.6256    5.6571 H   0  0  0  0  0  0  0  0  0  0  0  0
   -3.3825    4.6024    7.4047 H   0  0  0  0  0  0  0  0  0  0  0  0
   -1.8277    5.1232    6.7456 H   0  0  0  0  0  0  0  0  0  0  0  0
    0.5688    3.1088    6.8310 H   0  0  0  0  0  0  0  0  0  0  0  0
    2.2061    2.7528    5.0432 H   0  0  0  0  0  0  0  0  0  0  0  0
    3.3024    4.5759    3.7586 H   0  0  0  0  0  0  0  0  0  0  0  0
    3.6581    6.5779    2.1188 H   0  0  0  0  0  0  0  0  0  0  0  0
   -0.7628   -0.3403   -2.3657 H   0  0  0  0  0  0  0  0  0  0  0  0
    0.6262   -0.7106    2.4131 H   0  0  0  0  0  0  0  0  0  0  0  0
   -3.6093   -7.7039   -2.1362 H   0  0  0  0  0  0  0  0  0  0  0  0
   -3.3370   -5.6645   -3.7465 H   0  0  0  0  0  0  0  0  0  0  0  0
    0.0661   -4.9132   -2.7870 H   0  0  0  0  0  0  0  0  0  0  0  0
    1.8543   -4.8123   -4.4575 H   0  0  0  0  0  0  0  0  0  0  0  0
    2.4676   -1.9321   -6.6571 H   0  0  0  0  0  0  0  0  0  0  0  0
    3.1192   -3.4633   -6.0551 H   0  0  0  0  0  0  0  0  0  0  0  0
    0.8432   -3.1840   -8.0778 H   0  0  0  0  0  0  0  0  0  0  0  0
    2.5053   -3.6484   -8.4568 H   0  0  0  0  0  0  0  0  0  0  0  0
    1.4889   -4.7107   -7.4763 H   0  0  0  0  0  0  0  0  0  0  0  0
    0.1935   -1.2084   -6.0177 H   0  0  0  0  0  0  0  0  0  0  0  0
   -1.6031   -1.3128   -4.3654 H   0  0  0  0  0  0  0  0  0  0  0  0
   -3.3813   -1.3415   -0.9013 H   0  0  0  0  0  0  0  0  0  0  0  0
   -5.4511   -0.1957   -1.5103 H   0  0  0  0  0  0  0  0  0  0  0  0
   -7.4619   -0.1758   -2.9343 H   0  0  0  0  0  0  0  0  0  0  0  0
   -7.4508   -0.9812   -4.5099 H   0  0  0  0  0  0  0  0  0  0  0  0
   -5.9358    1.5846   -3.8227 H   0  0  0  0  0  0  0  0  0  0  0  0
   -7.4160    1.4874   -4.7830 H   0  0  0  0  0  0  0  0  0  0  0  0
   -5.9155    0.7808   -5.3922 H   0  0  0  0  0  0  0  0  0  0  0  0
   -5.4655   -2.1945   -5.2765 H   0  0  0  0  0  0  0  0  0  0  0  0
   -3.3852   -3.3413   -4.6738 H   0  0  0  0  0  0  0  0  0  0  0  0
    4.2759    2.0067    1.4289 H   0  0  0  0  0  0  0  0  0  0  0  0
    6.0556    0.4121    1.9676 H   0  0  0  0  0  0  0  0  0  0  0  0
  1  2  1  0  0  0  0
  2  3  1  0  0  0  0
  3  4  2  0  0  0  0
  4  5  1  0  0  0  0
  5  6  2  0  0  0  0
  6  7  1  0  0  0  0
  7  8  1  0  0  0  0
  8  9  2  0  0  0  0
  9 10  1  0  0  0  0
 10 11  2  0  0  0  0
 11 12  1  0  0  0  0
 12 13  1  0  0  0  0
 11 14  1  0  0  0  0
 14 15  2  0  0  0  0
  7 16  1  0  0  0  0
 16 17  1  0  0  0  0
 17 18  2  0  0  0  0
 18 19  1  0  0  0  0
 19 20  1  0  0  0  0
 20 21  1  0  0  0  0
 21 22  1  0  0  0  0
 22 23  1  0  0  0  0
 23 24  2  0  0  0  0
 24 25  1  0  0  0  0
 25 26  1  0  0  0  0
 26 27  2  0  0  0  0
 27 28  1  0  0  0  0
 28 29  1  0  0  0  0
 29 30  1  0  0  0  0
 30 31  2  0  0  0  0
 31 32  1  0  0  0  0
 27 33  1  0  0  0  0
 33 34  1  0  0  0  0
 34 35  1  0  0  0  0
 35 36  2  0  0  0  0
 36 37  1  0  0  0  0
 37 38  1  0  0  0  0
 38 39  1  0  0  0  0
 39 40  2  0  0  0  0
 40 41  1  0  0  0  0
 41 42  2  0  0  0  0
 42 43  1  0  0  0  0
 43 44  1  0  0  0  0
 42 45  1  0  0  0  0
 45 46  2  0  0  0  0
 38 47  1  0  0  0  0
 47 48  2  0  0  0  0
 48 49  1  0  0  0  0
 49 50  2  0  0  0  0
 50 51  1  0  0  0  0
 51 52  1  0  0  0  0
 50 53  1  0  0  0  0
 53 54  2  0  0  0  0
  6 55  1  0  0  0  0
 55 56  2  0  0  0  0
 56  3  1  0  0  0  0
 32  7  1  0  0  0  0
 37 33  2  0  0  0  0
 46 39  1  0  0  0  0
 54 47  1  0  0  0  0
 15  8  1  0  0  0  0
 20 16  2  0  0  0  0
 32 21  2  0  0  0  0
 31 23  1  0  0  0  0
 29 25  2  0  0  0  0
 38 26  1  0  0  0  0
  1 57  1  0  0  0  0
  1 58  1  0  0  0  0
  1 59  1  0  0  0  0
  2 60  1  0  0  0  0
  2 61  1  0  0  0  0
  4 62  1  0  0  0  0
  5 63  1  0  0  0  0
  9 64  1  0  0  0  0
 10 65  1  0  0  0  0
 12 66  1  0  0  0  0
 12 67  1  0  0  0  0
 13 68  1  0  0  0  0
 13 69  1  0  0  0  0
 13 70  1  0  0  0  0
 14 71  1  0  0  0  0
 15 72  1  0  0  0  0
 17 73  1  0  0  0  0
 18 74  1  0  0  0  0
 24 75  1  0  0  0  0
 30 76  1  0  0  0  0
 35 77  1  0  0  0  0
 36 78  1  0  0  0  0
 40 79  1  0  0  0  0
 41 80  1  0  0  0  0
 43 81  1  0  0  0  0
 43 82  1  0  0  0  0
 44 83  1  0  0  0  0
 44 84  1  0  0  0  0
 44 85  1  0  0  0  0
 45 86  1  0  0  0  0
 46 87  1  0  0  0  0
 48 88  1  0  0  0  0
 49 89  1  0  0  0  0
 51 90  1  0  0  0  0
 51 91  1  0  0  0  0
 52 92  1  0  0  0  0
 52 93  1  0  0  0  0
 52 94  1  0  0  0  0
 53 95  1  0  0  0  0
 54 96  1  0  0  0  0
 55 97  1  0  0  0  0
 56 98  1  0  0  0  0
M  END
