
  xtb     01172215063D
 energy: -43.848519764222 gnorm: 0.000580523180 xtb: 6.4.1 (unknown)
 25 26  0     0  0            999 V2000
   -2.4854   -0.9262    3.1129 C   0  0  0  0  0  0  0  0  0  0  0  0
   -1.3972   -0.8958    2.3413 C   0  0  0  0  0  0  0  0  0  0  0  0
   -0.4504   -2.0580    2.2693 C   0  0  0  0  0  0  0  0  0  0  0  0
   -0.5560   -3.1011    2.8693 O   0  0  0  0  0  0  0  0  0  0  0  0
    0.6016   -1.6481    1.3285 C   0  0  0  0  0  0  0  0  0  0  0  0
    1.7144   -2.3529    0.9059 C   0  0  0  0  0  0  0  0  0  0  0  0
    2.5732   -1.7507    0.0025 C   0  0  0  0  0  0  0  0  0  0  0  0
    2.3340   -0.4630   -0.4794 C   0  0  0  0  0  0  0  0  0  0  0  0
    3.2667    0.1521   -1.4726 C   0  0  0  0  0  0  0  0  0  0  0  0
    1.2118    0.2414   -0.0507 C   0  0  0  0  0  0  0  0  0  0  0  0
    0.3417   -0.3473    0.8543 C   0  0  0  0  0  0  0  0  0  0  0  0
   -0.8859    0.1549    1.4588 C   0  0  0  0  0  0  0  0  0  0  0  0
   -1.4552    1.3757    1.2449 C   0  0  0  0  0  0  0  0  0  0  0  0
   -2.6540    1.8183    1.8482 C   0  0  0  0  0  0  0  0  0  0  0  0
   -3.6181    2.2407    2.3040 N   0  0  0  0  0  0  0  0  0  0  0  0
   -0.9239    2.3659    0.3881 C   0  0  0  0  0  0  0  0  0  0  0  0
   -0.5433    3.2093   -0.2903 N   0  0  0  0  0  0  0  0  0  0  0  0
   -2.6774   -1.8144    3.6944 H   0  0  0  0  0  0  0  0  0  0  0  0
   -3.1898   -0.1176    3.1953 H   0  0  0  0  0  0  0  0  0  0  0  0
    1.8969   -3.3479    1.2813 H   0  0  0  0  0  0  0  0  0  0  0  0
    3.4484   -2.2834   -0.3396 H   0  0  0  0  0  0  0  0  0  0  0  0
    3.2104    1.2370   -1.4404 H   0  0  0  0  0  0  0  0  0  0  0  0
    4.2922   -0.1594   -1.2884 H   0  0  0  0  0  0  0  0  0  0  0  0
    2.9950   -0.1697   -2.4785 H   0  0  0  0  0  0  0  0  0  0  0  0
    1.0358    1.2358   -0.4289 H   0  0  0  0  0  0  0  0  0  0  0  0
  1  2  2  0  0  0  0
  2  3  1  0  0  0  0
  3  4  2  0  0  0  0
  3  5  1  0  0  0  0
  5  6  2  0  0  0  0
  6  7  1  0  0  0  0
  7  8  2  0  0  0  0
  8  9  1  0  0  0  0
  8 10  1  0  0  0  0
 10 11  2  0  0  0  0
 11 12  1  0  0  0  0
 12 13  2  0  0  0  0
 13 14  1  0  0  0  0
 14 15  3  0  0  0  0
 13 16  1  0  0  0  0
 16 17  3  0  0  0  0
 12  2  1  0  0  0  0
 11  5  1  0  0  0  0
  1 18  1  0  0  0  0
  1 19  1  0  0  0  0
  6 20  1  0  0  0  0
  7 21  1  0  0  0  0
  9 22  1  0  0  0  0
  9 23  1  0  0  0  0
  9 24  1  0  0  0  0
 10 25  1  0  0  0  0
M  END
