
  xtb     01172215063D
 energy: -94.340357480131 gnorm: 0.000293909918 xtb: 6.4.1 (unknown)
 57 63  0     0  0            999 V2000
    2.1198   -3.8293    3.5764 C   0  0  0  0  0  0  0  0  0  0  0  0
    2.1501   -2.6014    2.6766 C   0  0  0  0  0  0  0  0  0  0  0  0
    1.4244   -2.9012    1.4903 O   0  0  0  0  0  0  0  0  0  0  0  0
    0.6875   -1.9228    0.8899 C   0  0  0  0  0  0  0  0  0  0  0  0
    1.0993   -0.6036    0.7640 C   0  0  0  0  0  0  0  0  0  0  0  0
    2.7150   -0.0572    1.1998 S   0  0  0  0  0  0  0  0  0  0  0  0
    2.3257    1.5232    0.6379 C   0  0  0  0  0  0  0  0  0  0  0  0
    2.9661    2.7513    0.4827 C   0  0  0  0  0  0  0  0  0  0  0  0
    4.4765    3.5465    0.7399 S   0  0  0  0  0  0  0  0  0  0  0  0
    3.8208    5.0022    0.0577 C   0  0  0  0  0  0  0  0  0  0  0  0
    2.5270    4.9013   -0.3459 C   0  0  0  0  0  0  0  0  0  0  0  0
    2.0226    3.6062   -0.1025 C   0  0  0  0  0  0  0  0  0  0  0  0
    0.8459    2.9383   -0.3081 N   0  0  0  0  0  0  0  0  0  0  0  0
   -0.3108    3.6131   -0.8413 C   0  0  0  0  0  0  0  0  0  0  0  0
   -0.9605    4.4982    0.2204 C   0  0  0  0  0  0  0  0  0  0  0  0
    1.0099    1.6538    0.1567 C   0  0  0  0  0  0  0  0  0  0  0  0
    0.2782    0.4255    0.2278 C   0  0  0  0  0  0  0  0  0  0  0  0
   -1.0515    0.1037   -0.1271 C   0  0  0  0  0  0  0  0  0  0  0  0
   -1.8513    1.1489   -0.4799 O   0  0  0  0  0  0  0  0  0  0  0  0
   -3.2651    1.0395   -0.4175 C   0  0  0  0  0  0  0  0  0  0  0  0
   -3.8553    2.4409   -0.3733 C   0  0  0  0  0  0  0  0  0  0  0  0
   -1.4202   -1.2358   -0.1155 C   0  0  0  0  0  3  0  0  0  0  0  0
   -2.9813   -1.8579   -0.6696 S   0  0  0  0  0  0  0  0  0  0  0  0
   -2.4681   -3.4706   -0.3597 C   0  0  0  0  0  0  0  0  0  0  0  0
   -2.9720   -4.7623   -0.4598 C   0  0  0  0  0  0  0  0  0  0  0  0
   -1.9316   -5.6168   -0.0529 C   0  0  0  0  0  0  0  0  0  0  0  0
   -0.8329   -4.8834    0.3150 N   0  0  0  0  0  0  0  0  0  0  0  0
    0.4533   -5.5047    0.5150 C   0  0  0  0  0  0  0  0  0  0  0  0
    1.1270   -5.8051   -0.8231 C   0  0  0  0  0  0  0  0  0  0  0  0
   -1.1537   -3.5563    0.1429 C   0  0  0  0  0  0  0  0  0  0  0  0
   -0.5566   -2.2768    0.3352 C   0  0  0  0  0  0  0  0  0  0  0  0
   -2.2662   -6.9871   -0.1643 C   0  0  0  0  0  0  0  0  0  0  0  0
   -3.4773   -7.1281   -0.7607 C   0  0  0  0  0  2  0  0  0  0  0  0
   -4.3440   -5.6652   -1.0297 S   0  0  0  0  0  0  0  0  0  0  0  0
    2.6503   -3.6139    4.4993 H   0  0  0  0  0  0  0  0  0  0  0  0
    2.5993   -4.6705    3.0831 H   0  0  0  0  0  0  0  0  0  0  0  0
    1.0931   -4.0993    3.8113 H   0  0  0  0  0  0  0  0  0  0  0  0
    1.6944   -1.7482    3.1897 H   0  0  0  0  0  0  0  0  0  0  0  0
    3.1870   -2.3486    2.4241 H   0  0  0  0  0  0  0  0  0  0  0  0
    4.4561    5.8634   -0.0013 H   0  0  0  0  0  0  0  0  0  0  0  0
    1.9789    5.7112   -0.7919 H   0  0  0  0  0  0  0  0  0  0  0  0
    0.0202    4.2261   -1.6860 H   0  0  0  0  0  0  0  0  0  0  0  0
   -1.0163    2.8674   -1.1975 H   0  0  0  0  0  0  0  0  0  0  0  0
   -0.2537    5.2408    0.5837 H   0  0  0  0  0  0  0  0  0  0  0  0
   -1.8230    5.0109   -0.1962 H   0  0  0  0  0  0  0  0  0  0  0  0
   -1.2829    3.8909    1.0624 H   0  0  0  0  0  0  0  0  0  0  0  0
   -3.6417    0.5128   -1.3020 H   0  0  0  0  0  0  0  0  0  0  0  0
   -3.5591    0.4843    0.4796 H   0  0  0  0  0  0  0  0  0  0  0  0
   -3.5173    2.9683    0.5138 H   0  0  0  0  0  0  0  0  0  0  0  0
   -3.5582    3.0043   -1.2533 H   0  0  0  0  0  0  0  0  0  0  0  0
   -4.9388    2.3687   -0.3505 H   0  0  0  0  0  0  0  0  0  0  0  0
    0.2893   -6.4324    1.0705 H   0  0  0  0  0  0  0  0  0  0  0  0
    1.0791   -4.8383    1.1018 H   0  0  0  0  0  0  0  0  0  0  0  0
    1.3071   -4.8797   -1.3654 H   0  0  0  0  0  0  0  0  0  0  0  0
    2.0789   -6.3017   -0.6560 H   0  0  0  0  0  0  0  0  0  0  0  0
    0.4971   -6.4492   -1.4333 H   0  0  0  0  0  0  0  0  0  0  0  0
   -1.6286   -7.8078    0.1078 H   0  0  0  0  0  0  0  0  0  0  0  0
  1  2  1  0  0  0  0
  2  3  1  0  0  0  0
  3  4  1  0  0  0  0
  4  5  2  0  0  0  0
  5  6  1  0  0  0  0
  6  7  1  0  0  0  0
  7  8  1  0  0  0  0
  8  9  1  0  0  0  0
  9 10  1  0  0  0  0
 10 11  2  0  0  0  0
 11 12  1  0  0  0  0
 12 13  1  0  0  0  0
 13 14  1  0  0  0  0
 14 15  1  0  0  0  0
 13 16  1  0  0  0  0
 16 17  1  0  0  0  0
 17 18  2  0  0  0  0
 18 19  1  0  0  0  0
 19 20  1  0  0  0  0
 20 21  1  0  0  0  0
 18 22  1  0  0  0  0
 22 23  1  0  0  0  0
 23 24  1  0  0  0  0
 24 25  2  0  0  0  0
 25 26  1  0  0  0  0
 26 27  1  0  0  0  0
 27 28  1  0  0  0  0
 28 29  1  0  0  0  0
 27 30  1  0  0  0  0
 30 31  2  0  0  0  0
 26 32  2  0  0  0  0
 32 33  1  0  0  0  0
 33 34  1  0  0  0  0
 31  4  1  0  0  0  0
 17  5  1  0  0  0  0
 31 22  1  0  0  0  0
 16  7  2  0  0  0  0
 30 24  1  0  0  0  0
 12  8  2  0  0  0  0
 34 25  1  0  0  0  0
  1 35  1  0  0  0  0
  1 36  1  0  0  0  0
  1 37  1  0  0  0  0
  2 38  1  0  0  0  0
  2 39  1  0  0  0  0
 10 40  1  0  0  0  0
 11 41  1  0  0  0  0
 14 42  1  0  0  0  0
 14 43  1  0  0  0  0
 15 44  1  0  0  0  0
 15 45  1  0  0  0  0
 15 46  1  0  0  0  0
 20 47  1  0  0  0  0
 20 48  1  0  0  0  0
 21 49  1  0  0  0  0
 21 50  1  0  0  0  0
 21 51  1  0  0  0  0
 28 52  1  0  0  0  0
 28 53  1  0  0  0  0
 29 54  1  0  0  0  0
 29 55  1  0  0  0  0
 29 56  1  0  0  0  0
 32 57  1  0  0  0  0
M  END
