
  xtb     01172215073D
 energy: -50.724162158115 gnorm: 0.000415462768 xtb: 6.4.1 (unknown)
 30 32  0     0  0            999 V2000
   -3.3136   -1.1799   -0.3093 C   0  0  0  0  0  0  0  0  0  0  0  0
   -2.0580   -1.2311   -1.1850 C   0  0  0  0  0  0  0  0  0  0  0  0
   -0.8337   -1.2998   -0.3460 C   0  0  0  0  0  0  0  0  0  0  0  0
   -0.1041   -2.8328   -0.0082 S   0  0  0  0  0  0  0  0  0  0  0  0
    1.1195   -2.1144    0.9800 C   0  0  0  0  0  0  0  0  0  0  0  0
    2.1697   -2.9322    1.6388 C   0  0  0  0  0  0  0  0  0  0  0  0
    2.0520   -4.4205    1.3452 C   0  0  0  0  0  0  0  0  0  0  0  0
    0.9635   -0.7506    1.0412 C   0  0  0  0  0  0  0  0  0  0  0  0
   -0.1627   -0.2821    0.2839 C   0  0  0  0  0  0  0  0  0  0  0  0
   -0.5277    1.1336    0.1839 C   0  0  0  0  0  0  0  0  0  0  0  0
   -1.4844    1.5537   -0.4431 O   0  0  0  0  0  0  0  0  0  0  0  0
    0.3831    2.0185    0.9256 C   0  0  0  0  0  0  0  0  0  0  0  0
    0.2612    3.3773    0.9832 C   0  0  0  0  0  0  0  0  0  0  0  0
    1.4813    4.0998    1.9447 S   0  0  0  0  0  0  0  0  0  0  0  0
    2.1755    2.5702    2.2856 C   0  0  0  0  0  0  0  0  0  0  0  0
    1.4986    1.5486    1.6845 C   0  0  0  0  0  0  0  0  0  0  0  0
    1.8597    0.1276    1.7921 C   0  0  0  0  0  0  0  0  0  0  0  0
    2.8130   -0.2676    2.4420 O   0  0  0  0  0  0  0  0  0  0  0  0
   -3.3065   -0.2749    0.2921 H   0  0  0  0  0  0  0  0  0  0  0  0
   -3.3577   -2.0443    0.3501 H   0  0  0  0  0  0  0  0  0  0  0  0
   -4.2007   -1.1717   -0.9364 H   0  0  0  0  0  0  0  0  0  0  0  0
   -2.1012   -2.1039   -1.8395 H   0  0  0  0  0  0  0  0  0  0  0  0
   -2.0200   -0.3245   -1.7922 H   0  0  0  0  0  0  0  0  0  0  0  0
    3.1474   -2.5562    1.3203 H   0  0  0  0  0  0  0  0  0  0  0  0
    2.1203   -2.7511    2.7173 H   0  0  0  0  0  0  0  0  0  0  0  0
    1.0941   -4.8048    1.6902 H   0  0  0  0  0  0  0  0  0  0  0  0
    2.1321   -4.6082    0.2763 H   0  0  0  0  0  0  0  0  0  0  0  0
    2.8444   -4.9656    1.8512 H   0  0  0  0  0  0  0  0  0  0  0  0
   -0.4869    3.9788    0.5058 H   0  0  0  0  0  0  0  0  0  0  0  0
    3.0446    2.4911    2.9084 H   0  0  0  0  0  0  0  0  0  0  0  0
  1  2  1  0  0  0  0
  2  3  1  0  0  0  0
  3  4  1  0  0  0  0
  4  5  1  0  0  0  0
  5  6  1  0  0  0  0
  6  7  1  0  0  0  0
  5  8  2  0  0  0  0
  8  9  1  0  0  0  0
  9 10  1  0  0  0  0
 10 11  2  0  0  0  0
 10 12  1  0  0  0  0
 12 13  2  0  0  0  0
 13 14  1  0  0  0  0
 14 15  1  0  0  0  0
 15 16  2  0  0  0  0
 16 17  1  0  0  0  0
 17 18  2  0  0  0  0
  9  3  2  0  0  0  0
 16 12  1  0  0  0  0
 17  8  1  0  0  0  0
  1 19  1  0  0  0  0
  1 20  1  0  0  0  0
  1 21  1  0  0  0  0
  2 22  1  0  0  0  0
  2 23  1  0  0  0  0
  6 24  1  0  0  0  0
  6 25  1  0  0  0  0
  7 26  1  0  0  0  0
  7 27  1  0  0  0  0
  7 28  1  0  0  0  0
 13 29  1  0  0  0  0
 15 30  1  0  0  0  0
M  END
