
  xtb     01172215073D
 energy: -91.404169832097 gnorm: 0.000748863161 xtb: 6.4.1 (unknown)
 52 58  0     0  0            999 V2000
    1.7804   -4.9331    6.8222 C   0  0  0  0  0  0  0  0  0  0  0  0
    2.1286   -5.4001    5.4148 C   0  0  0  0  0  0  0  0  0  0  0  0
    1.6894   -4.4302    4.4161 N   0  0  0  0  0  0  0  0  0  0  0  0
    2.5795   -3.4257    4.0784 C   0  0  0  0  0  0  0  0  0  0  0  0
    3.6819   -3.3711    4.5844 O   0  0  0  0  0  0  0  0  0  0  0  0
    2.1183   -2.4483    3.0784 C   0  0  0  0  0  0  0  0  0  0  0  0
    2.9620   -1.4284    2.6844 C   0  0  0  0  0  0  0  0  0  0  0  0
    2.5426   -0.4881    1.7551 C   0  0  0  0  0  0  0  0  0  0  0  0
    1.2761   -0.5372    1.1832 C   0  0  0  0  0  0  0  0  0  0  0  0
    0.8155    0.4599    0.2303 C   0  0  0  0  0  0  0  0  0  0  0  0
    1.5702    1.5821   -0.0928 C   0  0  0  0  0  0  0  0  0  0  0  0
    1.1342    2.5128   -1.0242 C   0  0  0  0  0  0  0  0  0  0  0  0
   -0.0744    2.3434   -1.6707 C   0  0  0  0  0  0  0  0  0  0  0  0
   -0.8777    1.2287   -1.3623 C   0  0  0  0  0  0  0  0  0  0  0  0
   -2.1096    1.0592   -2.0231 C   0  0  0  0  0  0  0  0  0  0  0  0
   -2.8987   -0.0343   -1.7246 C   0  0  0  0  0  0  0  0  0  0  0  0
   -2.4988   -0.9482   -0.7609 C   0  0  0  0  0  0  0  0  0  0  0  0
   -1.2983   -0.8099   -0.0731 C   0  0  0  0  0  0  0  0  0  0  0  0
   -0.8839   -1.7444    0.9608 C   0  0  0  0  0  0  0  0  0  0  0  0
   -1.7045   -2.7775    1.4000 C   0  0  0  0  0  0  0  0  0  0  0  0
   -1.2880   -3.6817    2.3657 C   0  0  0  0  0  0  0  0  0  0  0  0
   -0.0252   -3.5860    2.9166 C   0  0  0  0  0  0  0  0  0  0  0  0
    0.8323   -2.5446    2.5129 C   0  0  0  0  0  0  0  0  0  0  0  0
    0.4040   -1.5997    1.5441 C   0  0  0  0  0  0  0  0  0  0  0  0
    0.4043   -4.5719    3.9222 C   0  0  0  0  0  0  0  0  0  0  0  0
   -0.3159   -5.4725    4.3027 O   0  0  0  0  0  0  0  0  0  0  0  0
   -0.4493    0.2839   -0.3935 C   0  0  0  0  0  0  0  0  0  0  0  0
   -2.5660    2.0295   -3.0320 C   0  0  0  0  0  0  0  0  0  0  0  0
   -3.6153    1.9046   -3.6301 O   0  0  0  0  0  0  0  0  0  0  0  0
   -1.7372    3.1129   -3.2658 N   0  0  0  0  0  0  0  0  0  0  0  0
   -2.1764    4.0828   -4.2645 C   0  0  0  0  0  0  0  0  0  0  0  0
   -1.6868    3.6978   -5.6545 C   0  0  0  0  0  0  0  0  0  0  0  0
   -0.5093    3.3359   -2.6675 C   0  0  0  0  0  0  0  0  0  0  0  0
    0.1593    4.3078   -2.9555 O   0  0  0  0  0  0  0  0  0  0  0  0
    2.2694   -3.9852    7.0348 H   0  0  0  0  0  0  0  0  0  0  0  0
    2.1170   -5.6702    7.5456 H   0  0  0  0  0  0  0  0  0  0  0  0
    0.7043   -4.8111    6.9215 H   0  0  0  0  0  0  0  0  0  0  0  0
    3.2090   -5.5107    5.3076 H   0  0  0  0  0  0  0  0  0  0  0  0
    1.6284   -6.3445    5.1933 H   0  0  0  0  0  0  0  0  0  0  0  0
    3.9492   -1.3759    3.1182 H   0  0  0  0  0  0  0  0  0  0  0  0
    3.2354    0.2898    1.4792 H   0  0  0  0  0  0  0  0  0  0  0  0
    2.5201    1.7563    0.3851 H   0  0  0  0  0  0  0  0  0  0  0  0
    1.7324    3.3791   -1.2629 H   0  0  0  0  0  0  0  0  0  0  0  0
   -3.8337   -0.1572   -2.2499 H   0  0  0  0  0  0  0  0  0  0  0  0
   -3.1496   -1.7828   -0.5591 H   0  0  0  0  0  0  0  0  0  0  0  0
   -2.6964   -2.8949    0.9960 H   0  0  0  0  0  0  0  0  0  0  0  0
   -1.9383   -4.4776    2.6959 H   0  0  0  0  0  0  0  0  0  0  0  0
   -1.7718    5.0541   -3.9746 H   0  0  0  0  0  0  0  0  0  0  0  0
   -3.2672    4.1052   -4.2387 H   0  0  0  0  0  0  0  0  0  0  0  0
   -0.5999    3.6632   -5.6732 H   0  0  0  0  0  0  0  0  0  0  0  0
   -2.0257    4.4336   -6.3781 H   0  0  0  0  0  0  0  0  0  0  0  0
   -2.0810    2.7238   -5.9347 H   0  0  0  0  0  0  0  0  0  0  0  0
  1  2  1  0  0  0  0
  2  3  1  0  0  0  0
  3  4  1  0  0  0  0
  4  5  2  0  0  0  0
  4  6  1  0  0  0  0
  6  7  2  0  0  0  0
  7  8  1  0  0  0  0
  8  9  2  0  0  0  0
  9 10  1  0  0  0  0
 10 11  2  0  0  0  0
 11 12  1  0  0  0  0
 12 13  2  0  0  0  0
 13 14  1  0  0  0  0
 14 15  1  0  0  0  0
 15 16  2  0  0  0  0
 16 17  1  0  0  0  0
 17 18  2  0  0  0  0
 18 19  1  0  0  0  0
 19 20  2  0  0  0  0
 20 21  1  0  0  0  0
 21 22  2  0  0  0  0
 22 23  1  0  0  0  0
 23 24  2  0  0  0  0
 22 25  1  0  0  0  0
 25 26  2  0  0  0  0
 18 27  1  0  0  0  0
 15 28  1  0  0  0  0
 28 29  2  0  0  0  0
 28 30  1  0  0  0  0
 30 31  1  0  0  0  0
 31 32  1  0  0  0  0
 30 33  1  0  0  0  0
 33 34  2  0  0  0  0
 25  3  1  0  0  0  0
 23  6  1  0  0  0  0
 24  9  1  0  0  0  0
 27 10  1  0  0  0  0
 33 13  1  0  0  0  0
 27 14  2  0  0  0  0
 24 19  1  0  0  0  0
  1 35  1  0  0  0  0
  1 36  1  0  0  0  0
  1 37  1  0  0  0  0
  2 38  1  0  0  0  0
  2 39  1  0  0  0  0
  7 40  1  0  0  0  0
  8 41  1  0  0  0  0
 11 42  1  0  0  0  0
 12 43  1  0  0  0  0
 16 44  1  0  0  0  0
 17 45  1  0  0  0  0
 20 46  1  0  0  0  0
 21 47  1  0  0  0  0
 31 48  1  0  0  0  0
 31 49  1  0  0  0  0
 32 50  1  0  0  0  0
 32 51  1  0  0  0  0
 32 52  1  0  0  0  0
M  END
