
  xtb     01172215073D
 energy: -83.893741833654 gnorm: 0.000946538651 xtb: 6.4.1 (unknown)
 45 52  0     0  0            999 V2000
    1.5849    0.6678    3.3939 C   0  0  0  0  0  0  0  0  0  0  0  0
    1.6918   -0.5843    2.5226 C   0  0  0  0  0  0  0  0  0  0  0  0
    1.8486   -0.2341    1.1269 N   0  0  0  0  0  0  0  0  0  0  0  0
    2.9753    0.4585    0.7516 C   0  0  0  0  0  0  0  0  0  0  0  0
    4.3038    0.6113    1.1778 C   0  0  0  0  0  0  0  0  0  0  0  0
    5.0886    0.1356    2.1639 O   0  0  0  0  0  0  0  0  0  0  0  0
    6.3057    0.7065    1.9768 C   0  0  0  0  0  0  0  0  0  0  0  0
    6.3283    1.5394    0.8985 C   0  0  0  0  0  0  0  0  0  0  0  0
    5.0210    1.4882    0.3636 C   0  0  0  0  0  0  0  0  0  0  0  0
    4.0778    2.1529   -0.9393 S   0  0  0  0  0  0  0  0  0  0  0  0
    2.7131    1.2381   -0.3750 C   0  0  0  0  0  0  0  0  0  0  0  0
    1.3556    1.0452   -0.7016 C   0  0  0  0  0  0  0  0  0  0  0  0
    0.5086    1.6594   -1.6503 C   0  0  0  0  0  0  0  0  0  0  0  0
    0.8108    2.5861   -2.5456 N   0  0  0  0  0  0  0  0  0  0  0  0
   -0.5433    3.0104   -3.3246 S   0  0  0  0  0  0  0  0  0  0  0  0
   -1.5711    2.0245   -2.5539 N   0  0  0  0  0  0  0  0  0  0  0  0
   -0.8916    1.3253   -1.6588 C   0  0  0  0  0  0  0  0  0  0  0  0
   -1.3559    0.2923   -0.8148 C   0  0  0  0  0  0  0  0  0  0  0  0
   -2.5941   -0.3720   -0.7273 C   0  0  0  0  0  0  0  0  0  0  0  0
   -4.1797   -0.2724   -1.4291 S   0  0  0  0  0  0  0  0  0  0  0  0
   -4.6266   -1.6980   -0.5377 C   0  0  0  0  0  0  0  0  0  0  0  0
   -5.7352   -2.5520   -0.3378 C   0  0  0  0  0  0  0  0  0  0  0  0
   -5.3034   -3.4974    0.5428 C   0  0  0  0  0  0  0  0  0  0  0  0
   -4.0115   -3.3058    0.9141 O   0  0  0  0  0  0  0  0  0  0  0  0
   -3.5963   -2.2062    0.2536 C   0  0  0  0  0  0  0  0  0  0  0  0
   -2.4233   -1.4408    0.1549 C   0  0  0  0  0  0  0  0  0  0  0  0
   -1.1393   -1.4499    0.6394 N   0  0  0  0  0  0  0  0  0  0  0  0
   -0.5882   -2.6606    1.2082 C   0  0  0  0  0  0  0  0  0  0  0  0
   -1.1416   -2.9387    2.6046 C   0  0  0  0  0  0  0  0  0  0  0  0
   -0.4744   -0.3799    0.0705 C   0  0  0  0  0  0  0  0  0  0  0  0
    0.8480    0.1029    0.2279 C   0  0  0  0  0  0  0  0  0  0  0  0
    2.4866    1.2697    3.3150 H   0  0  0  0  0  0  0  0  0  0  0  0
    1.4471    0.3831    4.4336 H   0  0  0  0  0  0  0  0  0  0  0  0
    0.7360    1.2718    3.0791 H   0  0  0  0  0  0  0  0  0  0  0  0
    2.5658   -1.1712    2.8204 H   0  0  0  0  0  0  0  0  0  0  0  0
    0.7955   -1.1804    2.6565 H   0  0  0  0  0  0  0  0  0  0  0  0
    7.0709    0.4395    2.6777 H   0  0  0  0  0  0  0  0  0  0  0  0
    7.1610    2.1071    0.5400 H   0  0  0  0  0  0  0  0  0  0  0  0
   -6.7066   -2.4789   -0.7800 H   0  0  0  0  0  0  0  0  0  0  0  0
   -5.8034   -4.3408    0.9749 H   0  0  0  0  0  0  0  0  0  0  0  0
   -0.8626   -3.4971    0.5536 H   0  0  0  0  0  0  0  0  0  0  0  0
    0.5001   -2.5885    1.2075 H   0  0  0  0  0  0  0  0  0  0  0  0
   -2.2061   -3.1472    2.5458 H   0  0  0  0  0  0  0  0  0  0  0  0
   -0.6426   -3.8042    3.0322 H   0  0  0  0  0  0  0  0  0  0  0  0
   -0.9995   -2.0880    3.2680 H   0  0  0  0  0  0  0  0  0  0  0  0
  1  2  1  0  0  0  0
  2  3  1  0  0  0  0
  3  4  1  0  0  0  0
  4  5  1  0  0  0  0
  5  6  1  0  0  0  0
  6  7  1  0  0  0  0
  7  8  2  0  0  0  0
  8  9  1  0  0  0  0
  9 10  1  0  0  0  0
 10 11  1  0  0  0  0
 11 12  1  0  0  0  0
 12 13  1  0  0  0  0
 13 14  2  0  0  0  0
 14 15  1  0  0  0  0
 15 16  1  0  0  0  0
 16 17  2  0  0  0  0
 17 18  1  0  0  0  0
 18 19  1  0  0  0  0
 19 20  1  0  0  0  0
 20 21  1  0  0  0  0
 21 22  1  0  0  0  0
 22 23  2  0  0  0  0
 23 24  1  0  0  0  0
 24 25  1  0  0  0  0
 25 26  1  0  0  0  0
 26 27  1  0  0  0  0
 27 28  1  0  0  0  0
 28 29  1  0  0  0  0
 27 30  1  0  0  0  0
 30 31  1  0  0  0  0
 31  3  1  0  0  0  0
 11  4  2  0  0  0  0
 31 12  2  0  0  0  0
  9  5  2  0  0  0  0
 17 13  1  0  0  0  0
 30 18  2  0  0  0  0
 26 19  2  0  0  0  0
 25 21  2  0  0  0  0
  1 32  1  0  0  0  0
  1 33  1  0  0  0  0
  1 34  1  0  0  0  0
  2 35  1  0  0  0  0
  2 36  1  0  0  0  0
  7 37  1  0  0  0  0
  8 38  1  0  0  0  0
 22 39  1  0  0  0  0
 23 40  1  0  0  0  0
 28 41  1  0  0  0  0
 28 42  1  0  0  0  0
 29 43  1  0  0  0  0
 29 44  1  0  0  0  0
 29 45  1  0  0  0  0
M  END
