
  xtb     01172215073D
 energy: -35.021646895917 gnorm: 0.000210278142 xtb: 6.4.1 (unknown)
 19 20  0     0  0            999 V2000
    0.7554    2.2819    2.4741 C   0  0  0  0  0  0  0  0  0  0  0  0
    0.8129    0.7883    2.7753 C   0  0  0  0  0  0  0  0  0  0  0  0
    0.8342    0.0105    1.5544 N   0  0  0  0  0  0  0  0  0  0  0  0
    2.0145   -0.3287    0.8990 C   0  0  0  0  0  0  0  0  0  0  0  0
    3.1205   -0.0563    1.2876 O   0  0  0  0  0  0  0  0  0  0  0  0
    1.5762   -1.0642   -0.3020 C   0  0  0  0  0  0  0  0  0  0  0  0
    2.1275   -1.6807   -1.3757 C   0  0  0  0  0  0  0  0  0  0  0  0
    0.8966   -2.3371   -2.3947 S   0  0  0  0  0  0  0  0  0  0  0  0
   -0.3667   -1.7736   -1.3599 C   0  0  0  0  0  0  0  0  0  0  0  0
    0.1508   -1.1173   -0.2930 C   0  0  0  0  0  0  0  0  0  0  0  0
   -0.3258   -0.4158    0.9138 C   0  0  0  0  0  0  0  0  0  0  0  0
   -1.4441   -0.2263    1.3164 O   0  0  0  0  0  0  0  0  0  0  0  0
    0.7403    2.8447    3.4030 H   0  0  0  0  0  0  0  0  0  0  0  0
    1.6270    2.5819    1.8968 H   0  0  0  0  0  0  0  0  0  0  0  0
   -0.1433    2.5160    1.9080 H   0  0  0  0  0  0  0  0  0  0  0  0
   -0.0675    0.4800    3.3440 H   0  0  0  0  0  0  0  0  0  0  0  0
    1.7210    0.5466    3.3327 H   0  0  0  0  0  0  0  0  0  0  0  0
    3.1599   -1.7946   -1.6387 H   0  0  0  0  0  0  0  0  0  0  0  0
   -1.3910   -1.9641   -1.6099 H   0  0  0  0  0  0  0  0  0  0  0  0
  1  2  1  0  0  0  0
  2  3  1  0  0  0  0
  3  4  1  0  0  0  0
  4  5  2  0  0  0  0
  4  6  1  0  0  0  0
  6  7  2  0  0  0  0
  7  8  1  0  0  0  0
  8  9  1  0  0  0  0
  9 10  2  0  0  0  0
 10 11  1  0  0  0  0
 11 12  2  0  0  0  0
 11  3  1  0  0  0  0
 10  6  1  0  0  0  0
  1 13  1  0  0  0  0
  1 14  1  0  0  0  0
  1 15  1  0  0  0  0
  2 16  1  0  0  0  0
  2 17  1  0  0  0  0
  7 18  1  0  0  0  0
  9 19  1  0  0  0  0
M  END
