
  xtb     01172215073D
 energy: -23.963491325981 gnorm: 0.000379368581 xtb: 6.4.1 (unknown)
 13 14  0     0  0            999 V2000
    0.0443   -0.6197   -0.6405 C   0  0  0  0  0  0  0  0  0  0  0  0
   -0.1368   -1.4398    0.4941 C   0  0  0  0  0  0  0  0  0  0  0  0
    0.7069   -1.3824    1.5675 C   0  0  0  0  0  0  0  0  0  0  0  0
    1.7771   -0.4733    1.5161 C   0  0  0  0  0  0  0  0  0  0  0  0
    2.7107   -0.2561    2.4443 N   0  0  0  0  0  0  0  0  0  0  0  0
    3.7097    0.8816    1.9080 S   0  0  0  0  0  0  0  0  0  0  0  0
    3.0238    1.1618    0.4829 N   0  0  0  0  0  0  0  0  0  0  0  0
    1.9619    0.3635    0.3585 C   0  0  0  0  0  0  0  0  0  0  0  0
    1.0730    0.2757   -0.7263 C   0  0  0  0  0  0  0  0  0  0  0  0
   -0.6552   -0.7100   -1.4583 H   0  0  0  0  0  0  0  0  0  0  0  0
   -0.9684   -2.1287    0.5043 H   0  0  0  0  0  0  0  0  0  0  0  0
    0.5764   -2.0048    2.4381 H   0  0  0  0  0  0  0  0  0  0  0  0
    1.2191    0.9060   -1.5886 H   0  0  0  0  0  0  0  0  0  0  0  0
  1  2  1  0  0  0  0
  2  3  2  0  0  0  0
  3  4  1  0  0  0  0
  4  5  2  0  0  0  0
  5  6  1  0  0  0  0
  6  7  1  0  0  0  0
  7  8  2  0  0  0  0
  8  9  1  0  0  0  0
  9  1  2  0  0  0  0
  8  4  1  0  0  0  0
  1 10  1  0  0  0  0
  2 11  1  0  0  0  0
  3 12  1  0  0  0  0
  9 13  1  0  0  0  0
M  END
