
  xtb     01172215073D
 energy: -30.475011597321 gnorm: 0.000214827804 xtb: 6.4.1 (unknown)
 20 21  0     0  0            999 V2000
    1.0422    2.6288    2.4462 C   0  0  0  0  0  0  0  0  0  0  0  0
    2.0566    1.5801    1.9996 C   0  0  0  0  0  0  0  0  0  0  0  0
    1.4115    0.5578    1.2255 N   0  0  0  0  0  0  0  0  0  0  0  0
    0.8958   -0.4975    1.7920 N   0  0  0  0  0  0  0  0  0  0  0  0
    0.3554   -1.1847    0.7716 C   0  0  0  0  0  0  0  0  0  0  0  0
   -0.3372   -2.3999    0.7259 C   0  0  0  0  0  0  0  0  0  0  0  0
   -0.7610   -2.8304   -0.5027 C   0  0  0  0  0  0  0  0  0  0  0  0
   -0.5170   -2.0934   -1.6794 C   0  0  0  0  0  0  0  0  0  0  0  0
    0.1585   -0.9027   -1.6646 C   0  0  0  0  0  0  0  0  0  0  0  0
    0.6029   -0.4372   -0.4219 C   0  0  0  0  0  0  0  0  0  0  0  0
    1.2814    0.6671   -0.0674 N   0  0  0  0  0  0  0  0  0  0  0  0
    1.5381    3.3984    3.0310 H   0  0  0  0  0  0  0  0  0  0  0  0
    0.5763    3.0912    1.5793 H   0  0  0  0  0  0  0  0  0  0  0  0
    0.2700    2.1662    3.0561 H   0  0  0  0  0  0  0  0  0  0  0  0
    2.8241    2.0345    1.3702 H   0  0  0  0  0  0  0  0  0  0  0  0
    2.5139    1.0978    2.8656 H   0  0  0  0  0  0  0  0  0  0  0  0
   -0.5210   -2.9595    1.6291 H   0  0  0  0  0  0  0  0  0  0  0  0
   -1.3000   -3.7630   -0.5842 H   0  0  0  0  0  0  0  0  0  0  0  0
   -0.8784   -2.4898   -2.6171 H   0  0  0  0  0  0  0  0  0  0  0  0
    0.3480   -0.3348   -2.5614 H   0  0  0  0  0  0  0  0  0  0  0  0
  1  2  1  0  0  0  0
  2  3  1  0  0  0  0
  3  4  1  0  0  0  0
  4  5  2  0  0  0  0
  5  6  1  0  0  0  0
  6  7  2  0  0  0  0
  7  8  1  0  0  0  0
  8  9  2  0  0  0  0
  9 10  1  0  0  0  0
 10 11  2  0  0  0  0
 11  3  1  0  0  0  0
 10  5  1  0  0  0  0
  1 12  1  0  0  0  0
  1 13  1  0  0  0  0
  1 14  1  0  0  0  0
  2 15  1  0  0  0  0
  2 16  1  0  0  0  0
  6 17  1  0  0  0  0
  7 18  1  0  0  0  0
  8 19  1  0  0  0  0
  9 20  1  0  0  0  0
M  END
