
  xtb     01172215073D
 energy: -47.388325252962 gnorm: 0.000667341953 xtb: 6.4.1 (unknown)
 25 26  0     0  0            999 V2000
    0.0278   -1.8399   -3.2184 C   0  0  0  0  0  0  0  0  0  0  0  0
    0.4210   -1.5849   -1.9737 C   0  0  0  0  0  0  0  0  0  0  0  0
    1.8353   -2.2580   -1.1735 S   0  0  0  0  0  0  0  0  0  0  0  0
    1.4759   -1.3627    0.2891 C   0  0  0  0  0  0  0  0  0  0  0  0
    2.2643   -1.4432    1.4028 C   0  0  0  0  0  0  0  0  0  0  0  0
    3.4094   -2.2681    1.3998 C   0  0  0  0  0  0  0  0  0  0  0  0
    4.3399   -2.9376    1.4011 N   0  0  0  0  0  0  0  0  0  0  0  0
    2.0333   -0.7494    2.6068 C   0  0  0  0  0  0  0  0  0  0  0  0
    1.9192   -0.2209    3.6193 N   0  0  0  0  0  0  0  0  0  0  0  0
    0.3477   -0.6093    0.1558 N   0  0  0  0  0  0  0  0  0  0  0  0
   -0.1586    0.2131    1.2128 C   0  0  0  0  0  0  0  0  0  0  0  0
    0.2426    1.5368    1.2951 C   0  0  0  0  0  0  0  0  0  0  0  0
   -0.2546    2.3280    2.3144 C   0  0  0  0  0  0  0  0  0  0  0  0
   -1.1457    1.7993    3.2324 C   0  0  0  0  0  0  0  0  0  0  0  0
   -1.5520    0.4798    3.1319 C   0  0  0  0  0  0  0  0  0  0  0  0
   -1.0622   -0.3217    2.1170 C   0  0  0  0  0  0  0  0  0  0  0  0
   -0.3033   -0.6675   -1.0605 C   0  0  0  0  0  0  0  0  0  0  0  0
   -1.3075   -0.0586   -1.3240 O   0  0  0  0  0  0  0  0  0  0  0  0
    0.5631   -2.5074   -3.8693 H   0  0  0  0  0  0  0  0  0  0  0  0
   -0.8610   -1.3619   -3.5948 H   0  0  0  0  0  0  0  0  0  0  0  0
    0.9392    1.9355    0.5727 H   0  0  0  0  0  0  0  0  0  0  0  0
    0.0581    3.3578    2.3909 H   0  0  0  0  0  0  0  0  0  0  0  0
   -1.5266    2.4192    4.0293 H   0  0  0  0  0  0  0  0  0  0  0  0
   -2.2500    0.0699    3.8452 H   0  0  0  0  0  0  0  0  0  0  0  0
   -1.3696   -1.3531    2.0273 H   0  0  0  0  0  0  0  0  0  0  0  0
  1  2  2  0  0  0  0
  2  3  1  0  0  0  0
  3  4  1  0  0  0  0
  4  5  2  0  0  0  0
  5  6  1  0  0  0  0
  6  7  3  0  0  0  0
  5  8  1  0  0  0  0
  8  9  3  0  0  0  0
  4 10  1  0  0  0  0
 10 11  1  0  0  0  0
 11 12  2  0  0  0  0
 12 13  1  0  0  0  0
 13 14  2  0  0  0  0
 14 15  1  0  0  0  0
 15 16  2  0  0  0  0
 10 17  1  0  0  0  0
 17 18  2  0  0  0  0
 17  2  1  0  0  0  0
 16 11  1  0  0  0  0
  1 19  1  0  0  0  0
  1 20  1  0  0  0  0
 12 21  1  0  0  0  0
 13 22  1  0  0  0  0
 14 23  1  0  0  0  0
 15 24  1  0  0  0  0
 16 25  1  0  0  0  0
M  END
