
  xtb     01172215073D
 energy: -44.902484544641 gnorm: 0.000554825394 xtb: 6.4.1 (unknown)
 22 23  0     0  0            999 V2000
    2.1347   -3.1875    1.5102 C   0  0  0  0  0  0  0  0  0  0  0  0
    1.2907   -2.3501    0.9039 C   0  0  0  0  0  0  0  0  0  0  0  0
    0.5508   -2.7463   -0.3390 C   0  0  0  0  0  0  0  0  0  0  0  0
    0.6253   -3.8077   -0.9073 O   0  0  0  0  0  0  0  0  0  0  0  0
   -0.2671   -1.5751   -0.7000 C   0  0  0  0  0  0  0  0  0  0  0  0
   -1.1331   -1.4270   -1.7696 C   0  0  0  0  0  0  0  0  0  0  0  0
   -1.8057   -0.2261   -1.9166 C   0  0  0  0  0  0  0  0  0  0  0  0
   -1.5911    0.7870   -0.9905 C   0  0  0  0  0  0  0  0  0  0  0  0
   -2.2506    1.9429   -1.1483 F   0  0  0  0  0  0  0  0  0  0  0  0
   -0.7294    0.6645    0.0894 C   0  0  0  0  0  0  0  0  0  0  0  0
   -0.0574   -0.5408    0.2329 C   0  0  0  0  0  0  0  0  0  0  0  0
    0.9006   -0.9799    1.2427 C   0  0  0  0  0  0  0  0  0  0  0  0
    1.3488   -0.2514    2.3034 C   0  0  0  0  0  0  0  0  0  0  0  0
    2.2798   -0.7197    3.2593 C   0  0  0  0  0  0  0  0  0  0  0  0
    3.0301   -1.0402    4.0651 N   0  0  0  0  0  0  0  0  0  0  0  0
    0.9428    1.0717    2.5932 C   0  0  0  0  0  0  0  0  0  0  0  0
    0.6522    2.1446    2.8749 N   0  0  0  0  0  0  0  0  0  0  0  0
    2.6866   -2.9485    2.4018 H   0  0  0  0  0  0  0  0  0  0  0  0
    2.2773   -4.1684    1.0842 H   0  0  0  0  0  0  0  0  0  0  0  0
   -1.2723   -2.2380   -2.4671 H   0  0  0  0  0  0  0  0  0  0  0  0
   -2.4915   -0.0581   -2.7317 H   0  0  0  0  0  0  0  0  0  0  0  0
   -0.6098    1.4909    0.7703 H   0  0  0  0  0  0  0  0  0  0  0  0
  1  2  2  0  0  0  0
  2  3  1  0  0  0  0
  3  4  2  0  0  0  0
  3  5  1  0  0  0  0
  5  6  2  0  0  0  0
  6  7  1  0  0  0  0
  7  8  2  0  0  0  0
  8  9  1  0  0  0  0
  8 10  1  0  0  0  0
 10 11  2  0  0  0  0
 11 12  1  0  0  0  0
 12 13  2  0  0  0  0
 13 14  1  0  0  0  0
 14 15  3  0  0  0  0
 13 16  1  0  0  0  0
 16 17  3  0  0  0  0
 12  2  1  0  0  0  0
 11  5  1  0  0  0  0
  1 18  1  0  0  0  0
  1 19  1  0  0  0  0
  6 20  1  0  0  0  0
  7 21  1  0  0  0  0
 10 22  1  0  0  0  0
M  END
