
  xtb     01172215073D
 energy: -166.574827550691 gnorm: 0.000627214518 xtb: 6.4.1 (unknown)
112122  0     0  0            999 V2000
    3.9494   -1.0398   -0.1693 C   0  0  0  0  0  0  0  0  0  0  0  0
    3.1886   -1.1135   -1.4882 C   0  0  0  0  0  0  0  0  0  0  0  0
    1.9123   -1.7332   -1.3946 O   0  0  0  0  0  0  0  0  0  0  0  0
    0.9897   -1.0087   -0.6765 C   0  0  0  0  0  0  0  0  0  0  0  0
    0.7829   -1.2983    0.6623 C   0  0  0  0  0  0  0  0  0  0  0  0
    1.5337   -2.6702    1.4504 S   0  0  0  0  0  0  0  0  0  0  0  0
    0.6090   -2.3313    2.8660 C   0  0  0  0  0  0  0  0  0  0  0  0
   -0.1999   -1.2173    2.7811 C   0  0  0  0  0  0  0  0  0  0  0  0
   -0.1020   -0.5783    1.5152 C   0  0  0  0  0  0  0  0  0  0  0  0
   -0.7406    0.5530    0.9802 C   0  0  0  0  0  0  0  0  0  0  0  0
   -1.5063    1.4074    1.7391 O   0  0  0  0  0  0  0  0  0  0  0  0
   -0.7645    2.4445    2.3692 C   0  0  0  0  0  0  0  0  0  0  0  0
   -0.1651    3.4652    1.4085 C   0  0  0  0  0  0  0  0  0  0  0  0
   -0.6294    0.7639   -0.3847 C   0  0  0  0  0  0  0  0  0  0  0  0
   -1.5716    1.9779   -1.2246 S   0  0  0  0  0  0  0  0  0  0  0  0
   -0.9479    1.3905   -2.7213 C   0  0  0  0  0  0  0  0  0  0  0  0
   -0.0379    0.3600   -2.6096 C   0  0  0  0  0  0  0  0  0  0  0  0
    0.1848   -0.0138   -1.2564 C   0  0  0  0  0  0  0  0  0  0  0  0
    0.3463   -0.1533   -3.9890 C   0  0  0  0  0  0  0  0  0  0  0  0
    1.8298    0.0143   -4.2662 C   0  0  0  0  0  0  0  0  0  0  0  0
    2.3674    1.2967   -4.2092 C   0  0  0  0  0  0  0  0  0  0  0  0
    3.7045    1.5157   -4.4763 C   0  0  0  0  0  0  0  0  0  0  0  0
    4.5445    0.4613   -4.8124 C   0  0  0  0  0  0  0  0  0  0  0  0
    5.9855    0.7044   -5.1578 C   0  0  0  0  0  0  0  0  0  0  0  0
    6.1380    0.9683   -6.6572 C   0  0  0  0  0  0  0  0  0  0  0  0
    4.0059   -0.8161   -4.8620 C   0  0  0  0  0  0  0  0  0  0  0  0
    2.6684   -1.0427   -4.5860 C   0  0  0  0  0  0  0  0  0  0  0  0
   -0.1740   -1.5545   -4.2597 C   0  0  0  0  0  0  0  0  0  0  0  0
   -0.0095   -2.1035   -5.5283 C   0  0  0  0  0  0  0  0  0  0  0  0
   -0.4948   -3.3612   -5.8264 C   0  0  0  0  0  0  0  0  0  0  0  0
   -1.1643   -4.1123   -4.8688 C   0  0  0  0  0  0  0  0  0  0  0  0
   -1.7328   -5.4608   -5.2050 C   0  0  0  0  0  0  0  0  0  0  0  0
   -3.1641   -5.3201   -5.7277 C   0  0  0  0  0  0  0  0  0  0  0  0
   -1.3377   -3.5589   -3.6094 C   0  0  0  0  0  0  0  0  0  0  0  0
   -0.8547   -2.2977   -3.3072 C   0  0  0  0  0  0  0  0  0  0  0  0
   -0.4331    0.8118   -4.8688 C   0  0  0  0  0  0  0  0  0  0  0  0
   -0.5867    1.0592   -6.2422 C   0  0  0  0  0  0  0  0  0  0  0  0
   -1.4463    2.0921   -6.4731 C   0  0  0  0  0  0  0  0  0  0  0  0
   -2.0884    2.7940   -5.0304 S   0  0  0  0  0  0  0  0  0  0  0  0
   -1.1792    1.6791   -4.0929 C   0  0  0  0  0  0  0  0  0  0  0  0
   -1.0609   -1.0981    4.0297 C   0  0  0  0  0  0  0  0  0  0  0  0
   -2.5296   -1.3722    3.7523 C   0  0  0  0  0  0  0  0  0  0  0  0
   -3.0161   -1.6284    2.4793 C   0  0  0  0  0  0  0  0  0  0  0  0
   -4.3567   -1.9081    2.2797 C   0  0  0  0  0  0  0  0  0  0  0  0
   -5.2477   -1.9523    3.3411 C   0  0  0  0  0  0  0  0  0  0  0  0
   -6.7094   -2.2099    3.1140 C   0  0  0  0  0  0  0  0  0  0  0  0
   -7.4556   -0.8913    2.8980 C   0  0  0  0  0  0  0  0  0  0  0  0
   -4.7571   -1.7056    4.6170 C   0  0  0  0  0  0  0  0  0  0  0  0
   -3.4207   -1.4247    4.8204 C   0  0  0  0  0  0  0  0  0  0  0  0
   -0.8090    0.2002    4.7732 C   0  0  0  0  0  0  0  0  0  0  0  0
    0.4826    0.4591    5.2221 C   0  0  0  0  0  0  0  0  0  0  0  0
    0.7731    1.6223    5.9074 C   0  0  0  0  0  0  0  0  0  0  0  0
   -0.2199    2.5566    6.1742 C   0  0  0  0  0  0  0  0  0  0  0  0
    0.1046    3.8501    6.8640 C   0  0  0  0  0  0  0  0  0  0  0  0
    0.4781    4.9170    5.8324 C   0  0  0  0  0  0  0  0  0  0  0  0
   -1.5067    2.2927    5.7283 C   0  0  0  0  0  0  0  0  0  0  0  0
   -1.8012    1.1339    5.0309 C   0  0  0  0  0  0  0  0  0  0  0  0
   -0.5232   -2.2618    4.8472 C   0  0  0  0  0  0  0  0  0  0  0  0
   -0.7324   -2.8075    6.1236 C   0  0  0  0  0  0  0  0  0  0  0  0
    0.0518   -3.9026    6.3357 C   0  0  0  0  0  0  0  0  0  0  0  0
    1.0663   -4.2980    4.9937 S   0  0  0  0  0  0  0  0  0  0  0  0
    0.4283   -2.9599    4.1272 C   0  0  0  0  0  0  0  0  0  0  0  0
    3.4267   -0.4084    0.5464 H   0  0  0  0  0  0  0  0  0  0  0  0
    4.9322   -0.6141   -0.3541 H   0  0  0  0  0  0  0  0  0  0  0  0
    4.0668   -2.0323    0.2577 H   0  0  0  0  0  0  0  0  0  0  0  0
    3.0822   -0.1041   -1.9071 H   0  0  0  0  0  0  0  0  0  0  0  0
    3.7350   -1.7332   -2.2008 H   0  0  0  0  0  0  0  0  0  0  0  0
    0.0330    2.0093    2.9855 H   0  0  0  0  0  0  0  0  0  0  0  0
   -1.4895    2.9293    3.0247 H   0  0  0  0  0  0  0  0  0  0  0  0
    0.3228    4.2462    1.9859 H   0  0  0  0  0  0  0  0  0  0  0  0
   -0.9421    3.9115    0.7934 H   0  0  0  0  0  0  0  0  0  0  0  0
    0.5744    3.0009    0.7591 H   0  0  0  0  0  0  0  0  0  0  0  0
    1.7300    2.1310   -3.9516 H   0  0  0  0  0  0  0  0  0  0  0  0
    4.1016    2.5197   -4.4242 H   0  0  0  0  0  0  0  0  0  0  0  0
    6.3599    1.5659   -4.6010 H   0  0  0  0  0  0  0  0  0  0  0  0
    6.5841   -0.1667   -4.8832 H   0  0  0  0  0  0  0  0  0  0  0  0
    5.7851    0.1128   -7.2289 H   0  0  0  0  0  0  0  0  0  0  0  0
    5.5540    1.8385   -6.9489 H   0  0  0  0  0  0  0  0  0  0  0  0
    7.1805    1.1487   -6.9089 H   0  0  0  0  0  0  0  0  0  0  0  0
    4.6429   -1.6525   -5.1141 H   0  0  0  0  0  0  0  0  0  0  0  0
    2.2867   -2.0516   -4.6054 H   0  0  0  0  0  0  0  0  0  0  0  0
    0.5154   -1.5461   -6.2894 H   0  0  0  0  0  0  0  0  0  0  0  0
   -0.3486   -3.7673   -6.8177 H   0  0  0  0  0  0  0  0  0  0  0  0
   -1.1171   -5.9439   -5.9668 H   0  0  0  0  0  0  0  0  0  0  0  0
   -1.7351   -6.0934   -4.3149 H   0  0  0  0  0  0  0  0  0  0  0  0
   -3.1807   -4.7021   -6.6229 H   0  0  0  0  0  0  0  0  0  0  0  0
   -3.7954   -4.8498   -4.9769 H   0  0  0  0  0  0  0  0  0  0  0  0
   -3.5798   -6.2955   -5.9706 H   0  0  0  0  0  0  0  0  0  0  0  0
   -1.8574   -4.1211   -2.8466 H   0  0  0  0  0  0  0  0  0  0  0  0
   -1.0140   -1.9060   -2.3158 H   0  0  0  0  0  0  0  0  0  0  0  0
   -0.0930    0.5244   -7.0324 H   0  0  0  0  0  0  0  0  0  0  0  0
   -1.7484    2.4963   -7.4188 H   0  0  0  0  0  0  0  0  0  0  0  0
   -2.3578   -1.6104    1.6259 H   0  0  0  0  0  0  0  0  0  0  0  0
   -4.7118   -2.0994    1.2769 H   0  0  0  0  0  0  0  0  0  0  0  0
   -7.1336   -2.7271    3.9776 H   0  0  0  0  0  0  0  0  0  0  0  0
   -6.8409   -2.8456    2.2358 H   0  0  0  0  0  0  0  0  0  0  0  0
   -7.0502   -0.3653    2.0362 H   0  0  0  0  0  0  0  0  0  0  0  0
   -8.5141   -1.0750    2.7280 H   0  0  0  0  0  0  0  0  0  0  0  0
   -7.3497   -0.2495    3.7702 H   0  0  0  0  0  0  0  0  0  0  0  0
   -5.4292   -1.7377    5.4633 H   0  0  0  0  0  0  0  0  0  0  0  0
   -3.0678   -1.2333    5.8225 H   0  0  0  0  0  0  0  0  0  0  0  0
    1.2681   -0.2578    5.0273 H   0  0  0  0  0  0  0  0  0  0  0  0
    1.7840    1.8057    6.2434 H   0  0  0  0  0  0  0  0  0  0  0  0
   -0.7583    4.1920    7.4389 H   0  0  0  0  0  0  0  0  0  0  0  0
    0.9397    3.7065    7.5525 H   0  0  0  0  0  0  0  0  0  0  0  0
   -0.3478    5.0820    5.1438 H   0  0  0  0  0  0  0  0  0  0  0  0
    0.7150    5.8576    6.3242 H   0  0  0  0  0  0  0  0  0  0  0  0
    1.3438    4.5979    5.2560 H   0  0  0  0  0  0  0  0  0  0  0  0
   -2.2941    3.0075    5.9237 H   0  0  0  0  0  0  0  0  0  0  0  0
   -2.8054    0.9720    4.6717 H   0  0  0  0  0  0  0  0  0  0  0  0
   -1.4104   -2.4236    6.8633 H   0  0  0  0  0  0  0  0  0  0  0  0
    0.1019   -4.5145    7.2144 H   0  0  0  0  0  0  0  0  0  0  0  0
  1  2  1  0  0  0  0
  2  3  1  0  0  0  0
  3  4  1  0  0  0  0
  4  5  2  0  0  0  0
  5  6  1  0  0  0  0
  6  7  1  0  0  0  0
  7  8  2  0  0  0  0
  8  9  1  0  0  0  0
  9 10  2  0  0  0  0
 10 11  1  0  0  0  0
 11 12  1  0  0  0  0
 12 13  1  0  0  0  0
 10 14  1  0  0  0  0
 14 15  1  0  0  0  0
 15 16  1  0  0  0  0
 16 17  2  0  0  0  0
 17 18  1  0  0  0  0
 17 19  1  0  0  0  0
 19 20  1  0  0  0  0
 20 21  2  0  0  0  0
 21 22  1  0  0  0  0
 22 23  2  0  0  0  0
 23 24  1  0  0  0  0
 24 25  1  0  0  0  0
 23 26  1  0  0  0  0
 26 27  2  0  0  0  0
 19 28  1  0  0  0  0
 28 29  2  0  0  0  0
 29 30  1  0  0  0  0
 30 31  2  0  0  0  0
 31 32  1  0  0  0  0
 32 33  1  0  0  0  0
 31 34  1  0  0  0  0
 34 35  2  0  0  0  0
 19 36  1  0  0  0  0
 36 37  1  0  0  0  0
 37 38  2  0  0  0  0
 38 39  1  0  0  0  0
 39 40  1  0  0  0  0
  8 41  1  0  0  0  0
 41 42  1  0  0  0  0
 42 43  2  0  0  0  0
 43 44  1  0  0  0  0
 44 45  2  0  0  0  0
 45 46  1  0  0  0  0
 46 47  1  0  0  0  0
 45 48  1  0  0  0  0
 48 49  2  0  0  0  0
 41 50  1  0  0  0  0
 50 51  2  0  0  0  0
 51 52  1  0  0  0  0
 52 53  2  0  0  0  0
 53 54  1  0  0  0  0
 54 55  1  0  0  0  0
 53 56  1  0  0  0  0
 56 57  2  0  0  0  0
 41 58  1  0  0  0  0
 58 59  1  0  0  0  0
 59 60  2  0  0  0  0
 60 61  1  0  0  0  0
 61 62  1  0  0  0  0
 18  4  1  0  0  0  0
 27 20  1  0  0  0  0
 35 28  1  0  0  0  0
 40 36  2  0  0  0  0
 49 42  1  0  0  0  0
 57 50  1  0  0  0  0
 62 58  2  0  0  0  0
  9  5  1  0  0  0  0
 18 14  2  0  0  0  0
 62  7  1  0  0  0  0
 40 16  1  0  0  0  0
  1 63  1  0  0  0  0
  1 64  1  0  0  0  0
  1 65  1  0  0  0  0
  2 66  1  0  0  0  0
  2 67  1  0  0  0  0
 12 68  1  0  0  0  0
 12 69  1  0  0  0  0
 13 70  1  0  0  0  0
 13 71  1  0  0  0  0
 13 72  1  0  0  0  0
 21 73  1  0  0  0  0
 22 74  1  0  0  0  0
 24 75  1  0  0  0  0
 24 76  1  0  0  0  0
 25 77  1  0  0  0  0
 25 78  1  0  0  0  0
 25 79  1  0  0  0  0
 26 80  1  0  0  0  0
 27 81  1  0  0  0  0
 29 82  1  0  0  0  0
 30 83  1  0  0  0  0
 32 84  1  0  0  0  0
 32 85  1  0  0  0  0
 33 86  1  0  0  0  0
 33 87  1  0  0  0  0
 33 88  1  0  0  0  0
 34 89  1  0  0  0  0
 35 90  1  0  0  0  0
 37 91  1  0  0  0  0
 38 92  1  0  0  0  0
 43 93  1  0  0  0  0
 44 94  1  0  0  0  0
 46 95  1  0  0  0  0
 46 96  1  0  0  0  0
 47 97  1  0  0  0  0
 47 98  1  0  0  0  0
 47 99  1  0  0  0  0
 48100  1  0  0  0  0
 49101  1  0  0  0  0
 51102  1  0  0  0  0
 52103  1  0  0  0  0
 54104  1  0  0  0  0
 54105  1  0  0  0  0
 55106  1  0  0  0  0
 55107  1  0  0  0  0
 55108  1  0  0  0  0
 56109  1  0  0  0  0
 57110  1  0  0  0  0
 59111  1  0  0  0  0
 60112  1  0  0  0  0
M  END
