
  xtb     01172215083D
 energy: -50.273287048209 gnorm: 0.000798694725 xtb: 6.4.1 (unknown)
 28 30  0     0  0            999 V2000
   -2.2937   -3.0052    3.0474 C   0  0  0  0  0  0  0  0  0  0  0  0
   -1.4202   -2.2370    2.3929 C   0  0  0  0  0  0  0  0  0  0  0  0
   -0.1137   -1.8353    3.0104 C   0  0  0  0  0  0  0  0  0  0  0  0
    0.2738   -2.1330    4.1152 O   0  0  0  0  0  0  0  0  0  0  0  0
    0.5709   -1.0219    1.9945 C   0  0  0  0  0  0  0  0  0  0  0  0
    1.8001   -0.4299    2.0626 C   0  0  0  0  0  0  0  0  0  0  0  0
    2.2743    0.3078    0.9561 C   0  0  0  0  0  0  0  0  0  0  0  0
    3.5357    0.9355    0.9681 C   0  0  0  0  0  0  0  0  0  0  0  0
    3.9754    1.6421   -0.1180 C   0  0  0  0  0  0  0  0  0  0  0  0
    3.1733    1.7531   -1.2644 C   0  0  0  0  0  0  0  0  0  0  0  0
    1.9430    1.1570   -1.3085 C   0  0  0  0  0  0  0  0  0  0  0  0
    1.4584    0.4201   -0.2076 C   0  0  0  0  0  0  0  0  0  0  0  0
    0.1907   -0.2005   -0.2504 C   0  0  0  0  0  0  0  0  0  0  0  0
   -0.2516   -0.9152    0.8341 C   0  0  0  0  0  0  0  0  0  0  0  0
   -1.4882   -1.6514    1.0529 C   0  0  0  0  0  0  0  0  0  0  0  0
   -2.5230   -1.7742    0.1713 C   0  0  0  0  0  0  0  0  0  0  0  0
   -3.7034   -2.5091    0.4172 C   0  0  0  0  0  0  0  0  0  0  0  0
   -4.6827   -3.0918    0.5506 N   0  0  0  0  0  0  0  0  0  0  0  0
   -2.5518   -1.1806   -1.1103 C   0  0  0  0  0  0  0  0  0  0  0  0
   -2.6338   -0.7227   -2.1591 N   0  0  0  0  0  0  0  0  0  0  0  0
   -3.2389   -3.3228    2.6446 H   0  0  0  0  0  0  0  0  0  0  0  0
   -2.0418   -3.3336    4.0438 H   0  0  0  0  0  0  0  0  0  0  0  0
    2.4037   -0.5266    2.9527 H   0  0  0  0  0  0  0  0  0  0  0  0
    4.1497    0.8474    1.8525 H   0  0  0  0  0  0  0  0  0  0  0  0
    4.9440    2.1190   -0.1001 H   0  0  0  0  0  0  0  0  0  0  0  0
    3.5358    2.3139   -2.1127 H   0  0  0  0  0  0  0  0  0  0  0  0
    1.3217    1.2397   -2.1882 H   0  0  0  0  0  0  0  0  0  0  0  0
   -0.4022   -0.0975   -1.1452 H   0  0  0  0  0  0  0  0  0  0  0  0
  1  2  2  0  0  0  0
  2  3  1  0  0  0  0
  3  4  2  0  0  0  0
  3  5  1  0  0  0  0
  5  6  2  0  0  0  0
  6  7  1  0  0  0  0
  7  8  2  0  0  0  0
  8  9  1  0  0  0  0
  9 10  2  0  0  0  0
 10 11  1  0  0  0  0
 11 12  2  0  0  0  0
 12 13  1  0  0  0  0
 13 14  2  0  0  0  0
 14 15  1  0  0  0  0
 15 16  2  0  0  0  0
 16 17  1  0  0  0  0
 17 18  3  0  0  0  0
 16 19  1  0  0  0  0
 19 20  3  0  0  0  0
 15  2  1  0  0  0  0
 14  5  1  0  0  0  0
 12  7  1  0  0  0  0
  1 21  1  0  0  0  0
  1 22  1  0  0  0  0
  6 23  1  0  0  0  0
  8 24  1  0  0  0  0
  9 25  1  0  0  0  0
 10 26  1  0  0  0  0
 11 27  1  0  0  0  0
 13 28  1  0  0  0  0
M  END
