
  xtb     01172215083D
 energy: -87.589484097265 gnorm: 0.000763447954 xtb: 6.4.1 (unknown)
 55 61  0     0  0            999 V2000
    5.3189   -0.0154    5.3170 C   0  0  0  0  0  0  0  0  0  0  0  0
    5.9051   -0.0305    3.9051 C   0  0  0  0  0  0  0  0  0  0  0  0
    5.1097   -0.9227    3.0078 C   0  0  0  0  0  0  0  0  0  0  0  0
    5.4969   -2.1503    2.5722 C   0  0  0  0  0  0  0  0  0  0  0  0
    4.3292   -2.9439    1.5629 S   0  0  0  0  0  0  0  0  0  0  0  0
    3.2583   -1.5912    1.7164 C   0  0  0  0  0  0  0  0  0  0  0  0
    3.8198   -0.6027    2.5186 C   0  0  0  0  0  0  0  0  0  0  0  0
    2.7925    0.7974    2.7093 S   0  0  0  0  0  0  0  0  0  0  0  0
    1.6095    0.0388    1.6973 C   0  0  0  0  0  0  0  0  0  0  0  0
    0.3235    0.2904    1.1870 C   0  0  0  0  0  0  0  0  0  0  0  0
   -0.5750    1.3498    1.4264 C   0  0  0  0  0  0  0  0  0  0  0  0
   -0.3970    2.4283    2.1722 N   0  0  0  0  0  0  0  0  0  0  0  0
   -1.7721    3.2855    2.1732 S   0  0  0  0  0  0  0  0  0  0  0  0
   -2.6504    2.3079    1.2162 N   0  0  0  0  0  0  0  0  0  0  0  0
   -1.8931    1.2793    0.8593 C   0  0  0  0  0  0  0  0  0  0  0  0
   -2.2115    0.2131   -0.0053 C   0  0  0  0  0  0  0  0  0  0  0  0
   -3.3542   -0.0501   -0.7872 C   0  0  0  0  0  0  0  0  0  0  0  0
   -3.0803   -1.1833   -1.5553 C   0  0  0  0  0  0  0  0  0  0  0  0
   -4.2013   -1.4329   -2.3661 C   0  0  0  0  0  0  0  0  0  0  0  0
   -5.1019   -0.4411   -2.0495 C   0  0  0  0  0  0  0  0  0  0  0  0
   -4.6022    0.3928   -1.0906 N   0  0  0  0  0  0  0  0  0  0  0  0
   -5.2308    1.5828   -0.5816 C   0  0  0  0  0  0  0  0  0  0  0  0
   -4.8902    2.8008   -1.4384 C   0  0  0  0  0  0  0  0  0  0  0  0
   -1.8238   -1.6593   -1.2641 N   0  0  0  0  0  0  0  0  0  0  0  0
   -1.1762   -2.5552   -2.1928 C   0  0  0  0  0  0  0  0  0  0  0  0
   -0.0501   -1.8654   -2.9608 C   0  0  0  0  0  0  0  0  0  0  0  0
   -1.2722   -0.8152   -0.3077 C   0  0  0  0  0  0  0  0  0  0  0  0
   -0.0313   -0.8297    0.3862 C   0  0  0  0  0  0  0  0  0  0  0  0
    1.0066   -1.7484    0.4450 N   0  0  0  0  0  0  0  0  0  0  0  0
    1.0048   -3.1662    0.1667 C   0  0  0  0  0  0  0  0  0  0  0  0
   -0.1117   -3.8848    0.9204 C   0  0  0  0  0  0  0  0  0  0  0  0
    1.9897   -1.2206    1.2412 C   0  0  0  0  0  0  0  0  0  0  0  0
    5.9004    0.6422    5.9584 H   0  0  0  0  0  0  0  0  0  0  0  0
    4.2920    0.3411    5.2947 H   0  0  0  0  0  0  0  0  0  0  0  0
    5.3299   -1.0164    5.7431 H   0  0  0  0  0  0  0  0  0  0  0  0
    6.9402   -0.3751    3.9367 H   0  0  0  0  0  0  0  0  0  0  0  0
    5.8872    0.9835    3.4988 H   0  0  0  0  0  0  0  0  0  0  0  0
    6.4177   -2.6603    2.7748 H   0  0  0  0  0  0  0  0  0  0  0  0
   -4.3539   -2.2190   -3.0791 H   0  0  0  0  0  0  0  0  0  0  0  0
   -6.0867   -0.2836   -2.4454 H   0  0  0  0  0  0  0  0  0  0  0  0
   -4.8651    1.7499    0.4341 H   0  0  0  0  0  0  0  0  0  0  0  0
   -6.3130    1.4247   -0.5605 H   0  0  0  0  0  0  0  0  0  0  0  0
   -5.1914    2.6409   -2.4717 H   0  0  0  0  0  0  0  0  0  0  0  0
   -3.8189    2.9806   -1.4074 H   0  0  0  0  0  0  0  0  0  0  0  0
   -5.4003    3.6792   -1.0536 H   0  0  0  0  0  0  0  0  0  0  0  0
   -0.8192   -3.4549   -1.6876 H   0  0  0  0  0  0  0  0  0  0  0  0
   -1.9501   -2.8694   -2.8973 H   0  0  0  0  0  0  0  0  0  0  0  0
    0.7062   -1.4766   -2.2834 H   0  0  0  0  0  0  0  0  0  0  0  0
    0.4187   -2.5663   -3.6471 H   0  0  0  0  0  0  0  0  0  0  0  0
   -0.4509   -1.0320   -3.5335 H   0  0  0  0  0  0  0  0  0  0  0  0
    1.9716   -3.5495    0.5029 H   0  0  0  0  0  0  0  0  0  0  0  0
    0.9446   -3.3499   -0.9068 H   0  0  0  0  0  0  0  0  0  0  0  0
   -0.0921   -4.9468    0.6901 H   0  0  0  0  0  0  0  0  0  0  0  0
   -1.0861   -3.4826    0.6539 H   0  0  0  0  0  0  0  0  0  0  0  0
    0.0253   -3.7592    1.9921 H   0  0  0  0  0  0  0  0  0  0  0  0
  1  2  1  0  0  0  0
  2  3  1  0  0  0  0
  3  4  2  0  0  0  0
  4  5  1  0  0  0  0
  5  6  1  0  0  0  0
  6  7  2  0  0  0  0
  7  8  1  0  0  0  0
  8  9  1  0  0  0  0
  9 10  1  0  0  0  0
 10 11  1  0  0  0  0
 11 12  2  0  0  0  0
 12 13  1  0  0  0  0
 13 14  1  0  0  0  0
 14 15  2  0  0  0  0
 15 16  1  0  0  0  0
 16 17  1  0  0  0  0
 17 18  2  0  0  0  0
 18 19  1  0  0  0  0
 19 20  2  0  0  0  0
 20 21  1  0  0  0  0
 21 22  1  0  0  0  0
 22 23  1  0  0  0  0
 18 24  1  0  0  0  0
 24 25  1  0  0  0  0
 25 26  1  0  0  0  0
 24 27  1  0  0  0  0
 27 28  1  0  0  0  0
 28 29  1  0  0  0  0
 29 30  1  0  0  0  0
 30 31  1  0  0  0  0
 29 32  1  0  0  0  0
  7  3  1  0  0  0  0
 32  9  2  0  0  0  0
 32  6  1  0  0  0  0
 28 10  2  0  0  0  0
 15 11  1  0  0  0  0
 27 16  2  0  0  0  0
 21 17  1  0  0  0  0
  1 33  1  0  0  0  0
  1 34  1  0  0  0  0
  1 35  1  0  0  0  0
  2 36  1  0  0  0  0
  2 37  1  0  0  0  0
  4 38  1  0  0  0  0
 19 39  1  0  0  0  0
 20 40  1  0  0  0  0
 22 41  1  0  0  0  0
 22 42  1  0  0  0  0
 23 43  1  0  0  0  0
 23 44  1  0  0  0  0
 23 45  1  0  0  0  0
 25 46  1  0  0  0  0
 25 47  1  0  0  0  0
 26 48  1  0  0  0  0
 26 49  1  0  0  0  0
 26 50  1  0  0  0  0
 30 51  1  0  0  0  0
 30 52  1  0  0  0  0
 31 53  1  0  0  0  0
 31 54  1  0  0  0  0
 31 55  1  0  0  0  0
M  END
