
  xtb     01172215083D
 energy: -6.271260522763 gnorm: 0.000262258651 xtb: 6.4.1 (unknown)
  6  5  0     0  0            999 V2000
    0.9660   -1.8337    2.3314 C   0  0  0  0  0  0  0  0  0  0  0  0
    2.0642   -1.8093    3.0568 C   0  0  0  0  0  0  0  0  0  0  0  0
    0.4027   -2.7399    2.1779 H   0  0  0  0  0  0  0  0  0  0  0  0
    0.5755   -0.9486    1.8559 H   0  0  0  0  0  0  0  0  0  0  0  0
    2.6275   -0.9031    3.2103 H   0  0  0  0  0  0  0  0  0  0  0  0
    2.4547   -2.6944    3.5323 H   0  0  0  0  0  0  0  0  0  0  0  0
  1  2  2  0  0  0  0
  1  3  1  0  0  0  0
  1  4  1  0  0  0  0
  2  5  1  0  0  0  0
  2  6  1  0  0  0  0
M  END
