
  xtb     01172215083D
 energy: -20.153322456178 gnorm: 0.000282517608 xtb: 6.4.1 (unknown)
 15 15  0     0  0            999 V2000
   -0.9480    0.3791    0.9920 C   0  0  0  0  0  0  0  0  0  0  0  0
    0.1378   -0.5400    0.4293 C   0  0  0  0  0  0  0  0  0  0  0  0
    1.4659   -0.2393    1.0506 C   0  0  0  0  0  0  0  0  0  0  0  0
    2.3281    0.7996    0.6077 C   0  0  0  0  0  0  0  0  0  0  0  0
    3.4578    0.9015    1.3482 C   0  0  0  0  0  0  0  0  0  0  0  0
    3.5069   -0.2625    2.6131 S   0  0  0  0  0  0  0  0  0  0  0  0
    1.9806   -0.8900    2.1270 C   0  0  0  0  0  0  0  0  0  0  0  0
   -1.0493    0.2301    2.0647 H   0  0  0  0  0  0  0  0  0  0  0  0
   -0.6941    1.4216    0.8136 H   0  0  0  0  0  0  0  0  0  0  0  0
   -1.9049    0.1687    0.5199 H   0  0  0  0  0  0  0  0  0  0  0  0
    0.2058   -0.4004   -0.6517 H   0  0  0  0  0  0  0  0  0  0  0  0
   -0.1307   -1.5799    0.6246 H   0  0  0  0  0  0  0  0  0  0  0  0
    2.1068    1.4339   -0.2324 H   0  0  0  0  0  0  0  0  0  0  0  0
    4.2735    1.5873    1.2332 H   0  0  0  0  0  0  0  0  0  0  0  0
    1.5548   -1.7109    2.6694 H   0  0  0  0  0  0  0  0  0  0  0  0
  1  2  1  0  0  0  0
  2  3  1  0  0  0  0
  3  4  1  0  0  0  0
  4  5  2  0  0  0  0
  5  6  1  0  0  0  0
  6  7  1  0  0  0  0
  7  3  2  0  0  0  0
  1  8  1  0  0  0  0
  1  9  1  0  0  0  0
  1 10  1  0  0  0  0
  2 11  1  0  0  0  0
  2 12  1  0  0  0  0
  4 13  1  0  0  0  0
  5 14  1  0  0  0  0
  7 15  1  0  0  0  0
M  END
