
  xtb     01172215083D
 energy: -11.552701839853 gnorm: 0.000709759134 xtb: 6.4.1 (unknown)
 10  9  0     0  0            999 V2000
    2.4064   -1.2292    2.8985 C   0  0  0  0  0  0  0  0  0  0  0  0
    2.2488   -1.2022    1.5798 C   0  0  0  0  0  0  0  0  0  0  0  0
    0.9758   -1.3970    0.9197 C   0  0  0  0  0  0  0  0  0  0  0  0
    0.8183   -1.3700   -0.3989 C   0  0  0  0  0  0  0  0  0  0  0  0
    3.3657   -1.0814    3.3641 H   0  0  0  0  0  0  0  0  0  0  0  0
    1.5745   -1.4019    3.5623 H   0  0  0  0  0  0  0  0  0  0  0  0
    3.0988   -1.0273    0.9323 H   0  0  0  0  0  0  0  0  0  0  0  0
    0.1258   -1.5720    1.5673 H   0  0  0  0  0  0  0  0  0  0  0  0
   -0.1411   -1.5179   -0.8645 H   0  0  0  0  0  0  0  0  0  0  0  0
    1.6502   -1.1973   -1.0628 H   0  0  0  0  0  0  0  0  0  0  0  0
  1  2  2  0  0  0  0
  2  3  1  0  0  0  0
  3  4  2  0  0  0  0
  1  5  1  0  0  0  0
  1  6  1  0  0  0  0
  2  7  1  0  0  0  0
  3  8  1  0  0  0  0
  4  9  1  0  0  0  0
  4 10  1  0  0  0  0
M  END
