
  xtb     01172215083D
 energy: -79.885238417609 gnorm: 0.000235141625 xtb: 6.4.1 (unknown)
 52 56  0     0  0            999 V2000
    4.5173   -1.9116    7.0751 C   0  0  0  0  0  0  0  0  0  0  0  0
    5.6605   -2.3846    6.1984 C   0  0  0  0  0  0  0  0  0  0  0  0
    5.1419   -3.6973    5.0367 S   0  0  0  0  0  0  0  0  0  0  0  0
    3.9466   -2.9054    4.0012 C   0  0  0  0  0  0  0  0  0  0  0  0
    3.9258   -1.5392    3.7537 C   0  0  0  0  0  0  0  0  0  0  0  0
    2.9551   -1.0030    2.9306 C   0  0  0  0  0  0  0  0  0  0  0  0
    2.0022   -1.8153    2.3227 C   0  0  0  0  0  0  0  0  0  0  0  0
    0.9765   -1.2321    1.4485 C   0  0  0  0  0  0  0  0  0  0  0  0
    0.1670   -0.1701    1.8738 C   0  0  0  0  0  0  0  0  0  0  0  0
    0.1255    0.4485    3.1603 C   0  0  0  0  0  0  0  0  0  0  0  0
   -0.8020    1.4221    3.2452 C   0  0  0  0  0  0  0  0  0  0  0  0
   -1.6928    1.6639    1.7800 S   0  0  0  0  0  0  0  0  0  0  0  0
   -0.7925    0.3887    0.9974 C   0  0  0  0  0  0  0  0  0  0  0  0
   -1.0010   -0.0717   -0.2953 C   0  0  0  0  0  0  0  0  0  0  0  0
   -2.0266    0.5115   -1.1695 C   0  0  0  0  0  0  0  0  0  0  0  0
   -2.0759    1.8852   -1.3972 C   0  0  0  0  0  0  0  0  0  0  0  0
   -3.0311    2.4234   -2.2325 C   0  0  0  0  0  0  0  0  0  0  0  0
   -3.9711    1.6017   -2.8479 C   0  0  0  0  0  0  0  0  0  0  0  0
   -5.1664    2.3936   -3.8833 S   0  0  0  0  0  0  0  0  0  0  0  0
   -5.6849    1.0810   -5.0452 C   0  0  0  0  0  0  0  0  0  0  0  0
   -4.5417    0.6082   -5.9219 C   0  0  0  0  0  0  0  0  0  0  0  0
   -3.9503    0.2355   -2.6006 C   0  0  0  0  0  0  0  0  0  0  0  0
   -2.9796   -0.3008   -1.7774 C   0  0  0  0  0  0  0  0  0  0  0  0
   -0.1915   -1.1337   -0.7206 C   0  0  0  0  0  0  0  0  0  0  0  0
   -0.1500   -1.7523   -2.0071 C   0  0  0  0  0  0  0  0  0  0  0  0
    0.7775   -2.7259   -2.0920 C   0  0  0  0  0  0  0  0  0  0  0  0
    1.6683   -2.9677   -0.6267 S   0  0  0  0  0  0  0  0  0  0  0  0
    0.7680   -1.6925    0.1558 C   0  0  0  0  0  0  0  0  0  0  0  0
    2.0514   -3.1890    2.5504 C   0  0  0  0  0  0  0  0  0  0  0  0
    3.0066   -3.7271    3.3858 C   0  0  0  0  0  0  0  0  0  0  0  0
    4.1070   -2.7453    7.6400 H   0  0  0  0  0  0  0  0  0  0  0  0
    3.7202   -1.4796    6.4731 H   0  0  0  0  0  0  0  0  0  0  0  0
    4.8735   -1.1570    7.7739 H   0  0  0  0  0  0  0  0  0  0  0  0
    6.4386   -2.8614    6.7942 H   0  0  0  0  0  0  0  0  0  0  0  0
    6.1093   -1.5708    5.6298 H   0  0  0  0  0  0  0  0  0  0  0  0
    4.6650   -0.8843    4.1883 H   0  0  0  0  0  0  0  0  0  0  0  0
    2.9518    0.0597    2.7349 H   0  0  0  0  0  0  0  0  0  0  0  0
    0.7573    0.1511    3.9777 H   0  0  0  0  0  0  0  0  0  0  0  0
   -1.0369    2.0372    4.0920 H   0  0  0  0  0  0  0  0  0  0  0  0
   -1.3428    2.5302   -0.9368 H   0  0  0  0  0  0  0  0  0  0  0  0
   -3.0592    3.4856   -2.4207 H   0  0  0  0  0  0  0  0  0  0  0  0
   -6.1336    0.2671   -4.4768 H   0  0  0  0  0  0  0  0  0  0  0  0
   -6.4630    1.5579   -5.6410 H   0  0  0  0  0  0  0  0  0  0  0  0
   -4.1314    1.4420   -6.4867 H   0  0  0  0  0  0  0  0  0  0  0  0
   -4.8977   -0.1464   -6.6209 H   0  0  0  0  0  0  0  0  0  0  0  0
   -3.7445    0.1762   -5.3199 H   0  0  0  0  0  0  0  0  0  0  0  0
   -4.6895   -0.4194   -3.0352 H   0  0  0  0  0  0  0  0  0  0  0  0
   -2.9763   -1.3635   -1.5818 H   0  0  0  0  0  0  0  0  0  0  0  0
   -0.7819   -1.4549   -2.8245 H   0  0  0  0  0  0  0  0  0  0  0  0
    1.0124   -3.3411   -2.9388 H   0  0  0  0  0  0  0  0  0  0  0  0
    1.3183   -3.8341    2.0901 H   0  0  0  0  0  0  0  0  0  0  0  0
    3.0347   -4.7894    3.5741 H   0  0  0  0  0  0  0  0  0  0  0  0
  1  2  1  0  0  0  0
  2  3  1  0  0  0  0
  3  4  1  0  0  0  0
  4  5  2  0  0  0  0
  5  6  1  0  0  0  0
  6  7  2  0  0  0  0
  7  8  1  0  0  0  0
  8  9  2  0  0  0  0
  9 10  1  0  0  0  0
 10 11  2  0  0  0  0
 11 12  1  0  0  0  0
 12 13  1  0  0  0  0
 13 14  2  0  0  0  0
 14 15  1  0  0  0  0
 15 16  2  0  0  0  0
 16 17  1  0  0  0  0
 17 18  2  0  0  0  0
 18 19  1  0  0  0  0
 19 20  1  0  0  0  0
 20 21  1  0  0  0  0
 18 22  1  0  0  0  0
 22 23  2  0  0  0  0
 14 24  1  0  0  0  0
 24 25  1  0  0  0  0
 25 26  2  0  0  0  0
 26 27  1  0  0  0  0
 27 28  1  0  0  0  0
  7 29  1  0  0  0  0
 29 30  2  0  0  0  0
 30  4  1  0  0  0  0
 28  8  1  0  0  0  0
 13  9  1  0  0  0  0
 23 15  1  0  0  0  0
 28 24  2  0  0  0  0
  1 31  1  0  0  0  0
  1 32  1  0  0  0  0
  1 33  1  0  0  0  0
  2 34  1  0  0  0  0
  2 35  1  0  0  0  0
  5 36  1  0  0  0  0
  6 37  1  0  0  0  0
 10 38  1  0  0  0  0
 11 39  1  0  0  0  0
 16 40  1  0  0  0  0
 17 41  1  0  0  0  0
 20 42  1  0  0  0  0
 20 43  1  0  0  0  0
 21 44  1  0  0  0  0
 21 45  1  0  0  0  0
 21 46  1  0  0  0  0
 22 47  1  0  0  0  0
 23 48  1  0  0  0  0
 25 49  1  0  0  0  0
 26 50  1  0  0  0  0
 29 51  1  0  0  0  0
 30 52  1  0  0  0  0
M  END
