
  xtb     01172215083D
 energy: -48.299219351543 gnorm: 0.000585170930 xtb: 6.4.1 (unknown)
 22 23  0     0  0            999 V2000
    1.4434   -0.5378    3.8030 C   0  0  0  0  0  0  0  0  0  0  0  0
    1.0693   -0.4552    2.5244 C   0  0  0  0  0  0  0  0  0  0  0  0
    1.3936   -1.5428    1.5463 C   0  0  0  0  0  0  0  0  0  0  0  0
    1.9833   -2.5650    1.7883 O   0  0  0  0  0  0  0  0  0  0  0  0
    0.8397   -1.0848    0.2561 C   0  0  0  0  0  0  0  0  0  0  0  0
    0.2174    0.1697    0.4217 C   0  0  0  0  0  0  0  0  0  0  0  0
   -0.3746    0.7977   -0.6658 C   0  0  0  0  0  0  0  0  0  0  0  0
   -0.3354    0.1685   -1.8993 C   0  0  0  0  0  0  0  0  0  0  0  0
    0.2795   -1.0658   -2.0595 C   0  0  0  0  0  0  0  0  0  0  0  0
    0.3007   -1.8671   -3.7679 Br  0  0  0  0  0  0  0  0  0  0  0  0
    0.8810   -1.7194   -0.9776 C   0  0  0  0  0  0  0  0  0  0  0  0
    1.6391   -3.2394   -1.1676 Cl  0  0  0  0  0  0  0  0  0  0  0  0
    0.3358    0.5911    1.8120 C   0  0  0  0  0  0  0  0  0  0  0  0
   -0.1473    1.7468    2.3504 C   0  0  0  0  0  0  0  0  0  0  0  0
    0.0012    2.1208    3.7058 C   0  0  0  0  0  0  0  0  0  0  0  0
    0.0901    2.4857    4.7893 N   0  0  0  0  0  0  0  0  0  0  0  0
   -0.8618    2.7295    1.6277 C   0  0  0  0  0  0  0  0  0  0  0  0
   -1.4475    3.5590    1.0949 N   0  0  0  0  0  0  0  0  0  0  0  0
    1.9865   -1.4133    4.1231 H   0  0  0  0  0  0  0  0  0  0  0  0
    1.2392    0.2172    4.5409 H   0  0  0  0  0  0  0  0  0  0  0  0
   -0.8584    1.7554   -0.5728 H   0  0  0  0  0  0  0  0  0  0  0  0
   -0.7882    0.6415   -2.7571 H   0  0  0  0  0  0  0  0  0  0  0  0
  1  2  2  0  0  0  0
  2  3  1  0  0  0  0
  3  4  2  0  0  0  0
  3  5  1  0  0  0  0
  5  6  2  0  0  0  0
  6  7  1  0  0  0  0
  7  8  2  0  0  0  0
  8  9  1  0  0  0  0
  9 10  1  0  0  0  0
  9 11  2  0  0  0  0
 11 12  1  0  0  0  0
  6 13  1  0  0  0  0
 13 14  2  0  0  0  0
 14 15  1  0  0  0  0
 15 16  3  0  0  0  0
 14 17  1  0  0  0  0
 17 18  3  0  0  0  0
 13  2  1  0  0  0  0
 11  5  1  0  0  0  0
  1 19  1  0  0  0  0
  1 20  1  0  0  0  0
  7 21  1  0  0  0  0
  8 22  1  0  0  0  0
M  END
