
  xtb     01172215083D
 energy: -48.300091266645 gnorm: 0.000874110897 xtb: 6.4.1 (unknown)
 22 23  0     0  0            999 V2000
   -2.1329   -0.0198   -0.8834 C   0  0  0  0  0  0  0  0  0  0  0  0
   -1.0129   -0.1803   -0.1753 C   0  0  0  0  0  0  0  0  0  0  0  0
   -0.2258   -1.4544   -0.2386 C   0  0  0  0  0  0  0  0  0  0  0  0
   -0.4999   -2.4257   -0.8974 O   0  0  0  0  0  0  0  0  0  0  0  0
    0.9237   -1.2488    0.6613 C   0  0  0  0  0  0  0  0  0  0  0  0
    1.9681   -2.1124    0.9699 C   0  0  0  0  0  0  0  0  0  0  0  0
    2.0552   -3.6740    0.2772 Cl  0  0  0  0  0  0  0  0  0  0  0  0
    2.9520   -1.6870    1.8578 C   0  0  0  0  0  0  0  0  0  0  0  0
    2.8711   -0.4188    2.4130 C   0  0  0  0  0  0  0  0  0  0  0  0
    4.2237    0.1335    3.6172 Br  0  0  0  0  0  0  0  0  0  0  0  0
    1.8364    0.4628    2.1201 C   0  0  0  0  0  0  0  0  0  0  0  0
    0.8584    0.0373    1.2362 C   0  0  0  0  0  0  0  0  0  0  0  0
   -0.3294    0.7301    0.7431 C   0  0  0  0  0  0  0  0  0  0  0  0
   -0.7279    1.9894    1.0768 C   0  0  0  0  0  0  0  0  0  0  0  0
   -0.0390    2.8387    1.9736 C   0  0  0  0  0  0  0  0  0  0  0  0
    0.4702    3.5682    2.6968 N   0  0  0  0  0  0  0  0  0  0  0  0
   -1.8864    2.6226    0.5685 C   0  0  0  0  0  0  0  0  0  0  0  0
   -2.8072    3.1945    0.1948 N   0  0  0  0  0  0  0  0  0  0  0  0
   -2.4651   -0.8344   -1.5080 H   0  0  0  0  0  0  0  0  0  0  0  0
   -2.7315    0.8737   -0.8725 H   0  0  0  0  0  0  0  0  0  0  0  0
    3.7706   -2.3422    2.1096 H   0  0  0  0  0  0  0  0  0  0  0  0
    1.8151    1.4392    2.5754 H   0  0  0  0  0  0  0  0  0  0  0  0
  1  2  2  0  0  0  0
  2  3  1  0  0  0  0
  3  4  2  0  0  0  0
  3  5  1  0  0  0  0
  5  6  2  0  0  0  0
  6  7  1  0  0  0  0
  6  8  1  0  0  0  0
  8  9  2  0  0  0  0
  9 10  1  0  0  0  0
  9 11  1  0  0  0  0
 11 12  2  0  0  0  0
 12 13  1  0  0  0  0
 13 14  2  0  0  0  0
 14 15  1  0  0  0  0
 15 16  3  0  0  0  0
 14 17  1  0  0  0  0
 17 18  3  0  0  0  0
 13  2  1  0  0  0  0
 12  5  1  0  0  0  0
  1 19  1  0  0  0  0
  1 20  1  0  0  0  0
  8 21  1  0  0  0  0
 11 22  1  0  0  0  0
M  END
