
  xtb     01172215083D
 energy: -48.946707875061 gnorm: 0.000621487218 xtb: 6.4.1 (unknown)
 22 23  0     0  0            999 V2000
   -1.6265   -2.1198    1.8519 C   0  0  0  0  0  0  0  0  0  0  0  0
   -0.6749   -1.3369    1.3389 C   0  0  0  0  0  0  0  0  0  0  0  0
    0.3429   -1.8692    0.3765 C   0  0  0  0  0  0  0  0  0  0  0  0
    0.4183   -2.9987   -0.0363 O   0  0  0  0  0  0  0  0  0  0  0  0
    1.2147   -0.7211    0.0542 C   0  0  0  0  0  0  0  0  0  0  0  0
    2.3135   -0.6929   -0.7827 C   0  0  0  0  0  0  0  0  0  0  0  0
    2.9973    0.5062   -0.9384 C   0  0  0  0  0  0  0  0  0  0  0  0
    4.3728    0.6107   -1.9598 Cl  0  0  0  0  0  0  0  0  0  0  0  0
    2.5530    1.6404   -0.2480 C   0  0  0  0  0  0  0  0  0  0  0  0
    3.2156    2.7904   -0.4016 F   0  0  0  0  0  0  0  0  0  0  0  0
    1.4529    1.6220    0.5917 C   0  0  0  0  0  0  0  0  0  0  0  0
    0.7715    0.4216    0.7474 C   0  0  0  0  0  0  0  0  0  0  0  0
   -0.3956    0.0855    1.5518 C   0  0  0  0  0  0  0  0  0  0  0  0
   -1.0976    0.9351    2.3545 C   0  0  0  0  0  0  0  0  0  0  0  0
   -0.7949    2.3064    2.5187 C   0  0  0  0  0  0  0  0  0  0  0  0
   -0.5959    3.4231    2.6864 N   0  0  0  0  0  0  0  0  0  0  0  0
   -2.2190    0.5613    3.1301 C   0  0  0  0  0  0  0  0  0  0  0  0
   -3.1289    0.3212    3.7851 N   0  0  0  0  0  0  0  0  0  0  0  0
   -1.6527   -3.1569    1.5558 H   0  0  0  0  0  0  0  0  0  0  0  0
   -2.3751   -1.7830    2.5470 H   0  0  0  0  0  0  0  0  0  0  0  0
    2.6304   -1.5843   -1.3003 H   0  0  0  0  0  0  0  0  0  0  0  0
    1.1647    2.5316    1.0932 H   0  0  0  0  0  0  0  0  0  0  0  0
  1  2  2  0  0  0  0
  2  3  1  0  0  0  0
  3  4  2  0  0  0  0
  3  5  1  0  0  0  0
  5  6  2  0  0  0  0
  6  7  1  0  0  0  0
  7  8  1  0  0  0  0
  7  9  2  0  0  0  0
  9 10  1  0  0  0  0
  9 11  1  0  0  0  0
 11 12  2  0  0  0  0
 12 13  1  0  0  0  0
 13 14  2  0  0  0  0
 14 15  1  0  0  0  0
 15 16  3  0  0  0  0
 14 17  1  0  0  0  0
 17 18  3  0  0  0  0
 13  2  1  0  0  0  0
 12  5  1  0  0  0  0
  1 19  1  0  0  0  0
  1 20  1  0  0  0  0
  6 21  1  0  0  0  0
 11 22  1  0  0  0  0
M  END
