
  xtb     01172215083D
 energy: -39.050986942731 gnorm: 0.000806892471 xtb: 6.4.1 (unknown)
 19 22  0     0  0            999 V2000
   -0.4498    0.7047    3.9474 C   0  0  0  0  0  0  0  0  0  0  0  0
    0.7580    0.1582    3.6775 C   0  0  0  0  0  0  0  0  0  0  0  0
    0.9719   -0.0161    2.2867 C   0  0  0  0  0  0  0  0  0  0  0  0
    2.0968   -0.5497    1.6072 C   0  0  0  0  0  0  0  0  0  0  0  0
    3.2184   -1.0119    2.1411 N   0  0  0  0  0  0  0  0  0  0  0  0
    4.1928   -1.5088    0.9523 S   0  0  0  0  0  0  0  0  0  0  0  0
    3.2296   -1.1575   -0.2961 N   0  0  0  0  0  0  0  0  0  0  0  0
    2.1034   -0.6356    0.1687 C   0  0  0  0  0  0  0  0  0  0  0  0
    0.9851   -0.1872   -0.5797 C   0  0  0  0  0  0  0  0  0  0  0  0
    0.7840   -0.1798   -1.9832 C   0  0  0  0  0  0  0  0  0  0  0  0
   -0.4210    0.3299   -2.3273 C   0  0  0  0  0  0  0  0  0  0  0  0
   -1.3655    0.8236   -0.9668 S   0  0  0  0  0  0  0  0  0  0  0  0
   -0.1083    0.3337    0.1184 C   0  0  0  0  0  0  0  0  0  0  0  0
   -0.1148    0.4175    1.5216 C   0  0  0  0  0  0  0  0  0  0  0  0
   -1.3815    1.0324    2.5293 S   0  0  0  0  0  0  0  0  0  0  0  0
   -0.8702    0.9447    4.9037 H   0  0  0  0  0  0  0  0  0  0  0  0
    1.4847   -0.1184    4.4186 H   0  0  0  0  0  0  0  0  0  0  0  0
    1.5173   -0.5423   -2.6795 H   0  0  0  0  0  0  0  0  0  0  0  0
   -0.8325    0.4542   -3.3092 H   0  0  0  0  0  0  0  0  0  0  0  0
  1  2  2  0  0  0  0
  2  3  1  0  0  0  0
  3  4  1  0  0  0  0
  4  5  2  0  0  0  0
  5  6  1  0  0  0  0
  6  7  1  0  0  0  0
  7  8  2  0  0  0  0
  8  9  1  0  0  0  0
  9 10  1  0  0  0  0
 10 11  2  0  0  0  0
 11 12  1  0  0  0  0
 12 13  1  0  0  0  0
 13 14  1  0  0  0  0
 14 15  1  0  0  0  0
 15  1  1  0  0  0  0
 14  3  2  0  0  0  0
  8  4  1  0  0  0  0
 13  9  2  0  0  0  0
  1 16  1  0  0  0  0
  2 17  1  0  0  0  0
 10 18  1  0  0  0  0
 11 19  1  0  0  0  0
M  END
