
  xtb     01172215083D
 energy: -94.857898465262 gnorm: 0.000494930754 xtb: 6.4.1 (unknown)
 57 64  0     0  0            999 V2000
    7.7608   -0.5747    2.0630 C   0  0  0  0  0  0  0  0  0  0  0  0
    7.5892   -0.3665    0.5583 C   0  0  0  0  0  0  0  0  0  0  0  0
    6.3879   -1.0974    0.0524 C   0  0  0  0  0  0  0  0  0  0  0  0
    6.4141   -2.2142   -0.7219 C   0  0  0  0  0  0  0  0  0  0  0  0
    4.8462   -2.8411   -1.1166 S   0  0  0  0  0  0  0  0  0  0  0  0
    4.0978   -1.5699   -0.2117 C   0  0  0  0  0  0  0  0  0  0  0  0
    5.0531   -0.7265    0.3478 C   0  0  0  0  0  0  0  0  0  0  0  0
    4.3603    0.5892    1.2648 S   0  0  0  0  0  0  0  0  0  0  0  0
    2.7813   -0.0091    0.8879 C   0  0  0  0  0  0  0  0  0  0  0  0
    1.4324    0.3308    1.1024 C   0  0  0  0  0  0  0  0  0  0  0  0
    0.8568    1.4697    1.7118 C   0  0  0  0  0  0  0  0  0  0  0  0
    1.5052    2.4629    2.2888 N   0  0  0  0  0  0  0  0  0  0  0  0
    0.3334    3.6756    2.8074 Se  0  0  0  0  0  2  0  0  0  0  0  0
   -1.0332    2.7411    2.1968 N   0  0  0  0  0  0  0  0  0  0  0  0
   -0.5759    1.6245    1.6641 C   0  0  0  0  0  0  0  0  0  0  0  0
   -1.3480    0.5688    1.1267 C   0  0  0  0  0  0  0  0  0  0  0  0
   -2.7405    0.3726    1.1043 C   0  0  0  0  0  0  0  0  0  0  0  0
   -4.1874    1.2069    1.5555 S   0  0  0  0  0  0  0  0  0  0  0  0
   -5.1146   -0.2019    1.1010 C   0  0  0  0  0  0  0  0  0  0  0  0
   -6.5002   -0.4928    1.1348 C   0  0  0  0  0  0  0  0  0  0  0  0
   -7.5459    0.4759    1.5835 C   0  0  0  0  0  0  0  0  0  0  0  0
   -7.7206    1.6015    0.5639 C   0  0  0  0  0  0  0  0  0  0  0  0
   -6.7358   -1.7527    0.6820 C   0  0  0  0  0  0  0  0  0  0  0  0
   -5.3077   -2.6153    0.2110 S   0  0  0  0  0  0  0  0  0  0  0  0
   -4.3297   -1.2483    0.6245 C   0  0  0  0  0  0  0  0  0  0  0  0
   -2.9655   -0.9146    0.6179 C   0  0  0  0  0  0  0  0  0  0  0  0
   -1.7707   -1.5124    0.3163 N   0  0  0  0  0  0  0  0  0  0  0  0
   -1.7175   -2.9379    0.0944 C   0  0  0  0  0  0  0  0  0  0  0  0
   -2.1269   -3.3128   -1.3296 C   0  0  0  0  0  0  0  0  0  0  0  0
   -0.7609   -0.6128    0.5993 C   0  0  0  0  0  0  0  0  0  0  0  0
    0.6530   -0.6719    0.4681 C   0  0  0  0  0  0  0  0  0  0  0  0
    1.5082   -1.5763   -0.1463 N   0  0  0  0  0  0  0  0  0  0  0  0
    1.2802   -2.3934   -1.3182 C   0  0  0  0  0  0  0  0  0  0  0  0
    1.0910   -1.5241   -2.5604 C   0  0  0  0  0  0  0  0  0  0  0  0
    2.7923   -1.1615    0.1056 C   0  0  0  0  0  0  0  0  0  0  0  0
    7.8869   -1.6317    2.2879 H   0  0  0  0  0  0  0  0  0  0  0  0
    8.6356   -0.0365    2.4191 H   0  0  0  0  0  0  0  0  0  0  0  0
    6.8874   -0.2080    2.5966 H   0  0  0  0  0  0  0  0  0  0  0  0
    7.4646    0.6999    0.3561 H   0  0  0  0  0  0  0  0  0  0  0  0
    8.4772   -0.7190    0.0309 H   0  0  0  0  0  0  0  0  0  0  0  0
    7.2740   -2.7274   -1.1044 H   0  0  0  0  0  0  0  0  0  0  0  0
   -8.4923   -0.0496    1.7224 H   0  0  0  0  0  0  0  0  0  0  0  0
   -7.2415    0.9042    2.5413 H   0  0  0  0  0  0  0  0  0  0  0  0
   -8.4777    2.3031    0.9051 H   0  0  0  0  0  0  0  0  0  0  0  0
   -6.7848    2.1388    0.4316 H   0  0  0  0  0  0  0  0  0  0  0  0
   -8.0287    1.1977   -0.3981 H   0  0  0  0  0  0  0  0  0  0  0  0
   -7.6798   -2.2530    0.5948 H   0  0  0  0  0  0  0  0  0  0  0  0
   -2.4209   -3.4070    0.7920 H   0  0  0  0  0  0  0  0  0  0  0  0
   -0.7193   -3.2976    0.3479 H   0  0  0  0  0  0  0  0  0  0  0  0
   -1.5504   -2.7617   -2.0678 H   0  0  0  0  0  0  0  0  0  0  0  0
   -3.1782   -3.0845   -1.4824 H   0  0  0  0  0  0  0  0  0  0  0  0
   -1.9817   -4.3780   -1.4878 H   0  0  0  0  0  0  0  0  0  0  0  0
    0.4230   -3.0455   -1.1853 H   0  0  0  0  0  0  0  0  0  0  0  0
    2.1662   -3.0223   -1.4396 H   0  0  0  0  0  0  0  0  0  0  0  0
    0.2256   -0.8746   -2.4426 H   0  0  0  0  0  0  0  0  0  0  0  0
    0.9462   -2.1514   -3.4358 H   0  0  0  0  0  0  0  0  0  0  0  0
    1.9681   -0.9013   -2.7206 H   0  0  0  0  0  0  0  0  0  0  0  0
  1  2  1  0  0  0  0
  2  3  1  0  0  0  0
  3  4  2  0  0  0  0
  4  5  1  0  0  0  0
  5  6  1  0  0  0  0
  6  7  2  0  0  0  0
  7  8  1  0  0  0  0
  8  9  1  0  0  0  0
  9 10  1  0  0  0  0
 10 11  1  0  0  0  0
 11 12  2  0  0  0  0
 12 13  1  0  0  0  0
 13 14  1  0  0  0  0
 14 15  2  0  0  0  0
 15 16  1  0  0  0  0
 16 17  1  0  0  0  0
 17 18  1  0  0  0  0
 18 19  1  0  0  0  0
 19 20  1  0  0  0  0
 20 21  1  0  0  0  0
 21 22  1  0  0  0  0
 20 23  2  0  0  0  0
 23 24  1  0  0  0  0
 24 25  1  0  0  0  0
 25 26  1  0  0  0  0
 26 27  1  0  0  0  0
 27 28  1  0  0  0  0
 28 29  1  0  0  0  0
 27 30  1  0  0  0  0
 30 31  1  0  0  0  0
 31 32  1  0  0  0  0
 32 33  1  0  0  0  0
 33 34  1  0  0  0  0
 32 35  1  0  0  0  0
  7  3  1  0  0  0  0
 35  9  2  0  0  0  0
 35  6  1  0  0  0  0
 31 10  2  0  0  0  0
 15 11  1  0  0  0  0
 30 16  2  0  0  0  0
 26 17  2  0  0  0  0
 25 19  2  0  0  0  0
  1 36  1  0  0  0  0
  1 37  1  0  0  0  0
  1 38  1  0  0  0  0
  2 39  1  0  0  0  0
  2 40  1  0  0  0  0
  4 41  1  0  0  0  0
 21 42  1  0  0  0  0
 21 43  1  0  0  0  0
 22 44  1  0  0  0  0
 22 45  1  0  0  0  0
 22 46  1  0  0  0  0
 23 47  1  0  0  0  0
 28 48  1  0  0  0  0
 28 49  1  0  0  0  0
 29 50  1  0  0  0  0
 29 51  1  0  0  0  0
 29 52  1  0  0  0  0
 33 53  1  0  0  0  0
 33 54  1  0  0  0  0
 34 55  1  0  0  0  0
 34 56  1  0  0  0  0
 34 57  1  0  0  0  0
M  END
