
  xtb     01172215083D
 energy: -51.686484918312 gnorm: 0.000243702029 xtb: 6.4.1 (unknown)
 30 32  0     0  0            999 V2000
   -1.4715   -0.8541    5.5608 C   0  0  0  0  0  0  0  0  0  0  0  0
   -0.2760    0.0186    5.1942 C   0  0  0  0  0  0  0  0  0  0  0  0
    0.0291   -0.0853    3.7836 N   0  0  0  0  0  0  0  0  0  0  0  0
    0.8825   -1.0443    3.2584 C   0  0  0  0  0  0  0  0  0  0  0  0
    1.4958   -1.8524    3.9090 O   0  0  0  0  0  0  0  0  0  0  0  0
    0.8612   -0.8385    1.7915 C   0  0  0  0  0  0  0  0  0  0  0  0
    1.5203   -1.5279    0.8127 C   0  0  0  0  0  0  0  0  0  0  0  0
    1.2660   -1.0902   -0.4973 C   0  0  0  0  0  0  0  0  0  0  0  0
    1.7199   -1.5318   -1.6793 N   0  0  0  0  0  0  0  0  0  0  0  0
    1.1473   -0.7567   -2.5555 N   0  0  0  0  0  0  0  0  0  0  0  0
    1.3414   -0.9498   -3.9643 C   0  0  0  0  0  0  0  0  0  0  0  0
    0.3010   -1.9238   -4.5097 C   0  0  0  0  0  0  0  0  0  0  0  0
    0.3501    0.1675   -2.1009 N   0  0  0  0  0  0  0  0  0  0  0  0
    0.3806    0.0081   -0.7698 C   0  0  0  0  0  0  0  0  0  0  0  0
   -0.2767    0.7014    0.2597 C   0  0  0  0  0  0  0  0  0  0  0  0
   -0.0146    0.2480    1.5219 C   0  0  0  0  0  0  0  0  0  0  0  0
   -0.5462    0.7281    2.8187 C   0  0  0  0  0  0  0  0  0  0  0  0
   -1.3120    1.6308    3.0449 O   0  0  0  0  0  0  0  0  0  0  0  0
   -1.2577   -1.8964    5.3350 H   0  0  0  0  0  0  0  0  0  0  0  0
   -1.6843   -0.7623    6.6220 H   0  0  0  0  0  0  0  0  0  0  0  0
   -2.3492   -0.5424    4.9991 H   0  0  0  0  0  0  0  0  0  0  0  0
   -0.4915    1.0686    5.4061 H   0  0  0  0  0  0  0  0  0  0  0  0
    0.6117   -0.3000    5.7457 H   0  0  0  0  0  0  0  0  0  0  0  0
    2.1829   -2.3510    1.0224 H   0  0  0  0  0  0  0  0  0  0  0  0
    2.3483   -1.3459   -4.1067 H   0  0  0  0  0  0  0  0  0  0  0  0
    1.2437    0.0243   -4.4467 H   0  0  0  0  0  0  0  0  0  0  0  0
    0.3902   -2.8858   -4.0109 H   0  0  0  0  0  0  0  0  0  0  0  0
    0.4526   -2.0661   -5.5756 H   0  0  0  0  0  0  0  0  0  0  0  0
   -0.7004   -1.5330   -4.3465 H   0  0  0  0  0  0  0  0  0  0  0  0
   -0.9417    1.5252    0.0607 H   0  0  0  0  0  0  0  0  0  0  0  0
  1  2  1  0  0  0  0
  2  3  1  0  0  0  0
  3  4  1  0  0  0  0
  4  5  2  0  0  0  0
  4  6  1  0  0  0  0
  6  7  2  0  0  0  0
  7  8  1  0  0  0  0
  8  9  2  0  0  0  0
  9 10  1  0  0  0  0
 10 11  1  0  0  0  0
 11 12  1  0  0  0  0
 10 13  1  0  0  0  0
 13 14  2  0  0  0  0
 14 15  1  0  0  0  0
 15 16  2  0  0  0  0
 16 17  1  0  0  0  0
 17 18  2  0  0  0  0
 17  3  1  0  0  0  0
 16  6  1  0  0  0  0
 14  8  1  0  0  0  0
  1 19  1  0  0  0  0
  1 20  1  0  0  0  0
  1 21  1  0  0  0  0
  2 22  1  0  0  0  0
  2 23  1  0  0  0  0
  7 24  1  0  0  0  0
 11 25  1  0  0  0  0
 11 26  1  0  0  0  0
 12 27  1  0  0  0  0
 12 28  1  0  0  0  0
 12 29  1  0  0  0  0
 15 30  1  0  0  0  0
M  END
