
  xtb     01172215093D
 energy: -184.144346531044 gnorm: 0.000337211696 xtb: 6.4.1 (unknown)
124136  0     0  0            999 V2000
    7.8975   -1.6013   -0.0432 C   0  0  0  0  0  0  0  0  0  0  0  0
    7.3456   -0.3700   -0.7643 C   0  0  0  0  0  0  0  0  0  0  0  0
    5.9872   -0.0153   -0.2312 C   0  0  0  0  0  0  0  0  0  0  0  0
    5.8496    0.8375    0.8565 C   0  0  0  0  0  0  0  0  0  0  0  0
    4.6030    1.1361    1.3709 C   0  0  0  0  0  0  0  0  0  0  0  0
    3.4550    0.5950    0.8036 C   0  0  0  0  0  0  0  0  0  0  0  0
    2.1045    0.8882    1.4296 C   0  0  0  0  0  0  0  0  0  0  0  0
    1.8720    2.3509    1.7496 C   0  0  0  0  0  0  0  0  0  0  0  0
    2.5624    3.3702    1.1101 C   0  0  0  0  0  0  0  0  0  0  0  0
    2.2596    4.6937    1.3729 C   0  0  0  0  0  0  0  0  0  0  0  0
    1.2660    5.0344    2.2789 C   0  0  0  0  0  0  0  0  0  0  0  0
    0.8936    6.4692    2.5185 C   0  0  0  0  0  0  0  0  0  0  0  0
   -0.3282    6.8471    1.6793 C   0  0  0  0  0  0  0  0  0  0  0  0
    0.5809    4.0108    2.9209 C   0  0  0  0  0  0  0  0  0  0  0  0
    0.8759    2.6879    2.6580 C   0  0  0  0  0  0  0  0  0  0  0  0
    0.9368    0.3669    0.6044 C   0  0  0  0  0  0  0  0  0  0  0  0
    0.4343    0.8723   -0.5824 C   0  0  0  0  0  0  0  0  0  0  0  0
    0.9447    2.0844   -1.2213 C   0  0  0  0  0  0  0  0  0  0  0  0
    2.0823    2.2737   -1.9392 C   0  0  0  0  0  0  0  0  0  0  0  0
    2.2189    3.5958   -2.4193 C   0  0  0  0  0  0  0  0  0  0  0  0
    1.1916    4.4096   -2.0639 C   0  0  0  0  0  0  0  0  0  0  0  0
    0.9757    5.8409   -2.4167 C   0  0  0  0  0  0  0  0  0  0  0  0
   -0.2180    6.0043   -3.3584 C   0  0  0  0  0  0  0  0  0  0  0  0
    0.0143    3.5507   -1.1242 S   0  0  0  0  0  0  0  0  0  0  0  0
   -0.6457    0.1821   -1.1451 C   0  0  0  0  0  0  0  0  0  0  0  0
   -1.2030   -0.9699   -0.5527 C   0  0  0  0  0  0  0  0  0  0  0  0
   -0.7473   -1.4308    0.6707 C   0  0  0  0  0  0  0  0  0  0  0  0
   -1.3536   -2.5483    1.3921 C   0  0  0  0  0  0  0  0  0  0  0  0
   -2.1213   -2.4819    2.5131 C   0  0  0  0  0  0  0  0  0  0  0  0
   -2.5664   -3.7467    2.9557 C   0  0  0  0  0  0  0  0  0  0  0  0
   -2.1195   -4.7735    2.1871 C   0  0  0  0  0  0  0  0  0  0  0  0
   -2.4203   -6.2287    2.2974 C   0  0  0  0  0  0  0  0  0  0  0  0
   -3.3268   -6.6880    1.1532 C   0  0  0  0  0  0  0  0  0  0  0  0
   -1.1308   -4.1929    0.8851 S   0  0  0  0  0  0  0  0  0  0  0  0
    0.3317   -0.7403    1.2333 C   0  0  0  0  0  0  0  0  0  0  0  0
    1.0181   -0.9480    2.4738 C   0  0  0  0  0  0  0  0  0  0  0  0
    0.8785   -2.0686    3.7878 S   0  0  0  0  0  0  0  0  0  0  0  0
    2.1930   -1.2611    4.5888 C   0  0  0  0  0  0  0  0  0  0  0  0
    2.8519   -1.4534    5.8184 C   0  0  0  0  0  0  0  0  0  0  0  0
    3.8314   -0.5315    6.0014 C   0  0  0  0  0  0  0  0  0  0  0  0
    3.9839    0.5924    4.6910 S   0  0  0  0  0  0  0  0  0  0  0  0
    2.6920   -0.1855    3.8497 C   0  0  0  0  0  0  0  0  0  0  0  0
    2.0125   -0.0074    2.6401 C   0  0  0  0  0  0  0  0  0  0  0  0
   -2.3484   -1.5136   -1.3948 C   0  0  0  0  0  0  0  0  0  0  0  0
   -3.6100   -1.5338   -0.5527 C   0  0  0  0  0  0  0  0  0  0  0  0
   -4.2229   -0.3292   -0.2308 C   0  0  0  0  0  0  0  0  0  0  0  0
   -5.3429   -0.3024    0.5777 C   0  0  0  0  0  0  0  0  0  0  0  0
   -5.8748   -1.4751    1.0967 C   0  0  0  0  0  0  0  0  0  0  0  0
   -7.1182   -1.4536    1.9386 C   0  0  0  0  0  0  0  0  0  0  0  0
   -8.3584   -1.6374    1.0616 C   0  0  0  0  0  0  0  0  0  0  0  0
   -5.2541   -2.6750    0.7795 C   0  0  0  0  0  0  0  0  0  0  0  0
   -4.1362   -2.7075   -0.0321 C   0  0  0  0  0  0  0  0  0  0  0  0
   -2.0310   -2.8361   -2.0663 C   0  0  0  0  0  0  0  0  0  0  0  0
   -0.7376   -3.3361   -2.1153 C   0  0  0  0  0  0  0  0  0  0  0  0
   -0.4696   -4.5259   -2.7672 C   0  0  0  0  0  0  0  0  0  0  0  0
   -1.4801   -5.2409   -3.3937 C   0  0  0  0  0  0  0  0  0  0  0  0
   -1.1809   -6.5179   -4.1254 C   0  0  0  0  0  0  0  0  0  0  0  0
   -0.8366   -6.2287   -5.5877 C   0  0  0  0  0  0  0  0  0  0  0  0
   -2.7671   -4.7189   -3.3724 C   0  0  0  0  0  0  0  0  0  0  0  0
   -3.0399   -3.5304   -2.7237 C   0  0  0  0  0  0  0  0  0  0  0  0
   -2.3981   -0.4852   -2.4963 C   0  0  0  0  0  0  0  0  0  0  0  0
   -1.3921    0.4449   -2.3406 C   0  0  0  0  0  0  0  0  0  0  0  0
   -1.3326    1.6337   -3.6000 S   0  0  0  0  0  0  0  0  0  0  0  0
   -2.6953    0.8707   -4.3603 C   0  0  0  0  0  0  0  0  0  0  0  0
   -3.4423    1.1414   -5.5229 C   0  0  0  0  0  0  0  0  0  0  0  0
   -4.4433    0.2389   -5.6856 C   0  0  0  0  0  0  0  0  0  0  0  0
   -4.5081   -0.9626   -4.4384 S   0  0  0  0  0  0  0  0  0  0  0  0
   -3.1463   -0.2468   -3.6535 C   0  0  0  0  0  0  0  0  0  0  0  0
    3.5899   -0.2801   -0.2650 C   0  0  0  0  0  0  0  0  0  0  0  0
    4.8407   -0.5750   -0.7770 C   0  0  0  0  0  0  0  0  0  0  0  0
    7.2336   -2.4512   -0.1853 H   0  0  0  0  0  0  0  0  0  0  0  0
    7.9804   -1.4081    1.0240 H   0  0  0  0  0  0  0  0  0  0  0  0
    8.8814   -1.8599   -0.4279 H   0  0  0  0  0  0  0  0  0  0  0  0
    8.0303    0.4683   -0.6200 H   0  0  0  0  0  0  0  0  0  0  0  0
    7.2810   -0.5786   -1.8343 H   0  0  0  0  0  0  0  0  0  0  0  0
    6.7293    1.2737    1.3079 H   0  0  0  0  0  0  0  0  0  0  0  0
    4.5185    1.7985    2.2200 H   0  0  0  0  0  0  0  0  0  0  0  0
    3.3315    3.1362    0.3898 H   0  0  0  0  0  0  0  0  0  0  0  0
    2.8034    5.4722    0.8561 H   0  0  0  0  0  0  0  0  0  0  0  0
    1.7302    7.1191    2.2539 H   0  0  0  0  0  0  0  0  0  0  0  0
    0.6640    6.6216    3.5755 H   0  0  0  0  0  0  0  0  0  0  0  0
   -1.1793    6.2259    1.9479 H   0  0  0  0  0  0  0  0  0  0  0  0
   -0.5934    7.8904    1.8357 H   0  0  0  0  0  0  0  0  0  0  0  0
   -0.1215    6.6939    0.6225 H   0  0  0  0  0  0  0  0  0  0  0  0
   -0.1963    4.2532    3.6318 H   0  0  0  0  0  0  0  0  0  0  0  0
    0.3227    1.9052    3.1580 H   0  0  0  0  0  0  0  0  0  0  0  0
    2.8004    1.4946   -2.1235 H   0  0  0  0  0  0  0  0  0  0  0  0
    3.0574    3.9254   -3.0076 H   0  0  0  0  0  0  0  0  0  0  0  0
    1.8801    6.2246   -2.8938 H   0  0  0  0  0  0  0  0  0  0  0  0
    0.7980    6.4230   -1.5081 H   0  0  0  0  0  0  0  0  0  0  0  0
   -0.0556    5.4388   -4.2731 H   0  0  0  0  0  0  0  0  0  0  0  0
   -0.3604    7.0514   -3.6144 H   0  0  0  0  0  0  0  0  0  0  0  0
   -1.1229    5.6335   -2.8825 H   0  0  0  0  0  0  0  0  0  0  0  0
   -2.3835   -1.5534    2.9883 H   0  0  0  0  0  0  0  0  0  0  0  0
   -3.1969   -3.8826    3.8165 H   0  0  0  0  0  0  0  0  0  0  0  0
   -1.4904   -6.8023    2.2686 H   0  0  0  0  0  0  0  0  0  0  0  0
   -2.9088   -6.4166    3.2559 H   0  0  0  0  0  0  0  0  0  0  0  0
   -2.8418   -6.5105    0.1952 H   0  0  0  0  0  0  0  0  0  0  0  0
   -4.2653   -6.1379    1.1716 H   0  0  0  0  0  0  0  0  0  0  0  0
   -3.5440   -7.7495    1.2427 H   0  0  0  0  0  0  0  0  0  0  0  0
    2.6107   -2.2295    6.5211 H   0  0  0  0  0  0  0  0  0  0  0  0
    4.4937   -0.4327    6.8383 H   0  0  0  0  0  0  0  0  0  0  0  0
   -3.8175    0.5967   -0.6138 H   0  0  0  0  0  0  0  0  0  0  0  0
   -5.8067    0.6451    0.8139 H   0  0  0  0  0  0  0  0  0  0  0  0
   -7.0782   -2.2566    2.6778 H   0  0  0  0  0  0  0  0  0  0  0  0
   -7.1905   -0.5026    2.4701 H   0  0  0  0  0  0  0  0  0  0  0  0
   -9.2612   -1.6229    1.6681 H   0  0  0  0  0  0  0  0  0  0  0  0
   -8.3095   -2.5867    0.5327 H   0  0  0  0  0  0  0  0  0  0  0  0
   -8.4209   -0.8397    0.3249 H   0  0  0  0  0  0  0  0  0  0  0  0
   -5.6461   -3.5997    1.1794 H   0  0  0  0  0  0  0  0  0  0  0  0
   -3.6729   -3.6560   -0.2559 H   0  0  0  0  0  0  0  0  0  0  0  0
    0.0683   -2.8001   -1.6359 H   0  0  0  0  0  0  0  0  0  0  0  0
    0.5419   -4.9061   -2.7824 H   0  0  0  0  0  0  0  0  0  0  0  0
   -0.3396   -7.0274   -3.6512 H   0  0  0  0  0  0  0  0  0  0  0  0
   -2.0486   -7.1798   -4.0846 H   0  0  0  0  0  0  0  0  0  0  0  0
    0.0340   -5.5796   -5.6490 H   0  0  0  0  0  0  0  0  0  0  0  0
   -1.6688   -5.7305   -6.0800 H   0  0  0  0  0  0  0  0  0  0  0  0
   -0.6202   -7.1526   -6.1192 H   0  0  0  0  0  0  0  0  0  0  0  0
   -3.5676   -5.2501   -3.8674 H   0  0  0  0  0  0  0  0  0  0  0  0
   -4.0475   -3.1408   -2.7210 H   0  0  0  0  0  0  0  0  0  0  0  0
   -3.2465    1.9573   -6.1940 H   0  0  0  0  0  0  0  0  0  0  0  0
   -5.1669    0.1949   -6.4751 H   0  0  0  0  0  0  0  0  0  0  0  0
    2.7143   -0.7364   -0.7034 H   0  0  0  0  0  0  0  0  0  0  0  0
    4.9248   -1.2521   -1.6157 H   0  0  0  0  0  0  0  0  0  0  0  0
  1  2  1  0  0  0  0
  2  3  1  0  0  0  0
  3  4  2  0  0  0  0
  4  5  1  0  0  0  0
  5  6  2  0  0  0  0
  6  7  1  0  0  0  0
  7  8  1  0  0  0  0
  8  9  2  0  0  0  0
  9 10  1  0  0  0  0
 10 11  2  0  0  0  0
 11 12  1  0  0  0  0
 12 13  1  0  0  0  0
 11 14  1  0  0  0  0
 14 15  2  0  0  0  0
  7 16  1  0  0  0  0
 16 17  2  0  0  0  0
 17 18  1  0  0  0  0
 18 19  2  0  0  0  0
 19 20  1  0  0  0  0
 20 21  2  0  0  0  0
 21 22  1  0  0  0  0
 22 23  1  0  0  0  0
 21 24  1  0  0  0  0
 17 25  1  0  0  0  0
 25 26  2  0  0  0  0
 26 27  1  0  0  0  0
 27 28  1  0  0  0  0
 28 29  2  0  0  0  0
 29 30  1  0  0  0  0
 30 31  2  0  0  0  0
 31 32  1  0  0  0  0
 32 33  1  0  0  0  0
 31 34  1  0  0  0  0
 27 35  2  0  0  0  0
 35 36  1  0  0  0  0
 36 37  1  0  0  0  0
 37 38  1  0  0  0  0
 38 39  1  0  0  0  0
 39 40  2  0  0  0  0
 40 41  1  0  0  0  0
 41 42  1  0  0  0  0
 42 43  1  0  0  0  0
 26 44  1  0  0  0  0
 44 45  1  0  0  0  0
 45 46  2  0  0  0  0
 46 47  1  0  0  0  0
 47 48  2  0  0  0  0
 48 49  1  0  0  0  0
 49 50  1  0  0  0  0
 48 51  1  0  0  0  0
 51 52  2  0  0  0  0
 44 53  1  0  0  0  0
 53 54  2  0  0  0  0
 54 55  1  0  0  0  0
 55 56  2  0  0  0  0
 56 57  1  0  0  0  0
 57 58  1  0  0  0  0
 56 59  1  0  0  0  0
 59 60  2  0  0  0  0
 44 61  1  0  0  0  0
 61 62  2  0  0  0  0
 62 63  1  0  0  0  0
 63 64  1  0  0  0  0
 64 65  1  0  0  0  0
 65 66  2  0  0  0  0
 66 67  1  0  0  0  0
 67 68  1  0  0  0  0
  6 69  1  0  0  0  0
 69 70  2  0  0  0  0
 70  3  1  0  0  0  0
 43  7  1  0  0  0  0
 52 45  1  0  0  0  0
 60 53  1  0  0  0  0
 68 61  1  0  0  0  0
 15  8  1  0  0  0  0
 35 16  1  0  0  0  0
 43 36  2  0  0  0  0
 68 64  2  0  0  0  0
 24 18  1  0  0  0  0
 62 25  1  0  0  0  0
 34 28  1  0  0  0  0
 42 38  2  0  0  0  0
  1 71  1  0  0  0  0
  1 72  1  0  0  0  0
  1 73  1  0  0  0  0
  2 74  1  0  0  0  0
  2 75  1  0  0  0  0
  4 76  1  0  0  0  0
  5 77  1  0  0  0  0
  9 78  1  0  0  0  0
 10 79  1  0  0  0  0
 12 80  1  0  0  0  0
 12 81  1  0  0  0  0
 13 82  1  0  0  0  0
 13 83  1  0  0  0  0
 13 84  1  0  0  0  0
 14 85  1  0  0  0  0
 15 86  1  0  0  0  0
 19 87  1  0  0  0  0
 20 88  1  0  0  0  0
 22 89  1  0  0  0  0
 22 90  1  0  0  0  0
 23 91  1  0  0  0  0
 23 92  1  0  0  0  0
 23 93  1  0  0  0  0
 29 94  1  0  0  0  0
 30 95  1  0  0  0  0
 32 96  1  0  0  0  0
 32 97  1  0  0  0  0
 33 98  1  0  0  0  0
 33 99  1  0  0  0  0
 33100  1  0  0  0  0
 39101  1  0  0  0  0
 40102  1  0  0  0  0
 46103  1  0  0  0  0
 47104  1  0  0  0  0
 49105  1  0  0  0  0
 49106  1  0  0  0  0
 50107  1  0  0  0  0
 50108  1  0  0  0  0
 50109  1  0  0  0  0
 51110  1  0  0  0  0
 52111  1  0  0  0  0
 54112  1  0  0  0  0
 55113  1  0  0  0  0
 57114  1  0  0  0  0
 57115  1  0  0  0  0
 58116  1  0  0  0  0
 58117  1  0  0  0  0
 58118  1  0  0  0  0
 59119  1  0  0  0  0
 60120  1  0  0  0  0
 65121  1  0  0  0  0
 66122  1  0  0  0  0
 69123  1  0  0  0  0
 70124  1  0  0  0  0
M  END
