
  xtb     01172215093D
 energy: -48.218188007713 gnorm: 0.000871912195 xtb: 6.4.1 (unknown)
 25 27  0     0  0            999 V2000
    0.0331    3.3824    1.3003 C   0  0  0  0  0  0  0  0  0  0  0  0
    0.1768    2.0581    1.2209 C   0  0  0  0  0  0  0  0  0  0  0  0
    0.6872    1.2536    2.3783 C   0  0  0  0  0  0  0  0  0  0  0  0
    1.0172    1.6852    3.4572 O   0  0  0  0  0  0  0  0  0  0  0  0
    0.6950   -0.1428    1.9174 C   0  0  0  0  0  0  0  0  0  0  0  0
    1.0726   -1.2633    2.6197 C   0  0  0  0  0  0  0  0  0  0  0  0
    0.9900   -2.5000    1.9747 C   0  0  0  0  0  0  0  0  0  0  0  0
    1.3108   -3.7950    2.4695 C   0  0  0  0  0  0  0  0  0  0  0  0
    1.1004   -4.7675    1.5553 C   0  0  0  0  0  0  0  0  0  0  0  0
    0.5048   -4.1816    0.0413 S   0  0  0  0  0  0  0  0  0  0  0  0
    0.5272   -2.5517    0.6359 C   0  0  0  0  0  0  0  0  0  0  0  0
    0.1468   -1.4221   -0.0759 C   0  0  0  0  0  0  0  0  0  0  0  0
    0.2319   -0.2036    0.5759 C   0  0  0  0  0  0  0  0  0  0  0  0
   -0.0945    1.1363    0.1155 C   0  0  0  0  0  0  0  0  0  0  0  0
   -0.5681    1.4779   -1.1188 C   0  0  0  0  0  0  0  0  0  0  0  0
   -0.8840    2.7950   -1.5197 C   0  0  0  0  0  0  0  0  0  0  0  0
   -1.1554    3.8393   -1.9094 N   0  0  0  0  0  0  0  0  0  0  0  0
   -0.8098    0.5578   -2.1629 C   0  0  0  0  0  0  0  0  0  0  0  0
   -1.0184   -0.1415   -3.0481 N   0  0  0  0  0  0  0  0  0  0  0  0
    0.2945    3.8722    2.2254 H   0  0  0  0  0  0  0  0  0  0  0  0
   -0.3320    3.9990    0.4985 H   0  0  0  0  0  0  0  0  0  0  0  0
    1.4202   -1.1842    3.6381 H   0  0  0  0  0  0  0  0  0  0  0  0
    1.6791   -3.9726    3.4636 H   0  0  0  0  0  0  0  0  0  0  0  0
    1.2593   -5.8223    1.6692 H   0  0  0  0  0  0  0  0  0  0  0  0
   -0.1992   -1.5132   -1.0921 H   0  0  0  0  0  0  0  0  0  0  0  0
  1  2  2  0  0  0  0
  2  3  1  0  0  0  0
  3  4  2  0  0  0  0
  3  5  1  0  0  0  0
  5  6  2  0  0  0  0
  6  7  1  0  0  0  0
  7  8  1  0  0  0  0
  8  9  2  0  0  0  0
  9 10  1  0  0  0  0
 10 11  1  0  0  0  0
 11 12  1  0  0  0  0
 12 13  2  0  0  0  0
 13 14  1  0  0  0  0
 14 15  2  0  0  0  0
 15 16  1  0  0  0  0
 16 17  3  0  0  0  0
 15 18  1  0  0  0  0
 18 19  3  0  0  0  0
 14  2  1  0  0  0  0
 13  5  1  0  0  0  0
 11  7  2  0  0  0  0
  1 20  1  0  0  0  0
  1 21  1  0  0  0  0
  6 22  1  0  0  0  0
  8 23  1  0  0  0  0
  9 24  1  0  0  0  0
 12 25  1  0  0  0  0
M  END
