
  xtb     01172215093D
 energy: -51.790566199106 gnorm: 0.000863033453 xtb: 6.4.1 (unknown)
 25 27  0     0  0            999 V2000
   -1.4258   -3.5917    1.2160 C   0  0  0  0  0  0  0  0  0  0  0  0
   -0.7653   -2.4330    1.1635 C   0  0  0  0  0  0  0  0  0  0  0  0
    0.0358   -1.9344    2.3277 C   0  0  0  0  0  0  0  0  0  0  0  0
    0.1784   -2.4910    3.3892 O   0  0  0  0  0  0  0  0  0  0  0  0
    0.5972   -0.6424    1.8977 C   0  0  0  0  0  0  0  0  0  0  0  0
    1.3984    0.2118    2.6180 C   0  0  0  0  0  0  0  0  0  0  0  0
    1.8101    1.3979    2.0033 C   0  0  0  0  0  0  0  0  0  0  0  0
    2.6263    2.4348    2.5304 C   0  0  0  0  0  0  0  0  0  0  0  0
    2.8111    3.4388    1.6395 C   0  0  0  0  0  0  0  0  0  0  0  0
    3.8127    4.9988    1.9159 Br  0  0  0  0  0  0  0  0  0  0  0  0
    2.0117    3.1900    0.1099 S   0  0  0  0  0  0  0  0  0  0  0  0
    1.3921    1.6693    0.6763 C   0  0  0  0  0  0  0  0  0  0  0  0
    0.5849    0.8074   -0.0526 C   0  0  0  0  0  0  0  0  0  0  0  0
    0.1828   -0.3630    0.5694 C   0  0  0  0  0  0  0  0  0  0  0  0
   -0.6574   -1.4476    0.0855 C   0  0  0  0  0  0  0  0  0  0  0  0
   -1.2402   -1.5339   -1.1458 C   0  0  0  0  0  0  0  0  0  0  0  0
   -1.1035   -0.5618   -2.1618 C   0  0  0  0  0  0  0  0  0  0  0  0
   -1.0214    0.1917   -3.0228 N   0  0  0  0  0  0  0  0  0  0  0  0
   -2.0607   -2.6029   -1.5707 C   0  0  0  0  0  0  0  0  0  0  0  0
   -2.7307   -3.4399   -1.9781 N   0  0  0  0  0  0  0  0  0  0  0  0
   -1.3725   -4.1719    2.1240 H   0  0  0  0  0  0  0  0  0  0  0  0
   -2.0157   -3.9870    0.4085 H   0  0  0  0  0  0  0  0  0  0  0  0
    1.6964   -0.0291    3.6264 H   0  0  0  0  0  0  0  0  0  0  0  0
    3.0473    2.4257    3.5192 H   0  0  0  0  0  0  0  0  0  0  0  0
    0.2934    1.0591   -1.0587 H   0  0  0  0  0  0  0  0  0  0  0  0
  1  2  2  0  0  0  0
  2  3  1  0  0  0  0
  3  4  2  0  0  0  0
  3  5  1  0  0  0  0
  5  6  2  0  0  0  0
  6  7  1  0  0  0  0
  7  8  1  0  0  0  0
  8  9  2  0  0  0  0
  9 10  1  0  0  0  0
  9 11  1  0  0  0  0
 11 12  1  0  0  0  0
 12 13  1  0  0  0  0
 13 14  2  0  0  0  0
 14 15  1  0  0  0  0
 15 16  2  0  0  0  0
 16 17  1  0  0  0  0
 17 18  3  0  0  0  0
 16 19  1  0  0  0  0
 19 20  3  0  0  0  0
 15  2  1  0  0  0  0
 14  5  1  0  0  0  0
 12  7  2  0  0  0  0
  1 21  1  0  0  0  0
  1 22  1  0  0  0  0
  6 23  1  0  0  0  0
  8 24  1  0  0  0  0
 13 25  1  0  0  0  0
M  END
