
  xtb     01172215093D
 energy: -5.206771958359 gnorm: 0.000256883031 xtb: 6.4.1 (unknown)
  4  3  0     0  0            999 V2000
    0.3658   -2.7517    2.6968 C   0  0  0  0  0  0  0  0  0  0  0  0
    1.1195   -2.8739    1.7793 C   0  0  0  0  0  0  0  0  0  0  0  0
   -0.2970   -2.6443    3.5036 H   0  0  0  0  0  0  0  0  0  0  0  0
    1.7823   -2.9813    0.9725 H   0  0  0  0  0  0  0  0  0  0  0  0
  1  2  3  0  0  0  0
  1  3  1  0  0  0  0
  2  4  1  0  0  0  0
M  END
