245

C         -0.81790       -6.18320       11.61120
C         -0.51610       -4.86890       11.62090
C         -0.34860       -4.33080       10.31170
C          0.01070       -3.02190        9.95240
C          0.10940       -1.96740       10.94680
S          1.51830       -0.95820       11.07880
C          0.83870       -0.04700       12.38270
C          1.60980        1.03470       13.05490
C          2.46890        0.47120       14.18940
C         -0.40550       -0.51210       12.68940
Cl        -1.39330        0.14530       13.92930
C         -0.82470       -1.59760       11.87540
Cl        -2.38400       -2.30340       12.00660
C          0.26100       -2.78720        8.60650
C          0.09990       -3.78160        7.61130
C         -0.35590       -5.06590        7.95690
C         -0.64160       -6.07560        6.95040
S          0.49140       -6.50500        5.69910
C         -0.57380       -7.68430        5.01810
C         -0.22570       -8.44920        3.78850
C         -0.89090       -7.82690        2.55830
C         -1.74040       -7.72390        5.72190
C         -1.78390       -6.81870        6.81440
Cl        -3.18740       -6.62760        7.77890
Cl        -3.04460       -8.77160        5.34210
C         -0.53770       -5.31680        9.31350
S         -0.92750       -6.85720       10.02380
C          0.41500       -3.28510        6.32370
C          0.80360       -1.97840        6.32150
S          0.76350       -1.26750        7.91680
C          1.22950       -1.27470        5.14940
C          1.81380       -1.88080        4.07850
C          2.01790       -1.01790        2.97640
C          2.47560       -1.36480        1.69030
C          2.84800       -2.75130        1.45730
S          4.47340       -3.17110        1.00490
C          4.21710       -4.84850        1.33520
C          5.32780       -5.83590        1.29010
C          6.11380       -5.82500        2.60380
C          2.93070       -5.05890        1.73520
Cl         2.32510       -6.58820        2.20750
C          2.14660       -3.87860        1.79090
Cl         0.47540       -3.89860        2.19770
C          2.57810       -0.33730        0.76450
C          2.26050        1.00540        1.09150
C          1.78290        1.34810        2.36970
C          1.38090        2.70720        2.69450
S          0.20840        3.55400        1.72850
C          0.23600        4.94180        2.75680
C         -0.60830        6.13870        2.48330
C         -1.86300        5.79850        1.68750
C          1.11730        4.74990        3.77930
C          1.76310        3.48460        3.75200
Cl         2.95100        3.03260        4.90110
Cl         1.42650        5.91720        4.99880
C          1.65100        0.31380        3.28540
S          0.98550        0.43560        4.89100
C          2.41450        1.86720       -0.01820
C          2.77150        1.23100       -1.17150
S          3.00710       -0.48830       -0.92450
C          2.73670        1.88280       -2.44780
C          2.82920        3.23270       -2.63050
C          2.28780        3.67660       -3.86140
C          1.93400        4.99310       -4.20960
C          2.27240        6.11840       -3.34510
S          3.26060        7.42980       -3.90540
C          3.19080        8.23730       -2.37410
C          3.86810        9.54720       -2.16950
C          3.16530       10.65980       -2.94980
C          2.42940        7.52380       -1.49810
Cl         2.16470        7.97550        0.13660
C          1.89870        6.32600       -2.04840
Cl         0.83270        5.29630       -1.18280
C          1.09020        5.15010       -5.29470
C          0.65260        4.06700       -6.09600
C          1.09640        2.76510       -5.81360
C          0.62050        1.61540       -6.57280
S         -1.05450        1.15300       -6.58620
C         -0.74750       -0.20580       -7.61330
C         -1.86560       -1.04930       -8.11500
C         -2.53830       -0.38880       -9.32100
C          0.57930       -0.28450       -7.91470
C          1.35790        0.74390       -7.31790
Cl         3.04200        0.91880       -7.57810
Cl         1.27070       -1.49760       -8.91220
C          1.86200        2.59440       -4.66860
S          2.15920        1.06300       -3.88730
C         -0.46440        4.41560       -6.89630
C         -0.96190        5.65890       -6.61620
S          0.15260        6.58910       -5.61330
C         -2.36810        5.91600       -6.52280
C         -2.89830        6.53410       -5.42230
C         -4.06160        5.89200       -4.92960
C         -4.47520        5.88110       -3.58450
C         -3.93670        6.79460       -2.58850
S         -2.22630        7.02990       -2.36950
C         -2.46200        8.11080       -1.03940
C         -1.29820        8.76850       -0.38770
C         -0.61500        9.75710       -1.33380
C         -3.79140        8.25460       -0.77810
Cl        -4.42300        9.24410        0.47540
C         -4.62850        7.49760       -1.64260
Cl        -6.33830        7.52580       -1.53640
C         -5.22940        4.78700       -3.17890
C         -5.72270        3.80630       -4.07240
C         -5.40660        3.89020       -5.43990
C         -5.75270        2.81210       -6.36250
S         -6.81950        3.07210       -7.70510
C         -6.68980        1.42540       -8.22390
C         -7.46760        0.92080       -9.38890
C         -8.89550        0.55370       -8.97790
C         -5.86340        0.73150       -7.39210
C         -5.31620        1.51820       -6.34260
Cl        -4.17990        0.90130       -5.20580
Cl        -5.51900       -0.93950       -7.56400
C         -4.52350        4.88790       -5.81570
S         -3.51900        4.79270       -7.24640
C         -6.13530        2.62930       -3.39180
C         -5.80540        2.63010       -2.06910
S         -5.29440        4.22040       -1.53000
C         -5.38080        1.42050       -1.37900
C         -4.05480        1.44240       -0.91940
C         -3.37060        0.26100       -0.78480
C         -1.88490        0.05010       -0.60470
C         -1.37390        0.59240        0.73780
C         -1.93100       -0.16360        1.93740
C         -1.07070        0.61970       -1.79240
C         -1.03120        2.13520       -1.94030
C         -1.79340       -1.45800       -0.68370
C         -3.06520       -2.03330       -0.84280
C         -4.04160       -0.96490       -0.93820
C         -5.39840       -0.98890       -1.22880
C         -6.05060        0.20300       -1.49400
C         -3.20160       -3.41020       -0.93840
C         -2.06370       -4.19320       -0.93840
C         -0.79030       -3.62200       -0.85990
C         -0.66290       -2.23780       -0.69670
C          0.39170       -4.44570       -1.00090
C          1.61560       -4.07170       -1.46450
C          2.54720       -5.13940       -1.54770
C          3.87940       -5.10090       -1.99600
C          4.44780       -3.89080       -2.56820
S          3.59510       -3.05690       -3.84000
C          4.85470       -1.89380       -4.04130
C          4.80320       -0.86480       -5.11350
C          5.61630       -1.31130       -6.33060
C          5.86580       -2.13930       -3.16240
Cl         7.28070       -1.17470       -3.04620
C          5.64530       -3.27140       -2.33500
Cl         6.78790       -3.72490       -1.14660
C          4.58750       -6.29790       -1.95110
C          4.03440       -7.50870       -1.46640
C          2.71250       -7.53990       -0.99780
C          2.11180       -8.73760       -0.43390
S          0.53880       -9.27260       -0.95140
C          0.51090      -10.56980        0.19330
C         -0.63490      -11.51780        0.26170
C         -0.45120      -12.67180       -0.72660
C          1.66560      -10.58480        0.91620
C          2.57540       -9.55230        0.56270
Cl         4.06610       -9.35400        1.38720
Cl         1.99740      -11.71630        2.16540
C          1.99040       -6.35470       -1.08440
S          0.33030       -6.14990       -0.61640
C          4.94490       -8.59670       -1.60760
C          6.11900       -8.22890       -2.15790
S          6.20660       -6.54550       -2.54220
H         -0.98940       -6.82590       12.45240
H         -0.39160       -4.29230       12.51860
H          2.25080        1.52920       12.32350
H          0.90760        1.76670       13.45860
H          3.17450       -0.25930       13.80090
H          1.84050       -0.01260       14.93290
H          3.02390        1.27200       14.67040
H         -0.56890       -9.48020        3.90270
H          0.85690       -8.45650        3.65910
H         -0.61710       -8.38120        1.66490
H         -1.97230       -7.84570        2.66420
H         -0.57310       -6.79530        2.43430
H          0.34060       -3.86960        5.42620
H          2.11010       -2.91150        4.10030
H          6.00110       -5.59800        0.46730
H          4.90940       -6.82910        1.12270
H          6.54480       -4.84190        2.77830
H          6.91690       -6.55560        2.55930
H          5.46220       -6.07390        3.43800
H         -0.87700        6.59280        3.44000
H         -0.01150        6.87300        1.93240
H         -2.47750        6.68460        1.55510
H         -2.44970        5.04490        2.20700
H         -1.59930        5.41100        0.70540
H          2.20650        2.91940        0.02200
H          3.21570        3.89810       -1.88170
H          4.90570        9.47570       -2.50300
H          3.86320        9.78090       -1.10350
H          3.17310       10.43510       -4.01370
H          3.67450       11.60600       -2.78900
H          2.13280       10.75910       -2.62440
H         -1.47080       -2.02550       -8.40150
H         -2.60200       -1.18800       -7.32190
H         -3.34700       -1.01590       -9.68560
H         -1.81890       -0.24490      -10.12340
H         -2.94780        0.57940       -9.04050
H         -0.99690        3.70660       -7.50350
H         -2.35560        7.27990       -4.87240
H         -1.64430        9.28740        0.50720
H         -0.57450        8.00680       -0.09360
H         -0.25560        9.23970       -2.22130
H         -1.31010       10.53510       -1.63990
H          0.22970       10.22140       -0.83200
H         -7.49980        1.68980      -10.16250
H         -6.96410        0.03990       -9.79130
H         -8.88130       -0.22300       -8.21740
H         -9.40770        1.42480       -8.57650
H         -9.44930        0.18850       -9.83830
H         -6.49350        1.75290       -3.89940
H         -3.56300        2.39120       -0.77480
H         -1.65380        1.64310        0.81940
H         -0.28480        0.53120        0.74800
H         -3.01880       -0.14960        1.92910
H         -1.58750        0.29950        2.86000
H         -1.60050       -1.20000        1.93110
H         -1.47090        0.18690       -2.71360
H         -0.04580        0.25860       -1.68300
H         -0.69530        2.61360       -1.02390
H         -2.00280        2.53350       -2.21770
H         -0.33490        2.39940       -2.73440
H         -5.92600       -1.92690       -1.31560
H         -7.08080        0.19480       -1.81780
H         -4.17650       -3.86470       -1.03130
H         -2.14780       -5.26630       -1.03490
H          0.31690       -1.80050       -0.58140
H          1.84970       -3.06640       -1.76200
H          3.76600       -0.70420       -5.40650
H          5.20940        0.07380       -4.72960
H          5.57330       -0.55050       -7.10500
H          5.21560       -2.23920       -6.73150
H          6.65570       -1.47030       -6.05560
H         -1.55900      -10.98510        0.03150
H         -0.70200      -11.91360        1.27690
H         -1.29460      -13.35410       -0.66500
H         -0.38320      -12.29040       -1.74270
H          0.45880      -13.22140       -0.49950
H          4.70880       -9.60610       -1.32700
H          6.96740       -8.84780       -2.37550
