122

C         16.73550        2.84260        6.35760
C         15.76180        1.91480        6.71320
C         14.44420        2.21030        6.43120
C         13.22310        1.40410        6.68900
O         13.14410        0.31310        7.19980
C         12.11070        2.24300        6.15910
C         12.63440        3.43760        5.63160
C         14.08680        3.41760        5.80210
C         15.05780        4.33330        5.45250
C         16.38650        4.03070        5.73780
C         11.79180        4.37210        5.06540
C         10.43170        4.09610        5.01220
C          9.91450        2.91590        5.53440
C         10.76350        1.97390        6.12530
C          8.48620        2.60570        5.40550
C          7.62840        2.38370        6.49080
C          8.07430        2.58360        7.88800
O          9.10560        3.04580        8.27030
S          6.76660        2.05730        8.99170
C          5.63730        1.68270        7.64150
O          4.55330        1.22550        7.84260
C          6.29190        1.99410        6.35130
C          5.69210        1.81890        5.08430
C          6.56710        2.04210        4.00510
C          7.89340        2.42600        4.15590
C          8.48610        2.53200        2.79830
O          9.59010        2.81720        2.45780
O          7.48910        2.22310        1.90460
C          6.31220        1.92200        2.54950
O          5.31850        1.62730        1.96150
C          4.34150        1.41310        4.78800
C          3.21360        1.75430        5.43470
C          1.88840        1.35750        5.00930
C          1.68130        0.38680        4.01390
C          0.39790        0.10070        3.62220
C         -0.05590       -0.84510        2.56850
O          0.61610       -1.58300        1.89190
C         -1.53070       -0.65690        2.52690
C         -1.91950        0.28430        3.50000
C         -0.71800        0.75150        4.18730
C         -0.52550        1.68080        5.19230
C          0.77230        1.96880        5.59250
C         -3.25010        0.63500        3.62250
C         -4.17290        0.08170        2.74220
C         -3.78160       -0.82930        1.76830
C         -2.44190       -1.22550        1.67230
C         -4.68770       -1.34300        0.73670
C         -4.90800       -2.71360        0.53040
C         -4.53080       -3.74580        1.52390
O         -3.99260       -3.58500        2.57670
S         -5.06690       -5.34940        0.92500
C         -5.83040       -4.66360       -0.55040
O         -6.53330       -5.29940       -1.27260
C         -5.53260       -3.21150       -0.61040
C         -5.93840       -2.37280       -1.66550
C         -5.89450       -1.00830       -1.36400
C         -5.29080       -0.51330       -0.20970
C         -5.34860        0.96890       -0.28440
O         -4.93610        1.79460        0.46760
O         -6.00990        1.28600       -1.44440
C         -6.37570        0.15730       -2.14540
O         -6.99900        0.21080       -3.15600
C         -6.23780       -2.83360       -3.00410
C         -5.49860       -3.79290       -3.57380
C         -5.68310       -4.24400       -4.93750
C         -5.82330       -3.40240       -6.05560
C         -5.49950       -1.95830       -6.01250
O         -5.07100       -1.32100       -5.09980
S         -5.74040       -1.26240       -7.64610
C         -6.12200       -2.85940       -8.38080
O         -6.25790       -3.00100       -9.55940
C         -6.16400       -3.88530       -7.31890
C         -6.46560       -5.25010       -7.55290
C         -6.12260       -6.08660       -6.48320
C         -5.72790       -5.60510       -5.23820
C         -5.42170       -6.77690       -4.38210
O         -4.97780       -6.82420       -3.27910
O         -5.69000       -7.89800       -5.13350
C         -6.12140       -7.56690       -6.39520
O         -6.40780       -8.38310       -7.21560
C         -7.07420       -5.81330       -8.74380
C         -8.10690       -5.29720       -9.42910
C         -8.73520       -4.02800       -9.10150
C         -8.84100       -3.61560       -7.76490
C         -9.04600       -2.28260       -7.50450
C         -8.87040       -1.55930       -6.21830
O         -8.53450       -2.04880       -5.16080
C         -9.06710       -0.13560       -6.56450
C         -9.34290       -0.02220       -7.94280
C         -9.28420       -1.35540       -8.53880
C         -9.34490       -1.79330       -9.84590
C         -9.04500       -3.12500      -10.11790
C         -9.55980        1.21720       -8.50690
C         -9.48760        2.33940       -7.68520
C         -9.19070        2.22630       -6.33780
C         -8.97220        0.98030       -5.75800
H         17.77420        2.63370        6.56520
H         16.02150        0.98470        7.19540
H         14.80030        5.26260        4.96770
H         17.15870        4.73630        5.46850
H         12.17210        5.29580        4.65780
H          9.75940        4.81410        4.56620
H         10.37810        1.04740        6.52360
H          4.26340        0.85690        3.86430
H          3.25060        2.40600        6.29580
H          2.50190       -0.13470        3.54820
H         -1.36120        2.18410        5.65420
H          0.93080        2.70130        6.37100
H         -3.57550        1.34190        4.36960
H         -5.21210        0.36200        2.81650
H         -2.12100       -1.93100        0.92090
H         -6.99620       -2.29920       -3.55980
H         -4.75250       -4.33500       -3.00690
H         -6.69350       -6.78690       -9.02140
H         -8.45560       -5.81200      -10.31350
H         -8.72920       -4.31970       -6.95380
H         -9.55660       -1.11120      -10.65490
H         -8.98410       -3.45470      -11.14380
H         -9.77330        1.32140       -9.55950
H         -9.65480        3.31700       -8.11300
H         -9.12290        3.11600       -5.73010
H         -8.71740        0.87860       -4.71510
