
  xtb     02282216243D
 energy: -256.822148620275 gnorm: 0.002068782960 xtb: 6.4.1 (unknown)
122139  0     0  0            999 V2000
   16.7355    2.8426    6.3576 C   0  0  0  0  0  0  0  0  0  0  0  0
   15.7618    1.9148    6.7132 C   0  0  0  0  0  0  0  0  0  0  0  0
   14.4442    2.2103    6.4312 C   0  0  0  0  0  0  0  0  0  0  0  0
   13.2231    1.4041    6.6890 C   0  0  0  0  0  0  0  0  0  0  0  0
   13.1441    0.3131    7.1998 O   0  0  0  0  0  0  0  0  0  0  0  0
   12.1107    2.2430    6.1591 C   0  0  0  0  0  0  0  0  0  0  0  0
   12.6344    3.4376    5.6316 C   0  0  0  0  0  0  0  0  0  0  0  0
   14.0868    3.4176    5.8021 C   0  0  0  0  0  0  0  0  0  0  0  0
   15.0578    4.3333    5.4525 C   0  0  0  0  0  0  0  0  0  0  0  0
   16.3865    4.0307    5.7378 C   0  0  0  0  0  0  0  0  0  0  0  0
   11.7918    4.3721    5.0654 C   0  0  0  0  0  0  0  0  0  0  0  0
   10.4317    4.0961    5.0122 C   0  0  0  0  0  0  0  0  0  0  0  0
    9.9145    2.9159    5.5344 C   0  0  0  0  0  0  0  0  0  0  0  0
   10.7635    1.9739    6.1253 C   0  0  0  0  0  0  0  0  0  0  0  0
    8.4862    2.6057    5.4055 C   0  0  0  0  0  0  0  0  0  0  0  0
    7.6284    2.3837    6.4908 C   0  0  0  0  0  0  0  0  0  0  0  0
    8.0743    2.5836    7.8880 C   0  0  0  0  0  0  0  0  0  0  0  0
    9.1056    3.0458    8.2703 O   0  0  0  0  0  0  0  0  0  0  0  0
    6.7666    2.0573    8.9917 S   0  0  0  0  0  0  0  0  0  0  0  0
    5.6373    1.6827    7.6415 C   0  0  0  0  0  0  0  0  0  0  0  0
    4.5533    1.2255    7.8426 O   0  0  0  0  0  0  0  0  0  0  0  0
    6.2919    1.9941    6.3513 C   0  0  0  0  0  0  0  0  0  0  0  0
    5.6921    1.8189    5.0843 C   0  0  0  0  0  0  0  0  0  0  0  0
    6.5671    2.0421    4.0051 C   0  0  0  0  0  0  0  0  0  0  0  0
    7.8934    2.4260    4.1559 C   0  0  0  0  0  0  0  0  0  0  0  0
    8.4861    2.5320    2.7983 C   0  0  0  0  0  0  0  0  0  0  0  0
    9.5901    2.8172    2.4578 O   0  0  0  0  0  0  0  0  0  0  0  0
    7.4891    2.2231    1.9046 O   0  0  0  0  0  0  0  0  0  0  0  0
    6.3122    1.9220    2.5495 C   0  0  0  0  0  0  0  0  0  0  0  0
    5.3185    1.6273    1.9615 O   0  0  0  0  0  0  0  0  0  0  0  0
    4.3415    1.4131    4.7880 C   0  0  0  0  0  0  0  0  0  0  0  0
    3.2136    1.7543    5.4347 C   0  0  0  0  0  0  0  0  0  0  0  0
    1.8884    1.3575    5.0093 C   0  0  0  0  0  0  0  0  0  0  0  0
    1.6813    0.3868    4.0139 C   0  0  0  0  0  0  0  0  0  0  0  0
    0.3979    0.1007    3.6222 C   0  0  0  0  0  0  0  0  0  0  0  0
   -0.0559   -0.8451    2.5685 C   0  0  0  0  0  0  0  0  0  0  0  0
    0.6161   -1.5830    1.8919 O   0  0  0  0  0  0  0  0  0  0  0  0
   -1.5307   -0.6569    2.5269 C   0  0  0  0  0  0  0  0  0  0  0  0
   -1.9195    0.2843    3.5000 C   0  0  0  0  0  0  0  0  0  0  0  0
   -0.7180    0.7515    4.1873 C   0  0  0  0  0  0  0  0  0  0  0  0
   -0.5255    1.6808    5.1923 C   0  0  0  0  0  0  0  0  0  0  0  0
    0.7723    1.9688    5.5925 C   0  0  0  0  0  0  0  0  0  0  0  0
   -3.2501    0.6350    3.6225 C   0  0  0  0  0  0  0  0  0  0  0  0
   -4.1729    0.0817    2.7422 C   0  0  0  0  0  0  0  0  0  0  0  0
   -3.7816   -0.8293    1.7683 C   0  0  0  0  0  0  0  0  0  0  0  0
   -2.4419   -1.2255    1.6723 C   0  0  0  0  0  0  0  0  0  0  0  0
   -4.6877   -1.3430    0.7367 C   0  0  0  0  0  0  0  0  0  0  0  0
   -4.9080   -2.7136    0.5304 C   0  0  0  0  0  0  0  0  0  0  0  0
   -4.5308   -3.7458    1.5239 C   0  0  0  0  0  0  0  0  0  0  0  0
   -3.9926   -3.5850    2.5767 O   0  0  0  0  0  0  0  0  0  0  0  0
   -5.0669   -5.3494    0.9250 S   0  0  0  0  0  0  0  0  0  0  0  0
   -5.8304   -4.6636   -0.5504 C   0  0  0  0  0  0  0  0  0  0  0  0
   -6.5333   -5.2994   -1.2726 O   0  0  0  0  0  0  0  0  0  0  0  0
   -5.5326   -3.2115   -0.6104 C   0  0  0  0  0  0  0  0  0  0  0  0
   -5.9384   -2.3728   -1.6655 C   0  0  0  0  0  0  0  0  0  0  0  0
   -5.8945   -1.0083   -1.3640 C   0  0  0  0  0  0  0  0  0  0  0  0
   -5.2908   -0.5133   -0.2097 C   0  0  0  0  0  0  0  0  0  0  0  0
   -5.3486    0.9689   -0.2844 C   0  0  0  0  0  0  0  0  0  0  0  0
   -4.9361    1.7946    0.4676 O   0  0  0  0  0  0  0  0  0  0  0  0
   -6.0099    1.2860   -1.4444 O   0  0  0  0  0  0  0  0  0  0  0  0
   -6.3757    0.1573   -2.1454 C   0  0  0  0  0  0  0  0  0  0  0  0
   -6.9990    0.2108   -3.1560 O   0  0  0  0  0  0  0  0  0  0  0  0
   -6.2378   -2.8336   -3.0041 C   0  0  0  0  0  0  0  0  0  0  0  0
   -5.4986   -3.7929   -3.5738 C   0  0  0  0  0  0  0  0  0  0  0  0
   -5.6831   -4.2440   -4.9375 C   0  0  0  0  0  0  0  0  0  0  0  0
   -5.8233   -3.4024   -6.0556 C   0  0  0  0  0  0  0  0  0  0  0  0
   -5.4995   -1.9583   -6.0125 C   0  0  0  0  0  0  0  0  0  0  0  0
   -5.0710   -1.3210   -5.0998 O   0  0  0  0  0  0  0  0  0  0  0  0
   -5.7404   -1.2624   -7.6461 S   0  0  0  0  0  0  0  0  0  0  0  0
   -6.1220   -2.8594   -8.3808 C   0  0  0  0  0  0  0  0  0  0  0  0
   -6.2579   -3.0010   -9.5594 O   0  0  0  0  0  0  0  0  0  0  0  0
   -6.1640   -3.8853   -7.3189 C   0  0  0  0  0  0  0  0  0  0  0  0
   -6.4656   -5.2501   -7.5529 C   0  0  0  0  0  0  0  0  0  0  0  0
   -6.1226   -6.0866   -6.4832 C   0  0  0  0  0  0  0  0  0  0  0  0
   -5.7279   -5.6051   -5.2382 C   0  0  0  0  0  0  0  0  0  0  0  0
   -5.4217   -6.7769   -4.3821 C   0  0  0  0  0  0  0  0  0  0  0  0
   -4.9778   -6.8242   -3.2791 O   0  0  0  0  0  0  0  0  0  0  0  0
   -5.6900   -7.8980   -5.1335 O   0  0  0  0  0  0  0  0  0  0  0  0
   -6.1214   -7.5669   -6.3952 C   0  0  0  0  0  0  0  0  0  0  0  0
   -6.4078   -8.3831   -7.2156 O   0  0  0  0  0  0  0  0  0  0  0  0
   -7.0742   -5.8133   -8.7438 C   0  0  0  0  0  0  0  0  0  0  0  0
   -8.1069   -5.2972   -9.4291 C   0  0  0  0  0  0  0  0  0  0  0  0
   -8.7352   -4.0280   -9.1015 C   0  0  0  0  0  0  0  0  0  0  0  0
   -8.8410   -3.6156   -7.7649 C   0  0  0  0  0  0  0  0  0  0  0  0
   -9.0460   -2.2826   -7.5045 C   0  0  0  0  0  0  0  0  0  0  0  0
   -8.8704   -1.5593   -6.2183 C   0  0  0  0  0  0  0  0  0  0  0  0
   -8.5345   -2.0488   -5.1608 O   0  0  0  0  0  0  0  0  0  0  0  0
   -9.0671   -0.1356   -6.5645 C   0  0  0  0  0  0  0  0  0  0  0  0
   -9.3429   -0.0222   -7.9428 C   0  0  0  0  0  0  0  0  0  0  0  0
   -9.2842   -1.3554   -8.5388 C   0  0  0  0  0  0  0  0  0  0  0  0
   -9.3449   -1.7933   -9.8459 C   0  0  0  0  0  0  0  0  0  0  0  0
   -9.0450   -3.1250  -10.1179 C   0  0  0  0  0  0  0  0  0  0  0  0
   -9.5598    1.2172   -8.5069 C   0  0  0  0  0  0  0  0  0  0  0  0
   -9.4876    2.3394   -7.6852 C   0  0  0  0  0  0  0  0  0  0  0  0
   -9.1907    2.2263   -6.3378 C   0  0  0  0  0  0  0  0  0  0  0  0
   -8.9722    0.9803   -5.7580 C   0  0  0  0  0  0  0  0  0  0  0  0
   17.7742    2.6337    6.5652 H   0  0  0  0  0  0  0  0  0  0  0  0
   16.0215    0.9847    7.1954 H   0  0  0  0  0  0  0  0  0  0  0  0
   14.8003    5.2626    4.9677 H   0  0  0  0  0  0  0  0  0  0  0  0
   17.1587    4.7363    5.4685 H   0  0  0  0  0  0  0  0  0  0  0  0
   12.1721    5.2958    4.6578 H   0  0  0  0  0  0  0  0  0  0  0  0
    9.7594    4.8141    4.5662 H   0  0  0  0  0  0  0  0  0  0  0  0
   10.3781    1.0474    6.5236 H   0  0  0  0  0  0  0  0  0  0  0  0
    4.2634    0.8569    3.8643 H   0  0  0  0  0  0  0  0  0  0  0  0
    3.2506    2.4060    6.2958 H   0  0  0  0  0  0  0  0  0  0  0  0
    2.5019   -0.1347    3.5482 H   0  0  0  0  0  0  0  0  0  0  0  0
   -1.3612    2.1841    5.6542 H   0  0  0  0  0  0  0  0  0  0  0  0
    0.9308    2.7013    6.3710 H   0  0  0  0  0  0  0  0  0  0  0  0
   -3.5755    1.3419    4.3696 H   0  0  0  0  0  0  0  0  0  0  0  0
   -5.2121    0.3620    2.8165 H   0  0  0  0  0  0  0  0  0  0  0  0
   -2.1210   -1.9310    0.9209 H   0  0  0  0  0  0  0  0  0  0  0  0
   -6.9962   -2.2992   -3.5598 H   0  0  0  0  0  0  0  0  0  0  0  0
   -4.7525   -4.3350   -3.0069 H   0  0  0  0  0  0  0  0  0  0  0  0
   -6.6935   -6.7869   -9.0214 H   0  0  0  0  0  0  0  0  0  0  0  0
   -8.4556   -5.8120  -10.3135 H   0  0  0  0  0  0  0  0  0  0  0  0
   -8.7292   -4.3197   -6.9538 H   0  0  0  0  0  0  0  0  0  0  0  0
   -9.5566   -1.1112  -10.6549 H   0  0  0  0  0  0  0  0  0  0  0  0
   -8.9841   -3.4547  -11.1438 H   0  0  0  0  0  0  0  0  0  0  0  0
   -9.7733    1.3214   -9.5595 H   0  0  0  0  0  0  0  0  0  0  0  0
   -9.6548    3.3170   -8.1130 H   0  0  0  0  0  0  0  0  0  0  0  0
   -9.1229    3.1160   -5.7301 H   0  0  0  0  0  0  0  0  0  0  0  0
   -8.7174    0.8786   -4.7151 H   0  0  0  0  0  0  0  0  0  0  0  0
  1  2  2  0  0  0  0
  2  3  1  0  0  0  0
  3  4  1  0  0  0  0
  4  5  2  0  0  0  0
  4  6  1  0  0  0  0
  6  7  2  0  0  0  0
  7  8  1  0  0  0  0
  8  9  1  0  0  0  0
  9 10  2  0  0  0  0
  7 11  1  0  0  0  0
 11 12  2  0  0  0  0
 12 13  1  0  0  0  0
 13 14  2  0  0  0  0
 13 15  1  0  0  0  0
 15 16  2  0  0  0  0
 16 17  1  0  0  0  0
 17 18  2  0  0  0  0
 17 19  1  0  0  0  0
 19 20  1  0  0  0  0
 20 21  2  0  0  0  0
 20 22  1  0  0  0  0
 22 23  2  0  0  0  0
 23 24  1  0  0  0  0
 24 25  2  0  0  0  0
 25 26  1  0  0  0  0
 26 27  2  0  0  0  0
 26 28  1  0  0  0  0
 28 29  1  0  0  0  0
 29 30  2  0  0  0  0
 23 31  1  0  0  0  0
 31 32  2  0  0  0  0
 32 33  1  0  0  0  0
 33 34  2  0  0  0  0
 34 35  1  0  0  0  0
 35 36  1  0  0  0  0
 36 37  2  0  0  0  0
 36 38  1  0  0  0  0
 38 39  2  0  0  0  0
 39 40  1  0  0  0  0
 40 41  1  0  0  0  0
 41 42  2  0  0  0  0
 39 43  1  0  0  0  0
 43 44  2  0  0  0  0
 44 45  1  0  0  0  0
 45 46  2  0  0  0  0
 45 47  1  0  0  0  0
 47 48  2  0  0  0  0
 48 49  1  0  0  0  0
 49 50  2  0  0  0  0
 49 51  1  0  0  0  0
 51 52  1  0  0  0  0
 52 53  2  0  0  0  0
 52 54  1  0  0  0  0
 54 55  2  0  0  0  0
 55 56  1  0  0  0  0
 56 57  2  0  0  0  0
 57 58  1  0  0  0  0
 58 59  2  0  0  0  0
 58 60  1  0  0  0  0
 60 61  1  0  0  0  0
 61 62  2  0  0  0  0
 55 63  1  0  0  0  0
 63 64  2  0  0  0  0
 64 65  1  0  0  0  0
 65 66  2  0  0  0  0
 66 67  1  0  0  0  0
 67 68  2  0  0  0  0
 67 69  1  0  0  0  0
 69 70  1  0  0  0  0
 70 71  2  0  0  0  0
 70 72  1  0  0  0  0
 72 73  2  0  0  0  0
 73 74  1  0  0  0  0
 74 75  2  0  0  0  0
 75 76  1  0  0  0  0
 76 77  2  0  0  0  0
 76 78  1  0  0  0  0
 78 79  1  0  0  0  0
 79 80  2  0  0  0  0
 73 81  1  0  0  0  0
 81 82  2  0  0  0  0
 82 83  1  0  0  0  0
 83 84  2  0  0  0  0
 84 85  1  0  0  0  0
 85 86  1  0  0  0  0
 86 87  2  0  0  0  0
 86 88  1  0  0  0  0
 88 89  2  0  0  0  0
 89 90  1  0  0  0  0
 90 91  1  0  0  0  0
 91 92  2  0  0  0  0
 89 93  1  0  0  0  0
 93 94  2  0  0  0  0
 94 95  1  0  0  0  0
 95 96  2  0  0  0  0
 10  1  1  0  0  0  0
 25 15  1  0  0  0  0
 42 33  1  0  0  0  0
 57 47  1  0  0  0  0
 75 65  1  0  0  0  0
 92 83  1  0  0  0  0
  8  3  2  0  0  0  0
 22 16  1  0  0  0  0
 29 24  1  0  0  0  0
 40 35  2  0  0  0  0
 54 48  1  0  0  0  0
 61 56  1  0  0  0  0
 72 66  1  0  0  0  0
 79 74  1  0  0  0  0
 90 85  2  0  0  0  0
 14  6  1  0  0  0  0
 46 38  1  0  0  0  0
 96 88  1  0  0  0  0
  1 97  1  0  0  0  0
  2 98  1  0  0  0  0
  9 99  1  0  0  0  0
 10100  1  0  0  0  0
 11101  1  0  0  0  0
 12102  1  0  0  0  0
 14103  1  0  0  0  0
 31104  1  0  0  0  0
 32105  1  0  0  0  0
 34106  1  0  0  0  0
 41107  1  0  0  0  0
 42108  1  0  0  0  0
 43109  1  0  0  0  0
 44110  1  0  0  0  0
 46111  1  0  0  0  0
 63112  1  0  0  0  0
 64113  1  0  0  0  0
 81114  1  0  0  0  0
 82115  1  0  0  0  0
 84116  1  0  0  0  0
 91117  1  0  0  0  0
 92118  1  0  0  0  0
 93119  1  0  0  0  0
 94120  1  0  0  0  0
 95121  1  0  0  0  0
 96122  1  0  0  0  0
M  END
