
  xtb     03032202563D
 energy: -454.113897681626 gnorm: 0.000485865440 xtb: 6.4.1 (unknown)
231257  0     0  0            999 V2000
    1.8715  -10.9691    8.2698 C   0  0  0  0  0  0  0  0  0  0  0  0
    2.2560   -9.8550    8.9250 C   0  0  0  0  0  0  0  0  0  0  0  0
    2.2478   -8.6953    8.0963 C   0  0  0  0  0  0  0  0  0  0  0  0
    2.6173   -7.3837    8.4323 C   0  0  0  0  0  0  0  0  0  0  0  0
    3.1772   -7.0538    9.7330 C   0  0  0  0  0  0  0  0  0  0  0  0
    2.5510   -5.7449   10.6895 S   0  0  0  0  0  0  0  0  0  0  0  0
    3.7354   -5.9799   11.9286 C   0  0  0  0  0  0  0  0  0  0  0  0
    3.8069   -5.0724   13.1064 C   0  0  0  0  0  0  0  0  0  0  0  0
    4.5946   -3.8050   12.7638 C   0  0  0  0  0  0  0  0  0  0  0  0
    4.5648   -7.0111   11.6023 C   0  0  0  0  0  0  0  0  0  0  0  0
    5.8729   -7.5353   12.5818 Cl  0  0  0  0  0  0  0  0  0  0  0  0
    4.2495   -7.6253   10.3606 C   0  0  0  0  0  0  0  0  0  0  0  0
    5.1933   -8.8951    9.6949 Cl  0  0  0  0  0  0  0  0  0  0  0  0
    2.4682   -6.4152    7.4477 C   0  0  0  0  0  0  0  0  0  0  0  0
    2.0198   -6.7152    6.1395 C   0  0  0  0  0  0  0  0  0  0  0  0
    1.6681   -8.0310    5.7939 C   0  0  0  0  0  0  0  0  0  0  0  0
    1.1882   -8.3465    4.4568 C   0  0  0  0  0  0  0  0  0  0  0  0
    2.0981   -7.9156    3.0369 S   0  0  0  0  0  0  0  0  0  0  0  0
    0.8917   -8.5457    1.9690 C   0  0  0  0  0  0  0  0  0  0  0  0
    1.0570   -8.4934    0.4890 C   0  0  0  0  0  0  0  0  0  0  0  0
    1.4463   -9.8565   -0.0862 C   0  0  0  0  0  0  0  0  0  0  0  0
   -0.1420   -9.0698    2.6864 C   0  0  0  0  0  0  0  0  0  0  0  0
    0.0206   -8.9589    4.0934 C   0  0  0  0  0  0  0  0  0  0  0  0
   -1.1907   -9.4614    5.1964 Cl  0  0  0  0  0  0  0  0  0  0  0  0
   -1.5345   -9.7763    1.9765 Cl  0  0  0  0  0  0  0  0  0  0  0  0
    1.7898   -8.9934    6.7889 C   0  0  0  0  0  0  0  0  0  0  0  0
    1.4564  -10.6923    6.6147 S   0  0  0  0  0  0  0  0  0  0  0  0
    1.9828   -5.5610    5.3212 C   0  0  0  0  0  0  0  0  0  0  0  0
    2.3891   -4.4268    5.9576 C   0  0  0  0  0  0  0  0  0  0  0  0
    2.8390   -4.7208    7.6223 S   0  0  0  0  0  0  0  0  0  0  0  0
    2.4825   -3.1297    5.3713 C   0  0  0  0  0  0  0  0  0  0  0  0
    2.6475   -1.9153    5.9646 C   0  0  0  0  0  0  0  0  0  0  0  0
    2.7040   -0.8403    5.0393 C   0  0  0  0  0  0  0  0  0  0  0  0
    2.7563    0.5403    5.3102 C   0  0  0  0  0  0  0  0  0  0  0  0
    2.8481    1.0311    6.6743 C   0  0  0  0  0  0  0  0  0  0  0  0
    1.7327    2.2108    7.2962 S   0  0  0  0  0  0  0  0  0  0  0  0
    2.4850    2.2146    8.8541 C   0  0  0  0  0  0  0  0  0  0  0  0
    1.9419    3.0328    9.9730 C   0  0  0  0  0  0  0  0  0  0  0  0
    0.8518    2.2686   10.7285 C   0  0  0  0  0  0  0  0  0  0  0  0
    3.5358    1.3466    8.8759 C   0  0  0  0  0  0  0  0  0  0  0  0
    4.5262    1.0770   10.2511 Cl  0  0  0  0  0  0  0  0  0  0  0  0
    3.7489    0.6778    7.6414 C   0  0  0  0  0  0  0  0  0  0  0  0
    5.0643   -0.3974    7.3911 Cl  0  0  0  0  0  0  0  0  0  0  0  0
    2.6926    1.3984    4.2201 C   0  0  0  0  0  0  0  0  0  0  0  0
    2.6633    0.9396    2.8800 C   0  0  0  0  0  0  0  0  0  0  0  0
    2.5401   -0.4328    2.6067 C   0  0  0  0  0  0  0  0  0  0  0  0
    2.2465   -0.9484    1.2812 C   0  0  0  0  0  0  0  0  0  0  0  0
    2.9924   -2.4141    0.7118 S   0  0  0  0  0  0  0  0  0  0  0  0
    1.9765   -2.4892   -0.6825 C   0  0  0  0  0  0  0  0  0  0  0  0
    2.0103   -3.6697   -1.5837 C   0  0  0  0  0  0  0  0  0  0  0  0
    1.4208   -4.9000   -0.8910 C   0  0  0  0  0  0  0  0  0  0  0  0
    1.1473   -1.4094   -0.7232 C   0  0  0  0  0  0  0  0  0  0  0  0
    1.2901   -0.5359    0.3896 C   0  0  0  0  0  0  0  0  0  0  0  0
    0.2404    0.8059    0.6163 Cl  0  0  0  0  0  0  0  0  0  0  0  0
    0.0175   -1.1270   -1.9858 Cl  0  0  0  0  0  0  0  0  0  0  0  0
    2.5803   -1.2889    3.7020 C   0  0  0  0  0  0  0  0  0  0  0  0
    2.3863   -3.0139    3.6270 S   0  0  0  0  0  0  0  0  0  0  0  0
    2.6884    2.0106    1.9555 C   0  0  0  0  0  0  0  0  0  0  0  0
    2.6050    3.2362    2.5449 C   0  0  0  0  0  0  0  0  0  0  0  0
    2.6217    3.1397    4.2909 S   0  0  0  0  0  0  0  0  0  0  0  0
    2.2599    4.4358    1.8404 C   0  0  0  0  0  0  0  0  0  0  0  0
    1.2764    5.3129    2.1844 C   0  0  0  0  0  0  0  0  0  0  0  0
    0.8119    6.0877    1.0891 C   0  0  0  0  0  0  0  0  0  0  0  0
   -0.3992    6.7963    0.9946 C   0  0  0  0  0  0  0  0  0  0  0  0
   -1.3109    6.8976    2.1258 C   0  0  0  0  0  0  0  0  0  0  0  0
   -1.8669    8.4397    2.6980 S   0  0  0  0  0  0  0  0  0  0  0  0
   -2.8492    7.7158    3.9245 C   0  0  0  0  0  0  0  0  0  0  0  0
   -3.7036    8.5445    4.8187 C   0  0  0  0  0  0  0  0  0  0  0  0
   -5.0590    8.8265    4.1656 C   0  0  0  0  0  0  0  0  0  0  0  0
   -2.7530    6.3573    3.8689 C   0  0  0  0  0  0  0  0  0  0  0  0
   -3.5928    5.2950    4.9226 Cl  0  0  0  0  0  0  0  0  0  0  0  0
   -1.8793    5.8885    2.8513 C   0  0  0  0  0  0  0  0  0  0  0  0
   -1.6416    4.2170    2.5298 Cl  0  0  0  0  0  0  0  0  0  0  0  0
   -0.7700    7.2482   -0.2633 C   0  0  0  0  0  0  0  0  0  0  0  0
    0.0651    7.1185   -1.3994 C   0  0  0  0  0  0  0  0  0  0  0  0
    1.2748    6.4101   -1.3094 C   0  0  0  0  0  0  0  0  0  0  0  0
    2.0525    6.1059   -2.5039 C   0  0  0  0  0  0  0  0  0  0  0  0
    3.7087    6.6051   -2.6582 S   0  0  0  0  0  0  0  0  0  0  0  0
    3.8409    5.9444   -4.2515 C   0  0  0  0  0  0  0  0  0  0  0  0
    5.1155    6.0104   -5.0184 C   0  0  0  0  0  0  0  0  0  0  0  0
    5.9120    4.7123   -4.8685 C   0  0  0  0  0  0  0  0  0  0  0  0
    2.6680    5.3545   -4.6179 C   0  0  0  0  0  0  0  0  0  0  0  0
    1.6513    5.4411   -3.6293 C   0  0  0  0  0  0  0  0  0  0  0  0
    0.1052    4.7090   -3.8343 Cl  0  0  0  0  0  0  0  0  0  0  0  0
    2.4110    4.5940   -6.1321 Cl  0  0  0  0  0  0  0  0  0  0  0  0
    1.5914    5.8708   -0.0740 C   0  0  0  0  0  0  0  0  0  0  0  0
    2.8148    4.6623    0.1940 S   0  0  0  0  0  0  0  0  0  0  0  0
   -0.6009    7.4732   -2.5934 C   0  0  0  0  0  0  0  0  0  0  0  0
   -1.9437    7.6793   -2.4254 C   0  0  0  0  0  0  0  0  0  0  0  0
   -2.3767    7.7539   -0.7248 S   0  0  0  0  0  0  0  0  0  0  0  0
   -2.9010    7.3584   -3.4413 C   0  0  0  0  0  0  0  0  0  0  0  0
   -2.5684    6.9890   -4.7160 C   0  0  0  0  0  0  0  0  0  0  0  0
   -3.4464    6.0328   -5.2762 C   0  0  0  0  0  0  0  0  0  0  0  0
   -3.1496    5.1764   -6.3559 C   0  0  0  0  0  0  0  0  0  0  0  0
   -2.0533    5.4777   -7.2533 C   0  0  0  0  0  0  0  0  0  0  0  0
   -0.8642    4.2889   -7.6975 S   0  0  0  0  0  0  0  0  0  0  0  0
    0.0210    5.4178   -8.6595 C   0  0  0  0  0  0  0  0  0  0  0  0
    1.2189    4.9977   -9.4370 C   0  0  0  0  0  0  0  0  0  0  0  0
    0.8199    4.5481  -10.8446 C   0  0  0  0  0  0  0  0  0  0  0  0
   -0.5842    6.6405   -8.6381 C   0  0  0  0  0  0  0  0  0  0  0  0
    0.0011    8.0111   -9.4903 Cl  0  0  0  0  0  0  0  0  0  0  0  0
   -1.7536    6.6818   -7.8368 C   0  0  0  0  0  0  0  0  0  0  0  0
   -2.7270    8.0894   -7.7001 Cl  0  0  0  0  0  0  0  0  0  0  0  0
   -3.8430    3.9737   -6.3888 C   0  0  0  0  0  0  0  0  0  0  0  0
   -4.9112    3.6636   -5.5105 C   0  0  0  0  0  0  0  0  0  0  0  0
   -5.3107    4.6008   -4.5420 C   0  0  0  0  0  0  0  0  0  0  0  0
   -6.3826    4.3269   -3.5926 C   0  0  0  0  0  0  0  0  0  0  0  0
   -7.7864    5.3470   -3.5220 S   0  0  0  0  0  0  0  0  0  0  0  0
   -8.4819    4.4299   -2.2291 C   0  0  0  0  0  0  0  0  0  0  0  0
   -9.7769    4.8301   -1.6131 C   0  0  0  0  0  0  0  0  0  0  0  0
   -9.5738    5.9654   -0.6070 C   0  0  0  0  0  0  0  0  0  0  0  0
   -7.6544    3.4067   -1.8759 C   0  0  0  0  0  0  0  0  0  0  0  0
   -6.4628    3.3440   -2.6485 C   0  0  0  0  0  0  0  0  0  0  0  0
   -5.2259    2.1864   -2.3579 Cl  0  0  0  0  0  0  0  0  0  0  0  0
   -7.9981    2.2831   -0.6248 Cl  0  0  0  0  0  0  0  0  0  0  0  0
   -4.5263    5.7376   -4.4112 C   0  0  0  0  0  0  0  0  0  0  0  0
   -4.4867    6.7475   -2.9862 S   0  0  0  0  0  0  0  0  0  0  0  0
   -5.2943    2.2978   -5.5939 C   0  0  0  0  0  0  0  0  0  0  0  0
   -4.4980    1.5655   -6.4239 C   0  0  0  0  0  0  0  0  0  0  0  0
   -3.3912    2.5859   -7.3323 S   0  0  0  0  0  0  0  0  0  0  0  0
   -4.1952    0.1619   -6.4076 C   0  0  0  0  0  0  0  0  0  0  0  0
   -2.4974   -0.1924   -6.5379 S   0  0  0  0  0  0  0  0  0  0  0  0
   -2.7466   -1.8462   -6.0817 C   0  0  0  0  0  0  0  0  0  0  0  0
   -4.0945   -2.1140   -5.9295 C   0  0  0  0  0  0  0  0  0  0  0  0
   -4.9118   -0.9710   -6.0931 C   0  0  0  0  0  0  0  0  0  0  0  0
   -6.3950   -1.0373   -5.9123 C   0  0  0  0  0  0  0  0  0  0  0  0
   -6.7483   -2.2071   -4.9987 C   0  0  0  0  0  0  0  0  0  0  0  0
   -6.1811   -3.4947   -5.5823 C   0  0  0  0  0  0  0  0  0  0  0  0
   -4.6386   -3.4677   -5.5843 C   0  0  0  0  0  0  0  0  0  0  0  0
   -4.2162   -4.5188   -6.5886 C   0  0  0  0  0  0  0  0  0  0  0  0
   -3.7677   -4.3124   -7.6777 O   0  0  0  0  0  0  0  0  0  0  0  0
   -1.5678   -2.6082   -5.8042 C   0  0  0  0  0  0  0  0  0  0  0  0
   -1.3682   -3.9152   -5.4647 C   0  0  0  0  0  0  0  0  0  0  0  0
   -0.0118   -4.2308   -5.1859 C   0  0  0  0  0  0  0  0  0  0  0  0
    0.5345   -5.4560   -4.7681 C   0  0  0  0  0  0  0  0  0  0  0  0
   -0.3054   -6.6099   -4.4935 C   0  0  0  0  0  0  0  0  0  0  0  0
   -1.6327   -6.4912   -3.3723 S   0  0  0  0  0  0  0  0  0  0  0  0
   -2.0190   -8.1730   -3.5270 C   0  0  0  0  0  0  0  0  0  0  0  0
   -3.1113   -8.7906   -2.7262 C   0  0  0  0  0  0  0  0  0  0  0  0
   -2.6415   -9.0857   -1.3003 C   0  0  0  0  0  0  0  0  0  0  0  0
   -1.1599   -8.7749   -4.3959 C   0  0  0  0  0  0  0  0  0  0  0  0
   -1.2239  -10.4394   -4.8075 Cl  0  0  0  0  0  0  0  0  0  0  0  0
   -0.1900   -7.8929   -4.9478 C   0  0  0  0  0  0  0  0  0  0  0  0
    0.9467   -8.4001   -6.1251 Cl  0  0  0  0  0  0  0  0  0  0  0  0
    1.9090   -5.4978   -4.5521 C   0  0  0  0  0  0  0  0  0  0  0  0
    2.7444   -4.3628   -4.6782 C   0  0  0  0  0  0  0  0  0  0  0  0
    2.1946   -3.1302   -5.0522 C   0  0  0  0  0  0  0  0  0  0  0  0
    2.9434   -1.8829   -4.9969 C   0  0  0  0  0  0  0  0  0  0  0  0
    3.6151   -1.3464   -3.4828 S   0  0  0  0  0  0  0  0  0  0  0  0
    4.0558    0.1937   -4.1334 C   0  0  0  0  0  0  0  0  0  0  0  0
    4.6275    1.2586   -3.2635 C   0  0  0  0  0  0  0  0  0  0  0  0
    3.5141    2.1571   -2.7169 C   0  0  0  0  0  0  0  0  0  0  0  0
    3.7145    0.2647   -5.4508 C   0  0  0  0  0  0  0  0  0  0  0  0
    3.0787   -0.9076   -5.9432 C   0  0  0  0  0  0  0  0  0  0  0  0
    2.5874   -1.0791   -7.5759 Cl  0  0  0  0  0  0  0  0  0  0  0  0
    4.0046    1.6310   -6.4408 Cl  0  0  0  0  0  0  0  0  0  0  0  0
    0.8346   -3.1058   -5.3351 C   0  0  0  0  0  0  0  0  0  0  0  0
   -0.0662   -1.6994   -5.7908 S   0  0  0  0  0  0  0  0  0  0  0  0
    4.0957   -4.6562   -4.3320 C   0  0  0  0  0  0  0  0  0  0  0  0
    4.2685   -5.9357   -3.9437 C   0  0  0  0  0  0  0  0  0  0  0  0
    2.8131   -6.8704   -3.9745 S   0  0  0  0  0  0  0  0  0  0  0  0
    1.7928  -11.9663    8.6566 H   0  0  0  0  0  0  0  0  0  0  0  0
    2.5281   -9.8385    9.9640 H   0  0  0  0  0  0  0  0  0  0  0  0
    2.7971   -4.7994   13.4174 H   0  0  0  0  0  0  0  0  0  0  0  0
    4.2975   -5.5986   13.9272 H   0  0  0  0  0  0  0  0  0  0  0  0
    4.1168   -3.2735   11.9442 H   0  0  0  0  0  0  0  0  0  0  0  0
    4.6397   -3.1481   13.6281 H   0  0  0  0  0  0  0  0  0  0  0  0
    5.6087   -4.0605   12.4669 H   0  0  0  0  0  0  0  0  0  0  0  0
    1.8254   -7.7603    0.2426 H   0  0  0  0  0  0  0  0  0  0  0  0
    0.1140   -8.1712    0.0414 H   0  0  0  0  0  0  0  0  0  0  0  0
    1.5480   -9.7857   -1.1660 H   0  0  0  0  0  0  0  0  0  0  0  0
    0.6864  -10.5976    0.1464 H   0  0  0  0  0  0  0  0  0  0  0  0
    2.3932  -10.1886    0.3322 H   0  0  0  0  0  0  0  0  0  0  0  0
    1.6605   -5.5608    4.2960 H   0  0  0  0  0  0  0  0  0  0  0  0
    2.6992   -1.7959    7.0312 H   0  0  0  0  0  0  0  0  0  0  0  0
    2.7568    3.2773   10.6569 H   0  0  0  0  0  0  0  0  0  0  0  0
    1.5271    3.9601    9.5748 H   0  0  0  0  0  0  0  0  0  0  0  0
    1.2545    1.3467   11.1402 H   0  0  0  0  0  0  0  0  0  0  0  0
    0.4669    2.8756   11.5434 H   0  0  0  0  0  0  0  0  0  0  0  0
    0.0317    2.0216   10.0586 H   0  0  0  0  0  0  0  0  0  0  0  0
    1.4307   -3.4384   -2.4771 H   0  0  0  0  0  0  0  0  0  0  0  0
    3.0407   -3.8775   -1.8770 H   0  0  0  0  0  0  0  0  0  0  0  0
    1.9851   -5.1294    0.0100 H   0  0  0  0  0  0  0  0  0  0  0  0
    1.4571   -5.7555   -1.5599 H   0  0  0  0  0  0  0  0  0  0  0  0
    0.3847   -4.7185   -0.6166 H   0  0  0  0  0  0  0  0  0  0  0  0
    2.7185    1.8798    0.8896 H   0  0  0  0  0  0  0  0  0  0  0  0
    0.8339    5.3311    3.1634 H   0  0  0  0  0  0  0  0  0  0  0  0
   -3.1985    9.4882    5.0307 H   0  0  0  0  0  0  0  0  0  0  0  0
   -3.8542    8.0076    5.7572 H   0  0  0  0  0  0  0  0  0  0  0  0
   -5.5798    7.8943    3.9623 H   0  0  0  0  0  0  0  0  0  0  0  0
   -5.6728    9.4324    4.8264 H   0  0  0  0  0  0  0  0  0  0  0  0
   -4.9220    9.3592    3.2276 H   0  0  0  0  0  0  0  0  0  0  0  0
    5.7096    6.8506   -4.6568 H   0  0  0  0  0  0  0  0  0  0  0  0
    4.8844    6.1717   -6.0735 H   0  0  0  0  0  0  0  0  0  0  0  0
    5.3391    3.8772   -5.2619 H   0  0  0  0  0  0  0  0  0  0  0  0
    6.1350    4.5255   -3.8205 H   0  0  0  0  0  0  0  0  0  0  0  0
    6.8465    4.7831   -5.4181 H   0  0  0  0  0  0  0  0  0  0  0  0
   -0.1270    7.4370   -3.5551 H   0  0  0  0  0  0  0  0  0  0  0  0
   -1.6424    7.2673   -5.1830 H   0  0  0  0  0  0  0  0  0  0  0  0
    1.9117    5.8392   -9.5037 H   0  0  0  0  0  0  0  0  0  0  0  0
    1.7154    4.1746   -8.9213 H   0  0  0  0  0  0  0  0  0  0  0  0
    0.1333    3.7066  -10.7902 H   0  0  0  0  0  0  0  0  0  0  0  0
    0.3333    5.3613  -11.3771 H   0  0  0  0  0  0  0  0  0  0  0  0
    1.7017    4.2441  -11.4021 H   0  0  0  0  0  0  0  0  0  0  0  0
  -10.4649    5.1577   -2.3947 H   0  0  0  0  0  0  0  0  0  0  0  0
  -10.2071    3.9633   -1.1082 H   0  0  0  0  0  0  0  0  0  0  0  0
  -10.5257    6.2477   -0.1655 H   0  0  0  0  0  0  0  0  0  0  0  0
   -8.9006    5.6503    0.1861 H   0  0  0  0  0  0  0  0  0  0  0  0
   -9.1450    6.8341   -1.1011 H   0  0  0  0  0  0  0  0  0  0  0  0
   -6.0465    1.8703   -4.9588 H   0  0  0  0  0  0  0  0  0  0  0  0
   -6.7694   -0.1011   -5.5003 H   0  0  0  0  0  0  0  0  0  0  0  0
   -6.8708   -1.1792   -6.8880 H   0  0  0  0  0  0  0  0  0  0  0  0
   -7.8320   -2.2913   -4.9060 H   0  0  0  0  0  0  0  0  0  0  0  0
   -6.3316   -2.0357   -4.0042 H   0  0  0  0  0  0  0  0  0  0  0  0
   -6.5398   -3.6014   -6.6093 H   0  0  0  0  0  0  0  0  0  0  0  0
   -6.5239   -4.3604   -5.0136 H   0  0  0  0  0  0  0  0  0  0  0  0
   -4.2723   -3.7632   -4.5931 H   0  0  0  0  0  0  0  0  0  0  0  0
   -4.4306   -5.5513   -6.2401 H   0  0  0  0  0  0  0  0  0  0  0  0
   -2.1486   -4.6513   -5.4287 H   0  0  0  0  0  0  0  0  0  0  0  0
   -3.4169   -9.7188   -3.2117 H   0  0  0  0  0  0  0  0  0  0  0  0
   -3.9677   -8.1143   -2.6919 H   0  0  0  0  0  0  0  0  0  0  0  0
   -1.7870   -9.7571   -1.3159 H   0  0  0  0  0  0  0  0  0  0  0  0
   -2.3541   -8.1637   -0.7999 H   0  0  0  0  0  0  0  0  0  0  0  0
   -3.4401   -9.5538   -0.7317 H   0  0  0  0  0  0  0  0  0  0  0  0
    5.3277    1.8593   -3.8468 H   0  0  0  0  0  0  0  0  0  0  0  0
    5.1660    0.7977   -2.4340 H   0  0  0  0  0  0  0  0  0  0  0  0
    2.9756    2.6292   -3.5342 H   0  0  0  0  0  0  0  0  0  0  0  0
    3.9318    2.9341   -2.0815 H   0  0  0  0  0  0  0  0  0  0  0  0
    2.8077    1.5709   -2.1336 H   0  0  0  0  0  0  0  0  0  0  0  0
    4.8861   -3.9297   -4.3829 H   0  0  0  0  0  0  0  0  0  0  0  0
    5.1767   -6.4162   -3.6370 H   0  0  0  0  0  0  0  0  0  0  0  0
  1  2  2  0  0  0  0
  2  3  1  0  0  0  0
  3  4  2  0  0  0  0
  4  5  1  0  0  0  0
  5  6  1  0  0  0  0
  6  7  1  0  0  0  0
  7  8  1  0  0  0  0
  8  9  1  0  0  0  0
  7 10  2  0  0  0  0
 10 11  1  0  0  0  0
 10 12  1  0  0  0  0
 12 13  1  0  0  0  0
  4 14  1  0  0  0  0
 14 15  2  0  0  0  0
 15 16  1  0  0  0  0
 16 17  1  0  0  0  0
 17 18  1  0  0  0  0
 18 19  1  0  0  0  0
 19 20  1  0  0  0  0
 20 21  1  0  0  0  0
 19 22  2  0  0  0  0
 22 23  1  0  0  0  0
 23 24  1  0  0  0  0
 22 25  1  0  0  0  0
 16 26  2  0  0  0  0
 26 27  1  0  0  0  0
 15 28  1  0  0  0  0
 28 29  2  0  0  0  0
 29 30  1  0  0  0  0
 29 31  1  0  0  0  0
 31 32  2  0  0  0  0
 32 33  1  0  0  0  0
 33 34  2  0  0  0  0
 34 35  1  0  0  0  0
 35 36  1  0  0  0  0
 36 37  1  0  0  0  0
 37 38  1  0  0  0  0
 38 39  1  0  0  0  0
 37 40  2  0  0  0  0
 40 41  1  0  0  0  0
 40 42  1  0  0  0  0
 42 43  1  0  0  0  0
 34 44  1  0  0  0  0
 44 45  2  0  0  0  0
 45 46  1  0  0  0  0
 46 47  1  0  0  0  0
 47 48  1  0  0  0  0
 48 49  1  0  0  0  0
 49 50  1  0  0  0  0
 50 51  1  0  0  0  0
 49 52  2  0  0  0  0
 52 53  1  0  0  0  0
 53 54  1  0  0  0  0
 52 55  1  0  0  0  0
 46 56  2  0  0  0  0
 56 57  1  0  0  0  0
 45 58  1  0  0  0  0
 58 59  2  0  0  0  0
 59 60  1  0  0  0  0
 59 61  1  0  0  0  0
 61 62  2  0  0  0  0
 62 63  1  0  0  0  0
 63 64  2  0  0  0  0
 64 65  1  0  0  0  0
 65 66  1  0  0  0  0
 66 67  1  0  0  0  0
 67 68  1  0  0  0  0
 68 69  1  0  0  0  0
 67 70  2  0  0  0  0
 70 71  1  0  0  0  0
 70 72  1  0  0  0  0
 72 73  1  0  0  0  0
 64 74  1  0  0  0  0
 74 75  2  0  0  0  0
 75 76  1  0  0  0  0
 76 77  1  0  0  0  0
 77 78  1  0  0  0  0
 78 79  1  0  0  0  0
 79 80  1  0  0  0  0
 80 81  1  0  0  0  0
 79 82  2  0  0  0  0
 82 83  1  0  0  0  0
 83 84  1  0  0  0  0
 82 85  1  0  0  0  0
 76 86  2  0  0  0  0
 86 87  1  0  0  0  0
 75 88  1  0  0  0  0
 88 89  2  0  0  0  0
 89 90  1  0  0  0  0
 89 91  1  0  0  0  0
 91 92  2  0  0  0  0
 92 93  1  0  0  0  0
 93 94  2  0  0  0  0
 94 95  1  0  0  0  0
 95 96  1  0  0  0  0
 96 97  1  0  0  0  0
 97 98  1  0  0  0  0
 98 99  1  0  0  0  0
 97100  2  0  0  0  0
100101  1  0  0  0  0
100102  1  0  0  0  0
102103  1  0  0  0  0
 94104  1  0  0  0  0
104105  2  0  0  0  0
105106  1  0  0  0  0
106107  1  0  0  0  0
107108  1  0  0  0  0
108109  1  0  0  0  0
109110  1  0  0  0  0
110111  1  0  0  0  0
109112  2  0  0  0  0
112113  1  0  0  0  0
113114  1  0  0  0  0
112115  1  0  0  0  0
106116  2  0  0  0  0
116117  1  0  0  0  0
105118  1  0  0  0  0
118119  2  0  0  0  0
119120  1  0  0  0  0
119121  1  0  0  0  0
121122  1  0  0  0  0
122123  1  0  0  0  0
123124  2  0  0  0  0
124125  1  0  0  0  0
125126  1  0  0  0  0
126127  1  0  0  0  0
127128  1  0  0  0  0
128129  1  0  0  0  0
129130  1  0  0  0  0
130131  2  0  0  0  0
123132  1  0  0  0  0
132133  2  0  0  0  0
133134  1  0  0  0  0
134135  2  0  0  0  0
135136  1  0  0  0  0
136137  1  0  0  0  0
137138  1  0  0  0  0
138139  1  0  0  0  0
139140  1  0  0  0  0
138141  2  0  0  0  0
141142  1  0  0  0  0
141143  1  0  0  0  0
143144  1  0  0  0  0
135145  1  0  0  0  0
145146  2  0  0  0  0
146147  1  0  0  0  0
147148  1  0  0  0  0
148149  1  0  0  0  0
149150  1  0  0  0  0
150151  1  0  0  0  0
151152  1  0  0  0  0
150153  2  0  0  0  0
153154  1  0  0  0  0
154155  1  0  0  0  0
153156  1  0  0  0  0
147157  2  0  0  0  0
157158  1  0  0  0  0
146159  1  0  0  0  0
159160  2  0  0  0  0
160161  1  0  0  0  0
 27  1  1  0  0  0  0
 57 31  1  0  0  0  0
 87 61  1  0  0  0  0
117 91  1  0  0  0  0
125121  2  0  0  0  0
158132  1  0  0  0  0
 26  3  1  0  0  0  0
 56 33  1  0  0  0  0
 86 63  1  0  0  0  0
116 93  1  0  0  0  0
129124  1  0  0  0  0
157134  1  0  0  0  0
 12  5  2  0  0  0  0
 30 14  1  0  0  0  0
 42 35  2  0  0  0  0
 60 44  1  0  0  0  0
 72 65  2  0  0  0  0
 90 74  1  0  0  0  0
102 95  2  0  0  0  0
120104  1  0  0  0  0
143136  2  0  0  0  0
161145  1  0  0  0  0
 23 17  2  0  0  0  0
 53 47  2  0  0  0  0
 83 77  2  0  0  0  0
113107  2  0  0  0  0
154148  2  0  0  0  0
  1162  1  0  0  0  0
  2163  1  0  0  0  0
  8164  1  0  0  0  0
  8165  1  0  0  0  0
  9166  1  0  0  0  0
  9167  1  0  0  0  0
  9168  1  0  0  0  0
 20169  1  0  0  0  0
 20170  1  0  0  0  0
 21171  1  0  0  0  0
 21172  1  0  0  0  0
 21173  1  0  0  0  0
 28174  1  0  0  0  0
 32175  1  0  0  0  0
 38176  1  0  0  0  0
 38177  1  0  0  0  0
 39178  1  0  0  0  0
 39179  1  0  0  0  0
 39180  1  0  0  0  0
 50181  1  0  0  0  0
 50182  1  0  0  0  0
 51183  1  0  0  0  0
 51184  1  0  0  0  0
 51185  1  0  0  0  0
 58186  1  0  0  0  0
 62187  1  0  0  0  0
 68188  1  0  0  0  0
 68189  1  0  0  0  0
 69190  1  0  0  0  0
 69191  1  0  0  0  0
 69192  1  0  0  0  0
 80193  1  0  0  0  0
 80194  1  0  0  0  0
 81195  1  0  0  0  0
 81196  1  0  0  0  0
 81197  1  0  0  0  0
 88198  1  0  0  0  0
 92199  1  0  0  0  0
 98200  1  0  0  0  0
 98201  1  0  0  0  0
 99202  1  0  0  0  0
 99203  1  0  0  0  0
 99204  1  0  0  0  0
110205  1  0  0  0  0
110206  1  0  0  0  0
111207  1  0  0  0  0
111208  1  0  0  0  0
111209  1  0  0  0  0
118210  1  0  0  0  0
126211  1  0  0  0  0
126212  1  0  0  0  0
127213  1  0  0  0  0
127214  1  0  0  0  0
128215  1  0  0  0  0
128216  1  0  0  0  0
129217  1  0  0  0  0
130218  1  0  0  0  0
133219  1  0  0  0  0
139220  1  0  0  0  0
139221  1  0  0  0  0
140222  1  0  0  0  0
140223  1  0  0  0  0
140224  1  0  0  0  0
151225  1  0  0  0  0
151226  1  0  0  0  0
152227  1  0  0  0  0
152228  1  0  0  0  0
152229  1  0  0  0  0
159230  1  0  0  0  0
160231  1  0  0  0  0
M  END
