
  xtb     03072217113D
 energy: -401.046620042771 gnorm: 0.000233167526 xtb: 6.4.1 (unknown)
232253  0     0  0            999 V2000
    4.7717  -10.5563    5.1201 C   0  0  0  0  0  0  0  0  0  0  0  0
    4.3104   -9.3393    5.4714 C   0  0  0  0  0  0  0  0  0  0  0  0
    3.0376   -9.0421    4.8991 C   0  0  0  0  0  0  0  0  0  0  0  0
    2.2501   -7.8969    5.0828 C   0  0  0  0  0  0  0  0  0  0  0  0
    2.7362   -6.7034    5.7857 C   0  0  0  0  0  0  0  0  0  0  0  0
    1.9532   -6.0441    6.7292 C   0  0  0  0  0  0  0  0  0  0  0  0
    2.3644   -4.8503    7.2884 C   0  0  0  0  0  0  0  0  0  0  0  0
    3.5685   -4.2664    6.9138 C   0  0  0  0  0  0  0  0  0  0  0  0
    4.1603   -2.7216    7.5301 S   0  0  0  0  0  0  0  0  0  0  0  0
    2.6259   -1.8087    7.9207 C   0  0  0  0  0  0  0  0  0  0  0  0
    1.7643   -1.5676    6.6968 C   0  0  0  0  0  0  0  0  0  0  0  0
    4.3655   -4.9595    6.0039 C   0  0  0  0  0  0  0  0  0  0  0  0
    5.5545   -4.4374    5.6368 F   0  0  0  0  0  0  0  0  0  0  0  0
    3.9702   -6.1532    5.4424 C   0  0  0  0  0  0  0  0  0  0  0  0
    1.0028   -7.8975    4.4737 C   0  0  0  0  0  0  0  0  0  0  0  0
    0.5442   -8.9430    3.6354 C   0  0  0  0  0  0  0  0  0  0  0  0
    1.3363  -10.0862    3.4461 C   0  0  0  0  0  0  0  0  0  0  0  0
    0.8813  -11.2036    2.6116 C   0  0  0  0  0  0  0  0  0  0  0  0
    1.6996  -11.7443    1.6248 C   0  0  0  0  0  0  0  0  0  0  0  0
    1.2743  -12.7988    0.8404 C   0  0  0  0  0  0  0  0  0  0  0  0
    0.0119  -13.3539    1.0160 C   0  0  0  0  0  0  0  0  0  0  0  0
   -0.6495  -14.7102    0.1085 S   0  0  0  0  0  0  0  0  0  0  0  0
    0.4759  -14.8894   -1.3182 C   0  0  0  0  0  0  0  0  0  0  0  0
    0.3269  -13.7571   -2.3166 C   0  0  0  0  0  0  0  0  0  0  0  0
   -0.7932  -12.8100    2.0194 C   0  0  0  0  0  0  0  0  0  0  0  0
   -0.3839  -11.7567    2.8043 C   0  0  0  0  0  0  0  0  0  0  0  0
   -2.0172  -13.3340    2.2319 F   0  0  0  0  0  0  0  0  0  0  0  0
    2.5638  -10.1071    4.0961 C   0  0  0  0  0  0  0  0  0  0  0  0
    3.7069  -11.4260    4.0692 S   0  0  0  0  0  0  0  0  0  0  0  0
   -0.6935   -8.6186    3.0140 C   0  0  0  0  0  0  0  0  0  0  0  0
   -1.1893   -7.4102    3.3912 C   0  0  0  0  0  0  0  0  0  0  0  0
   -0.1475   -6.5908    4.5424 S   0  0  0  0  0  0  0  0  0  0  0  0
   -2.3437   -6.7058    2.9269 C   0  0  0  0  0  0  0  0  0  0  0  0
   -2.9651   -5.6716    3.5574 C   0  0  0  0  0  0  0  0  0  0  0  0
   -3.9500   -5.0305    2.7658 C   0  0  0  0  0  0  0  0  0  0  0  0
   -4.6763   -3.8731    3.0933 C   0  0  0  0  0  0  0  0  0  0  0  0
   -4.6026   -3.3048    4.4450 C   0  0  0  0  0  0  0  0  0  0  0  0
   -4.2669   -1.9714    4.6550 C   0  0  0  0  0  0  0  0  0  0  0  0
   -4.1722   -1.4507    5.9311 C   0  0  0  0  0  0  0  0  0  0  0  0
   -4.4067   -2.2477    7.0454 C   0  0  0  0  0  0  0  0  0  0  0  0
   -4.3237   -1.7110    8.7218 S   0  0  0  0  0  0  0  0  0  0  0  0
   -3.3934   -0.1418    8.6376 C   0  0  0  0  0  0  0  0  0  0  0  0
   -1.9381   -0.3569    8.2664 C   0  0  0  0  0  0  0  0  0  0  0  0
   -4.7590   -3.5798    6.8192 C   0  0  0  0  0  0  0  0  0  0  0  0
   -5.0079   -4.3796    7.8758 F   0  0  0  0  0  0  0  0  0  0  0  0
   -4.8538   -4.1119    5.5535 C   0  0  0  0  0  0  0  0  0  0  0  0
   -5.3812   -3.2774    2.0610 C   0  0  0  0  0  0  0  0  0  0  0  0
   -5.4425   -3.8272    0.7567 C   0  0  0  0  0  0  0  0  0  0  0  0
   -4.7987   -5.0404    0.4584 C   0  0  0  0  0  0  0  0  0  0  0  0
   -4.8661   -5.5718   -0.9091 C   0  0  0  0  0  0  0  0  0  0  0  0
   -6.0981   -5.7461   -1.5382 C   0  0  0  0  0  0  0  0  0  0  0  0
   -6.1633   -6.1407   -2.8577 C   0  0  0  0  0  0  0  0  0  0  0  0
   -5.0070   -6.3699   -3.5981 C   0  0  0  0  0  0  0  0  0  0  0  0
   -5.1794   -6.8409   -5.2979 S   0  0  0  0  0  0  0  0  0  0  0  0
   -4.0219   -5.6985   -6.1424 C   0  0  0  0  0  0  0  0  0  0  0  0
   -4.3894   -4.2455   -5.9141 C   0  0  0  0  0  0  0  0  0  0  0  0
   -3.7864   -6.2433   -2.9429 C   0  0  0  0  0  0  0  0  0  0  0  0
   -3.7048   -5.8429   -1.6244 C   0  0  0  0  0  0  0  0  0  0  0  0
   -2.6297   -6.4934   -3.5930 F   0  0  0  0  0  0  0  0  0  0  0  0
   -4.0379   -5.6014    1.4715 C   0  0  0  0  0  0  0  0  0  0  0  0
   -2.9946   -6.9952    1.3245 S   0  0  0  0  0  0  0  0  0  0  0  0
   -6.0262   -2.9262   -0.1685 C   0  0  0  0  0  0  0  0  0  0  0  0
   -6.3949   -1.7357    0.3836 C   0  0  0  0  0  0  0  0  0  0  0  0
   -6.1686   -1.7192    2.1258 S   0  0  0  0  0  0  0  0  0  0  0  0
   -6.5880   -0.5044   -0.3108 C   0  0  0  0  0  0  0  0  0  0  0  0
   -6.7286    0.7424    0.2225 C   0  0  0  0  0  0  0  0  0  0  0  0
   -6.3915    1.7848   -0.6787 C   0  0  0  0  0  0  0  0  0  0  0  0
   -6.2634    3.1562   -0.4061 C   0  0  0  0  0  0  0  0  0  0  0  0
   -6.6038    3.7428    0.8967 C   0  0  0  0  0  0  0  0  0  0  0  0
   -6.0750    3.2404    2.0840 C   0  0  0  0  0  0  0  0  0  0  0  0
   -6.3638    3.8444    3.2887 C   0  0  0  0  0  0  0  0  0  0  0  0
   -7.1962    4.9595    3.3622 C   0  0  0  0  0  0  0  0  0  0  0  0
   -7.5195    5.6234    4.9693 S   0  0  0  0  0  0  0  0  0  0  0  0
   -7.5135    7.4363    4.7118 C   0  0  0  0  0  0  0  0  0  0  0  0
   -6.2105    7.9213    4.1090 C   0  0  0  0  0  0  0  0  0  0  0  0
   -7.7369    5.4338    2.1711 C   0  0  0  0  0  0  0  0  0  0  0  0
   -8.5853    6.4849    2.1643 F   0  0  0  0  0  0  0  0  0  0  0  0
   -7.4346    4.8561    0.9548 C   0  0  0  0  0  0  0  0  0  0  0  0
   -5.6801    3.9333   -1.3947 C   0  0  0  0  0  0  0  0  0  0  0  0
   -5.2555    3.4156   -2.6414 C   0  0  0  0  0  0  0  0  0  0  0  0
   -5.4881    2.0678   -2.9604 C   0  0  0  0  0  0  0  0  0  0  0  0
   -5.0928    1.5129   -4.2609 C   0  0  0  0  0  0  0  0  0  0  0  0
   -4.3017    0.3693   -4.3537 C   0  0  0  0  0  0  0  0  0  0  0  0
   -3.9527   -0.1442   -5.5834 C   0  0  0  0  0  0  0  0  0  0  0  0
   -4.3858    0.4472   -6.7685 C   0  0  0  0  0  0  0  0  0  0  0  0
   -3.9274   -0.3525   -8.2777 S   0  0  0  0  0  0  0  0  0  0  0  0
   -3.5803    1.0232   -9.4346 C   0  0  0  0  0  0  0  0  0  0  0  0
   -2.5080    1.9540   -8.9055 C   0  0  0  0  0  0  0  0  0  0  0  0
   -5.1842    1.5820   -6.6607 C   0  0  0  0  0  0  0  0  0  0  0  0
   -5.5189    2.1235   -5.4358 C   0  0  0  0  0  0  0  0  0  0  0  0
   -5.6695    2.1974   -7.7622 F   0  0  0  0  0  0  0  0  0  0  0  0
   -6.0241    1.2816   -1.9534 C   0  0  0  0  0  0  0  0  0  0  0  0
   -6.1976   -0.4522   -2.0229 S   0  0  0  0  0  0  0  0  0  0  0  0
   -4.4246    4.3302   -3.3352 C   0  0  0  0  0  0  0  0  0  0  0  0
   -4.2041    5.4964   -2.6631 C   0  0  0  0  0  0  0  0  0  0  0  0
   -5.1418    5.5807   -1.1777 S   0  0  0  0  0  0  0  0  0  0  0  0
   -3.1296    6.4102   -2.9087 C   0  0  0  0  0  0  0  0  0  0  0  0
   -1.7118    5.7257   -3.6401 S   0  0  0  0  0  0  0  0  0  0  0  0
   -0.7701    7.1533   -3.2804 C   0  0  0  0  0  0  0  0  0  0  0  0
   -1.5413    8.1052   -2.6590 C   0  0  0  0  0  0  0  0  0  0  0  0
   -2.9057    7.6962   -2.4566 C   0  0  0  0  0  0  0  0  0  0  0  0
   -3.9640    8.4914   -1.8703 C   0  0  0  0  0  0  0  0  0  0  0  0
   -3.8414    9.6709   -1.2701 C   0  0  0  0  0  0  0  0  0  0  0  0
   -1.1523    9.3216   -2.2141 O   0  0  0  0  0  0  0  0  0  0  0  0
    0.2106    9.6724   -2.2602 C   0  0  0  0  0  0  0  0  0  0  0  0
    0.6558    7.0139   -3.5087 C   0  0  0  0  0  0  0  0  0  0  0  0
    1.4780    5.8682   -2.4814 S   0  0  0  0  0  0  0  0  0  0  0  0
    2.9718    6.0777   -3.3332 C   0  0  0  0  0  0  0  0  0  0  0  0
    2.8242    6.9998   -4.3472 C   0  0  0  0  0  0  0  0  0  0  0  0
    1.4991    7.5230   -4.4699 C   0  0  0  0  0  0  0  0  0  0  0  0
    1.1695    8.4339   -5.5506 C   0  0  0  0  0  0  0  0  0  0  0  0
   -0.0302    8.9189   -5.8490 C   0  0  0  0  0  0  0  0  0  0  0  0
    3.8373    7.3705   -5.1955 O   0  0  0  0  0  0  0  0  0  0  0  0
    4.6846    8.3815   -4.6790 C   0  0  0  0  0  0  0  0  0  0  0  0
    4.1080    5.2776   -2.9929 C   0  0  0  0  0  0  0  0  0  0  0  0
    5.2773    5.1413   -3.6785 C   0  0  0  0  0  0  0  0  0  0  0  0
    6.1610    4.1888   -3.1071 C   0  0  0  0  0  0  0  0  0  0  0  0
    7.4401    3.8285   -3.5567 C   0  0  0  0  0  0  0  0  0  0  0  0
    8.0173    4.4032   -4.7778 C   0  0  0  0  0  0  0  0  0  0  0  0
    7.3094    4.3967   -5.9789 C   0  0  0  0  0  0  0  0  0  0  0  0
    7.8707    4.9142   -7.1265 C   0  0  0  0  0  0  0  0  0  0  0  0
    9.1486    5.4691   -7.1217 C   0  0  0  0  0  0  0  0  0  0  0  0
    9.7531    6.1466   -8.6411 S   0  0  0  0  0  0  0  0  0  0  0  0
   11.4964    5.5890   -8.6980 C   0  0  0  0  0  0  0  0  0  0  0  0
   11.6101    4.0795   -8.6287 C   0  0  0  0  0  0  0  0  0  0  0  0
    9.8327    5.4925   -5.9104 C   0  0  0  0  0  0  0  0  0  0  0  0
   11.0575    6.0555   -5.8189 F   0  0  0  0  0  0  0  0  0  0  0  0
    9.2935    4.9555   -4.7593 C   0  0  0  0  0  0  0  0  0  0  0  0
    8.1215    2.8848   -2.8013 C   0  0  0  0  0  0  0  0  0  0  0  0
    7.5803    2.2819   -1.6412 C   0  0  0  0  0  0  0  0  0  0  0  0
    6.3074    2.6541   -1.1794 C   0  0  0  0  0  0  0  0  0  0  0  0
    5.7418    2.0599    0.0387 C   0  0  0  0  0  0  0  0  0  0  0  0
    6.4916    1.9957    1.2117 C   0  0  0  0  0  0  0  0  0  0  0  0
    5.9872    1.4018    2.3512 C   0  0  0  0  0  0  0  0  0  0  0  0
    4.7146    0.8415    2.3599 C   0  0  0  0  0  0  0  0  0  0  0  0
    3.9940    0.0416    3.7572 S   0  0  0  0  0  0  0  0  0  0  0  0
    5.4408   -0.6282    4.6518 C   0  0  0  0  0  0  0  0  0  0  0  0
    6.1972   -1.6525    3.8315 C   0  0  0  0  0  0  0  0  0  0  0  0
    3.9591    0.9476    1.1925 C   0  0  0  0  0  0  0  0  0  0  0  0
    4.4496    1.5400    0.0490 C   0  0  0  0  0  0  0  0  0  0  0  0
    2.7115    0.4382    1.1672 F   0  0  0  0  0  0  0  0  0  0  0  0
    5.6253    3.5979   -1.9354 C   0  0  0  0  0  0  0  0  0  0  0  0
    4.0435    4.2404   -1.5785 S   0  0  0  0  0  0  0  0  0  0  0  0
    8.4540    1.2809   -1.1184 C   0  0  0  0  0  0  0  0  0  0  0  0
    9.5915    1.1501   -1.8292 C   0  0  0  0  0  0  0  0  0  0  0  0
    9.6919    2.2243   -3.1820 S   0  0  0  0  0  0  0  0  0  0  0  0
    5.6923  -11.0220    5.4131 H   0  0  0  0  0  0  0  0  0  0  0  0
    4.8311   -8.6709    6.1329 H   0  0  0  0  0  0  0  0  0  0  0  0
    1.0144   -6.4752    7.0408 H   0  0  0  0  0  0  0  0  0  0  0  0
    1.7352   -4.3710    8.0211 H   0  0  0  0  0  0  0  0  0  0  0  0
    2.9920   -0.8684    8.3331 H   0  0  0  0  0  0  0  0  0  0  0  0
    2.0908   -2.3451    8.7037 H   0  0  0  0  0  0  0  0  0  0  0  0
    1.4302   -2.5081    6.2629 H   0  0  0  0  0  0  0  0  0  0  0  0
    0.8890   -0.9850    6.9766 H   0  0  0  0  0  0  0  0  0  0  0  0
    2.3174   -1.0175    5.9385 H   0  0  0  0  0  0  0  0  0  0  0  0
    4.6057   -6.6257    4.7097 H   0  0  0  0  0  0  0  0  0  0  0  0
    2.6785  -11.3238    1.4529 H   0  0  0  0  0  0  0  0  0  0  0  0
    1.9434  -13.1890    0.0912 H   0  0  0  0  0  0  0  0  0  0  0  0
    0.1727  -15.8380   -1.7613 H   0  0  0  0  0  0  0  0  0  0  0  0
    1.4955  -14.9911   -0.9488 H   0  0  0  0  0  0  0  0  0  0  0  0
    0.9857  -13.9243   -3.1667 H   0  0  0  0  0  0  0  0  0  0  0  0
    0.5779  -12.7997   -1.8651 H   0  0  0  0  0  0  0  0  0  0  0  0
   -0.6982  -13.7068   -2.6757 H   0  0  0  0  0  0  0  0  0  0  0  0
   -1.0416  -11.3885    3.5761 H   0  0  0  0  0  0  0  0  0  0  0  0
   -1.1856   -9.2515    2.2973 H   0  0  0  0  0  0  0  0  0  0  0  0
   -2.6922   -5.3453    4.5451 H   0  0  0  0  0  0  0  0  0  0  0  0
   -4.0525   -1.3339    3.8117 H   0  0  0  0  0  0  0  0  0  0  0  0
   -3.9143   -0.4109    6.0478 H   0  0  0  0  0  0  0  0  0  0  0  0
   -3.9034    0.5338    7.9524 H   0  0  0  0  0  0  0  0  0  0  0  0
   -3.4809    0.2592    9.6473 H   0  0  0  0  0  0  0  0  0  0  0  0
   -1.4624   -1.0163    8.9889 H   0  0  0  0  0  0  0  0  0  0  0  0
   -1.4122    0.5962    8.2637 H   0  0  0  0  0  0  0  0  0  0  0  0
   -1.8502   -0.8069    7.2794 H   0  0  0  0  0  0  0  0  0  0  0  0
   -5.1352   -5.1468    5.4358 H   0  0  0  0  0  0  0  0  0  0  0  0
   -7.0075   -5.5651   -0.9855 H   0  0  0  0  0  0  0  0  0  0  0  0
   -7.1171   -6.2634   -3.3466 H   0  0  0  0  0  0  0  0  0  0  0  0
   -4.1238   -5.9682   -7.1933 H   0  0  0  0  0  0  0  0  0  0  0  0
   -3.0081   -5.9201   -5.8159 H   0  0  0  0  0  0  0  0  0  0  0  0
   -4.2655   -3.9718   -4.8674 H   0  0  0  0  0  0  0  0  0  0  0  0
   -5.4237   -4.0630   -6.1975 H   0  0  0  0  0  0  0  0  0  0  0  0
   -3.7497   -3.6062   -6.5194 H   0  0  0  0  0  0  0  0  0  0  0  0
   -2.7310   -5.7274   -1.1751 H   0  0  0  0  0  0  0  0  0  0  0  0
   -6.0817   -3.1162   -1.2259 H   0  0  0  0  0  0  0  0  0  0  0  0
   -6.9995    0.9040    1.2502 H   0  0  0  0  0  0  0  0  0  0  0  0
   -5.4011    2.3980    2.0563 H   0  0  0  0  0  0  0  0  0  0  0  0
   -5.9406    3.4639    4.2053 H   0  0  0  0  0  0  0  0  0  0  0  0
   -7.6516    7.8294    5.7191 H   0  0  0  0  0  0  0  0  0  0  0  0
   -8.3724    7.7112    4.1037 H   0  0  0  0  0  0  0  0  0  0  0  0
   -6.0747    7.5269    3.1035 H   0  0  0  0  0  0  0  0  0  0  0  0
   -6.2165    9.0079    4.0526 H   0  0  0  0  0  0  0  0  0  0  0  0
   -5.3666    7.6071    4.7197 H   0  0  0  0  0  0  0  0  0  0  0  0
   -7.8753    5.2680    0.0601 H   0  0  0  0  0  0  0  0  0  0  0  0
   -3.9317   -0.1025   -3.4574 H   0  0  0  0  0  0  0  0  0  0  0  0
   -3.3305   -1.0228   -5.6492 H   0  0  0  0  0  0  0  0  0  0  0  0
   -4.5082    1.5485   -9.6496 H   0  0  0  0  0  0  0  0  0  0  0  0
   -3.2457    0.5101  -10.3363 H   0  0  0  0  0  0  0  0  0  0  0  0
   -2.2730    2.7054   -9.6566 H   0  0  0  0  0  0  0  0  0  0  0  0
   -1.6022    1.3994   -8.6694 H   0  0  0  0  0  0  0  0  0  0  0  0
   -2.8447    2.4640   -8.0048 H   0  0  0  0  0  0  0  0  0  0  0  0
   -6.1434    3.0033   -5.4089 H   0  0  0  0  0  0  0  0  0  0  0  0
   -3.9327    4.0933   -4.2622 H   0  0  0  0  0  0  0  0  0  0  0  0
   -4.9472    8.0465   -1.9573 H   0  0  0  0  0  0  0  0  0  0  0  0
   -4.7069   10.1782   -0.8792 H   0  0  0  0  0  0  0  0  0  0  0  0
   -2.8937   10.1613   -1.1513 H   0  0  0  0  0  0  0  0  0  0  0  0
    0.8262    8.9522   -1.7144 H   0  0  0  0  0  0  0  0  0  0  0  0
    0.2754   10.6452   -1.7741 H   0  0  0  0  0  0  0  0  0  0  0  0
    0.5691    9.7550   -3.2892 H   0  0  0  0  0  0  0  0  0  0  0  0
    2.0220    8.6910   -6.1667 H   0  0  0  0  0  0  0  0  0  0  0  0
   -0.9131    8.6756   -5.2836 H   0  0  0  0  0  0  0  0  0  0  0  0
   -0.1672    9.5771   -6.6894 H   0  0  0  0  0  0  0  0  0  0  0  0
    5.1554    8.0670   -3.7420 H   0  0  0  0  0  0  0  0  0  0  0  0
    4.1302    9.3103   -4.5057 H   0  0  0  0  0  0  0  0  0  0  0  0
    5.4500    8.5482   -5.4346 H   0  0  0  0  0  0  0  0  0  0  0  0
    5.4962    5.6881   -4.5761 H   0  0  0  0  0  0  0  0  0  0  0  0
    6.3268    3.9523   -6.0176 H   0  0  0  0  0  0  0  0  0  0  0  0
    7.3257    4.8951   -8.0574 H   0  0  0  0  0  0  0  0  0  0  0  0
   11.8477    5.9671   -9.6581 H   0  0  0  0  0  0  0  0  0  0  0  0
   12.0513    6.0773   -7.9001 H   0  0  0  0  0  0  0  0  0  0  0  0
   12.6508    3.7851   -8.7484 H   0  0  0  0  0  0  0  0  0  0  0  0
   11.2559    3.7066   -7.6692 H   0  0  0  0  0  0  0  0  0  0  0  0
   11.0222    3.6155   -9.4180 H   0  0  0  0  0  0  0  0  0  0  0  0
    9.8677    5.0030   -3.8472 H   0  0  0  0  0  0  0  0  0  0  0  0
    7.4766    2.4371    1.2382 H   0  0  0  0  0  0  0  0  0  0  0  0
    6.5926    1.3799    3.2435 H   0  0  0  0  0  0  0  0  0  0  0  0
    6.0725    0.1996    4.9715 H   0  0  0  0  0  0  0  0  0  0  0  0
    5.0064   -1.0945    5.5358 H   0  0  0  0  0  0  0  0  0  0  0  0
    6.6405   -1.2005    2.9458 H   0  0  0  0  0  0  0  0  0  0  0  0
    5.5270   -2.4484    3.5165 H   0  0  0  0  0  0  0  0  0  0  0  0
    6.9864   -2.0923    4.4368 H   0  0  0  0  0  0  0  0  0  0  0  0
    3.8293    1.5634   -0.8329 H   0  0  0  0  0  0  0  0  0  0  0  0
    8.2165    0.6772   -0.2616 H   0  0  0  0  0  0  0  0  0  0  0  0
   10.4064    0.4759   -1.6510 H   0  0  0  0  0  0  0  0  0  0  0  0
  1  2  2  0  0  0  0
  2  3  1  0  0  0  0
  3  4  2  0  0  0  0
  4  5  1  0  0  0  0
  5  6  2  0  0  0  0
  6  7  1  0  0  0  0
  7  8  2  0  0  0  0
  8  9  1  0  0  0  0
  9 10  1  0  0  0  0
 10 11  1  0  0  0  0
  8 12  1  0  0  0  0
 12 13  1  0  0  0  0
 12 14  2  0  0  0  0
  4 15  1  0  0  0  0
 15 16  2  0  0  0  0
 16 17  1  0  0  0  0
 17 18  1  0  0  0  0
 18 19  2  0  0  0  0
 19 20  1  0  0  0  0
 20 21  2  0  0  0  0
 21 22  1  0  0  0  0
 22 23  1  0  0  0  0
 23 24  1  0  0  0  0
 21 25  1  0  0  0  0
 25 26  2  0  0  0  0
 25 27  1  0  0  0  0
 17 28  2  0  0  0  0
 28 29  1  0  0  0  0
 16 30  1  0  0  0  0
 30 31  2  0  0  0  0
 31 32  1  0  0  0  0
 31 33  1  0  0  0  0
 33 34  2  0  0  0  0
 34 35  1  0  0  0  0
 35 36  2  0  0  0  0
 36 37  1  0  0  0  0
 37 38  2  0  0  0  0
 38 39  1  0  0  0  0
 39 40  2  0  0  0  0
 40 41  1  0  0  0  0
 41 42  1  0  0  0  0
 42 43  1  0  0  0  0
 40 44  1  0  0  0  0
 44 45  1  0  0  0  0
 44 46  2  0  0  0  0
 36 47  1  0  0  0  0
 47 48  2  0  0  0  0
 48 49  1  0  0  0  0
 49 50  1  0  0  0  0
 50 51  2  0  0  0  0
 51 52  1  0  0  0  0
 52 53  2  0  0  0  0
 53 54  1  0  0  0  0
 54 55  1  0  0  0  0
 55 56  1  0  0  0  0
 53 57  1  0  0  0  0
 57 58  2  0  0  0  0
 57 59  1  0  0  0  0
 49 60  2  0  0  0  0
 60 61  1  0  0  0  0
 48 62  1  0  0  0  0
 62 63  2  0  0  0  0
 63 64  1  0  0  0  0
 63 65  1  0  0  0  0
 65 66  2  0  0  0  0
 66 67  1  0  0  0  0
 67 68  2  0  0  0  0
 68 69  1  0  0  0  0
 69 70  2  0  0  0  0
 70 71  1  0  0  0  0
 71 72  2  0  0  0  0
 72 73  1  0  0  0  0
 73 74  1  0  0  0  0
 74 75  1  0  0  0  0
 72 76  1  0  0  0  0
 76 77  1  0  0  0  0
 76 78  2  0  0  0  0
 68 79  1  0  0  0  0
 79 80  2  0  0  0  0
 80 81  1  0  0  0  0
 81 82  1  0  0  0  0
 82 83  2  0  0  0  0
 83 84  1  0  0  0  0
 84 85  2  0  0  0  0
 85 86  1  0  0  0  0
 86 87  1  0  0  0  0
 87 88  1  0  0  0  0
 85 89  1  0  0  0  0
 89 90  2  0  0  0  0
 89 91  1  0  0  0  0
 81 92  2  0  0  0  0
 92 93  1  0  0  0  0
 80 94  1  0  0  0  0
 94 95  2  0  0  0  0
 95 96  1  0  0  0  0
 95 97  1  0  0  0  0
 97 98  1  0  0  0  0
 98 99  1  0  0  0  0
 99100  2  0  0  0  0
100101  1  0  0  0  0
101102  1  0  0  0  0
102103  2  0  0  0  0
100104  1  0  0  0  0
104105  1  0  0  0  0
 99106  1  0  0  0  0
106107  1  0  0  0  0
107108  1  0  0  0  0
108109  2  0  0  0  0
109110  1  0  0  0  0
110111  1  0  0  0  0
111112  2  0  0  0  0
109113  1  0  0  0  0
113114  1  0  0  0  0
108115  1  0  0  0  0
115116  2  0  0  0  0
116117  1  0  0  0  0
117118  2  0  0  0  0
118119  1  0  0  0  0
119120  2  0  0  0  0
120121  1  0  0  0  0
121122  2  0  0  0  0
122123  1  0  0  0  0
123124  1  0  0  0  0
124125  1  0  0  0  0
122126  1  0  0  0  0
126127  1  0  0  0  0
126128  2  0  0  0  0
118129  1  0  0  0  0
129130  2  0  0  0  0
130131  1  0  0  0  0
131132  1  0  0  0  0
132133  2  0  0  0  0
133134  1  0  0  0  0
134135  2  0  0  0  0
135136  1  0  0  0  0
136137  1  0  0  0  0
137138  1  0  0  0  0
135139  1  0  0  0  0
139140  2  0  0  0  0
139141  1  0  0  0  0
131142  2  0  0  0  0
142143  1  0  0  0  0
130144  1  0  0  0  0
144145  2  0  0  0  0
145146  1  0  0  0  0
 29  1  1  0  0  0  0
 61 33  1  0  0  0  0
 93 65  1  0  0  0  0
101 97  2  0  0  0  0
110106  2  0  0  0  0
143115  1  0  0  0  0
 28  3  1  0  0  0  0
 60 35  1  0  0  0  0
 92 67  1  0  0  0  0
142117  1  0  0  0  0
 14  5  1  0  0  0  0
 32 15  1  0  0  0  0
 46 37  1  0  0  0  0
 64 47  1  0  0  0  0
 78 69  1  0  0  0  0
 96 79  1  0  0  0  0
128119  1  0  0  0  0
146129  1  0  0  0  0
 26 18  1  0  0  0  0
 58 50  1  0  0  0  0
 90 82  1  0  0  0  0
140132  1  0  0  0  0
  1147  1  0  0  0  0
  2148  1  0  0  0  0
  6149  1  0  0  0  0
  7150  1  0  0  0  0
 10151  1  0  0  0  0
 10152  1  0  0  0  0
 11153  1  0  0  0  0
 11154  1  0  0  0  0
 11155  1  0  0  0  0
 14156  1  0  0  0  0
 19157  1  0  0  0  0
 20158  1  0  0  0  0
 23159  1  0  0  0  0
 23160  1  0  0  0  0
 24161  1  0  0  0  0
 24162  1  0  0  0  0
 24163  1  0  0  0  0
 26164  1  0  0  0  0
 30165  1  0  0  0  0
 34166  1  0  0  0  0
 38167  1  0  0  0  0
 39168  1  0  0  0  0
 42169  1  0  0  0  0
 42170  1  0  0  0  0
 43171  1  0  0  0  0
 43172  1  0  0  0  0
 43173  1  0  0  0  0
 46174  1  0  0  0  0
 51175  1  0  0  0  0
 52176  1  0  0  0  0
 55177  1  0  0  0  0
 55178  1  0  0  0  0
 56179  1  0  0  0  0
 56180  1  0  0  0  0
 56181  1  0  0  0  0
 58182  1  0  0  0  0
 62183  1  0  0  0  0
 66184  1  0  0  0  0
 70185  1  0  0  0  0
 71186  1  0  0  0  0
 74187  1  0  0  0  0
 74188  1  0  0  0  0
 75189  1  0  0  0  0
 75190  1  0  0  0  0
 75191  1  0  0  0  0
 78192  1  0  0  0  0
 83193  1  0  0  0  0
 84194  1  0  0  0  0
 87195  1  0  0  0  0
 87196  1  0  0  0  0
 88197  1  0  0  0  0
 88198  1  0  0  0  0
 88199  1  0  0  0  0
 90200  1  0  0  0  0
 94201  1  0  0  0  0
102202  1  0  0  0  0
103203  1  0  0  0  0
103204  1  0  0  0  0
105205  1  0  0  0  0
105206  1  0  0  0  0
105207  1  0  0  0  0
111208  1  0  0  0  0
112209  1  0  0  0  0
112210  1  0  0  0  0
114211  1  0  0  0  0
114212  1  0  0  0  0
114213  1  0  0  0  0
116214  1  0  0  0  0
120215  1  0  0  0  0
121216  1  0  0  0  0
124217  1  0  0  0  0
124218  1  0  0  0  0
125219  1  0  0  0  0
125220  1  0  0  0  0
125221  1  0  0  0  0
128222  1  0  0  0  0
133223  1  0  0  0  0
134224  1  0  0  0  0
137225  1  0  0  0  0
137226  1  0  0  0  0
138227  1  0  0  0  0
138228  1  0  0  0  0
138229  1  0  0  0  0
140230  1  0  0  0  0
144231  1  0  0  0  0
145232  1  0  0  0  0
M  END
