228

C         -0.41510      -18.71080        7.89900
C          0.39550      -18.20270        6.94860
C         -0.12560      -17.01630        6.35570
C          0.45810      -16.20330        5.37330
C          1.80040      -16.44230        4.86760
S          2.13050      -16.50760        3.16270
C          3.83110      -16.70280        3.41910
C          4.77490      -16.75910        2.26940
C          4.99050      -15.36420        1.67690
C          4.11040      -16.71360        4.75290
Cl         5.69070      -16.87880        5.40230
C          2.96180      -16.57000        5.57760
Cl         3.06160      -16.47560        7.28850
C         -0.28460      -15.11540        4.93290
C         -1.55320      -14.77680        5.46140
C         -2.12810      -15.57860        6.46120
C         -3.42240      -15.25460        7.03960
S         -3.72470      -13.69970        7.75820
C         -5.34380      -14.12740        8.19370
C         -6.21310      -13.18710        8.95290
C         -5.95230      -13.29900       10.45700
C         -5.61740      -15.40340        7.80170
C         -4.53300      -16.04450        7.14410
Cl        -4.66230      -17.61950        6.48190
Cl        -7.12620      -16.17970        8.05660
C         -1.39780      -16.68410        6.88240
S         -1.86830      -17.80330        8.12940
C         -2.08170      -13.60710        4.85710
C         -1.25780      -13.06500        3.91750
S          0.22720      -13.97530        3.72450
C         -1.44540      -11.88800        3.13570
C         -0.63460      -11.44420        2.13470
C         -1.03920      -10.20570        1.58290
C         -0.39260       -9.45490        0.58490
C          0.87700       -9.89260        0.03060
S          1.11740      -10.03100       -1.68560
C          2.73920      -10.59900       -1.49120
C          3.56850      -10.99530       -2.66240
C          3.38050      -12.47930       -2.98720
C          3.06140      -10.67230       -0.16850
Cl         4.58470      -11.20360        0.41630
C          2.01240      -10.26550        0.69780
Cl         2.21100      -10.17680        2.40120
C         -1.01700       -8.28460        0.17690
C         -2.23040       -7.82840        0.74760
C         -2.84130       -8.54350        1.79400
C         -4.03340       -8.02600        2.44360
S         -5.45120       -9.00960        2.65840
C         -6.33200       -7.71930        3.40140
C         -7.75250       -7.88530        3.81550
C         -8.70310       -7.50230        2.67840
C         -5.56010       -6.59800        3.46990
C         -4.25460       -6.76870        2.93850
Cl        -3.07140       -5.52410        3.01410
Cl        -6.09350       -5.10770        4.13330
C         -2.23730       -9.73370        2.17390
S         -2.79180      -10.80620        3.43020
C         -2.66410       -6.61810        0.16050
C         -1.79530       -6.11830       -0.76560
S         -0.42070       -7.16970       -1.02070
C         -1.90920       -4.84210       -1.39620
C         -2.69070       -3.81840       -0.94380
C         -2.57250       -2.63470       -1.70580
C         -3.15860       -1.38340       -1.43710
C         -4.05040       -1.20260       -0.30310
S         -5.40700       -2.26530       -0.04960
C         -5.89120       -1.44430        1.39440
C         -7.09800       -1.86770        2.15590
C         -8.37100       -1.27950        1.54370
C         -5.05140       -0.40130        1.64390
Cl        -5.21240        0.65740        2.98390
C         -4.00380       -0.26550        0.69290
Cl        -2.76490        0.90350        0.88030
C         -2.81170       -0.33940       -2.28330
C         -1.90910       -0.49580       -3.36600
C         -1.31160       -1.74280       -3.62290
C         -0.33320       -1.88610       -4.68770
S          1.01540       -0.79100       -4.79820
C          1.62520       -1.55410       -6.22640
C          2.83450       -1.02270       -6.91370
C          2.65120        0.44270       -7.31030
C          0.82810       -2.60310       -6.57500
C         -0.27840       -2.79890       -5.70330
Cl        -1.46160       -4.00690       -5.98050
Cl         1.10240       -3.60760       -7.93980
C         -1.66130       -2.79050       -2.78060
S         -0.98530       -4.39480       -2.80930
C         -1.70470        0.72060       -4.05880
C         -2.38320        1.77390       -3.52260
S         -3.38720        1.29840       -2.17120
C         -2.20570        3.15130       -3.83440
C         -2.62730        4.21730       -3.09680
C         -2.07580        5.44950       -3.51930
C         -2.25020        6.72070       -2.94110
C         -3.03030        6.87510       -1.72520
S         -2.73170        5.83510       -0.35870
C         -3.95300        6.60190        0.59770
C         -4.25810        6.11400        1.97100
C         -4.76910        4.67250        1.94680
C         -4.54320        7.60500       -0.11080
Cl        -5.80170        8.60190        0.49930
C         -4.01950        7.76820       -1.42340
Cl        -4.65240        8.91970       -2.52220
C         -1.57600        7.77790       -3.53620
C         -0.73040        7.61820       -4.66420
C         -0.55060        6.34640       -5.23410
C          0.33250        6.13350       -6.36970
S          0.12100        7.02200       -7.85070
C          1.41850        6.18540       -8.63270
C          1.76310        6.45150      -10.05630
C          0.88480        5.62100      -10.99520
C          1.96960        5.27290       -7.78440
C          1.36390        5.24500       -6.49940
Cl         1.95610        4.25110       -5.23420
Cl         3.27720        4.24480       -8.20380
C         -1.23340        5.29000       -4.64580
S         -1.15970        3.62770       -5.15380
C         -0.05160        8.81640       -4.99310
C         -0.34150        9.85380       -4.15490
S         -1.52260        9.41140       -2.94320
C          0.25910       11.14360       -4.08950
N          1.28760       11.53720       -4.89270
C          1.77630       12.72860       -4.46300
C          1.00860       13.13850       -3.37980
C          0.06200       12.14590       -3.14400
C          2.92330       13.36480       -5.08430
C          2.90730       13.36670       -6.57970
O          2.51390       12.40580       -7.21390
N          3.37240       14.48660       -7.17210
C          3.99870       13.81930       -4.40080
C          4.27550       13.55070       -3.01900
C          3.75850       12.56810       -2.22920
C          4.31650       12.51190       -0.93370
C          3.94530       11.65090        0.11220
C          2.91930       10.63940       -0.08690
S          1.52910       10.55490        0.95270
C          0.85510        9.21940        0.08210
C         -0.42780        8.59160        0.50240
C         -1.52110        9.62490        0.75870
C          1.67290        8.86980       -0.95070
Cl         1.36600        7.56440       -2.02800
C          2.83800        9.67650       -1.05450
Cl         4.04360        9.38950       -2.24260
C          4.59120       11.83520        1.32740
C          5.59370       12.81580        1.52460
C          5.94910       13.68590        0.48030
C          6.93400       14.73770        0.67420
S          8.30880       14.89950       -0.37630
C          8.90310       16.27680        0.48640
C         10.13120       16.99240        0.04370
C          9.80860       17.98820       -1.07290
C          8.06570       16.58980        1.51530
C          6.95140       15.71590        1.62900
Cl         5.72110       15.93260        2.80670
Cl         8.31660       17.90570        2.58850
C          5.30620       13.50380       -0.73670
S          5.52400       14.45930       -2.17620
C          6.14720       12.73950        2.83620
C          5.58050       11.77450        3.58860
S          4.34560       10.88560        2.76580
H         -0.26020      -19.58800        8.49630
H          1.32940      -18.64790        6.65950
H          5.72660      -17.16450        2.61680
H          4.37260      -17.42040        1.49940
H          4.04490      -14.94960        1.33530
H          5.41060      -14.69650        2.42470
H          5.67480      -15.41730        0.83430
H         -7.25680      -13.42870        8.74380
H         -6.01600      -12.16510        8.62460
H         -6.59310      -12.60950       10.99990
H         -4.91480      -13.06030       10.67840
H         -6.15730      -14.30980       10.80030
H         -3.03780      -13.18180        5.10360
H          0.22180      -11.99980        1.79910
H          4.61820      -10.80410       -2.43060
H          3.28440      -10.39320       -3.52660
H          3.99430      -12.75480       -3.84040
H          2.33950      -12.68470       -3.22440
H          3.67100      -13.09030       -2.13640
H         -7.92550       -8.92380        4.10130
H         -7.94410       -7.24610        4.67980
H         -8.54980       -6.46500        2.39240
H         -8.52650       -8.13260        1.81040
H         -9.73440       -7.62730        2.99700
H         -3.59570       -6.14290        0.40120
H         -3.29870       -3.89710       -0.06300
H         -7.16290       -2.95730        2.15400
H         -6.99570       -1.52720        3.18800
H         -9.24010       -1.59780        2.11290
H         -8.48440       -1.61410        0.51510
H         -8.32620       -0.19340        1.55330
H          3.02310       -1.63140       -7.79950
H          3.69820       -1.10840       -6.24870
H          3.54100        0.80770       -7.81630
H          1.80170        0.55210       -7.98040
H          2.47710        1.05600       -6.42900
H         -1.05230        0.83360       -4.90480
H         -3.28940        4.10400       -2.25830
H         -3.35430        6.16290        2.58370
H         -5.00990        6.77040        2.41220
H         -4.99240        4.33770        2.95620
H         -4.01850        4.01140        1.51980
H         -5.67450        4.60050        1.34900
H          1.62360        7.51240      -10.27090
H          2.81240        6.19600      -10.21620
H          1.02270        4.56060      -10.79980
H          1.14960        5.82250      -12.02970
H         -0.16380        5.86840      -10.84800
H          0.65390        8.88650       -5.80080
H          1.62640       11.08030       -5.72700
H          1.14060       14.04660       -2.82650
H         -0.68230       12.13550       -2.37240
H          3.37980       14.53350       -8.17790
H          3.62780       15.30210       -6.64580
H          4.77970       14.35050       -4.92960
H          3.00100       11.88720       -2.55880
H         -0.25880        8.01320        1.41580
H         -0.73880        7.89910       -0.28080
H         -2.42850        9.13300        1.09830
H         -1.20090       10.33180        1.52050
H         -1.74540       10.17100       -0.15370
H         10.55460       17.52370        0.89790
H         10.86330       16.26780       -0.31690
H         10.71260       18.50280       -1.38700
H          9.09070       18.72590       -0.72350
H          9.38490       17.46890       -1.92920
H          6.94160       13.37450        3.18210
H          5.81020       11.51170        4.60270
