
  xtb     03032203423D
 energy: -451.452783510474 gnorm: 0.000388153412 xtb: 6.4.1 (unknown)
228253  0     0  0            999 V2000
   -0.4151  -18.7108    7.8990 C   0  0  0  0  0  0  0  0  0  0  0  0
    0.3955  -18.2027    6.9486 C   0  0  0  0  0  0  0  0  0  0  0  0
   -0.1256  -17.0163    6.3557 C   0  0  0  0  0  0  0  0  0  0  0  0
    0.4581  -16.2033    5.3733 C   0  0  0  0  0  0  0  0  0  0  0  0
    1.8004  -16.4423    4.8676 C   0  0  0  0  0  0  0  0  0  0  0  0
    2.1305  -16.5076    3.1627 S   0  0  0  0  0  0  0  0  0  0  0  0
    3.8311  -16.7028    3.4191 C   0  0  0  0  0  0  0  0  0  0  0  0
    4.7749  -16.7591    2.2694 C   0  0  0  0  0  0  0  0  0  0  0  0
    4.9905  -15.3642    1.6769 C   0  0  0  0  0  0  0  0  0  0  0  0
    4.1104  -16.7136    4.7529 C   0  0  0  0  0  0  0  0  0  0  0  0
    5.6907  -16.8788    5.4023 Cl  0  0  0  0  0  0  0  0  0  0  0  0
    2.9618  -16.5700    5.5776 C   0  0  0  0  0  0  0  0  0  0  0  0
    3.0616  -16.4756    7.2885 Cl  0  0  0  0  0  0  0  0  0  0  0  0
   -0.2846  -15.1154    4.9329 C   0  0  0  0  0  0  0  0  0  0  0  0
   -1.5532  -14.7768    5.4614 C   0  0  0  0  0  0  0  0  0  0  0  0
   -2.1281  -15.5786    6.4612 C   0  0  0  0  0  0  0  0  0  0  0  0
   -3.4224  -15.2546    7.0396 C   0  0  0  0  0  0  0  0  0  0  0  0
   -3.7247  -13.6997    7.7582 S   0  0  0  0  0  0  0  0  0  0  0  0
   -5.3438  -14.1274    8.1937 C   0  0  0  0  0  0  0  0  0  0  0  0
   -6.2131  -13.1871    8.9529 C   0  0  0  0  0  0  0  0  0  0  0  0
   -5.9523  -13.2990   10.4570 C   0  0  0  0  0  0  0  0  0  0  0  0
   -5.6174  -15.4034    7.8017 C   0  0  0  0  0  0  0  0  0  0  0  0
   -4.5330  -16.0445    7.1441 C   0  0  0  0  0  0  0  0  0  0  0  0
   -4.6623  -17.6195    6.4819 Cl  0  0  0  0  0  0  0  0  0  0  0  0
   -7.1262  -16.1797    8.0566 Cl  0  0  0  0  0  0  0  0  0  0  0  0
   -1.3978  -16.6841    6.8824 C   0  0  0  0  0  0  0  0  0  0  0  0
   -1.8683  -17.8033    8.1294 S   0  0  0  0  0  0  0  0  0  0  0  0
   -2.0817  -13.6071    4.8571 C   0  0  0  0  0  0  0  0  0  0  0  0
   -1.2578  -13.0650    3.9175 C   0  0  0  0  0  0  0  0  0  0  0  0
    0.2272  -13.9753    3.7245 S   0  0  0  0  0  0  0  0  0  0  0  0
   -1.4454  -11.8880    3.1357 C   0  0  0  0  0  0  0  0  0  0  0  0
   -0.6346  -11.4442    2.1347 C   0  0  0  0  0  0  0  0  0  0  0  0
   -1.0392  -10.2057    1.5829 C   0  0  0  0  0  0  0  0  0  0  0  0
   -0.3926   -9.4549    0.5849 C   0  0  0  0  0  0  0  0  0  0  0  0
    0.8770   -9.8926    0.0306 C   0  0  0  0  0  0  0  0  0  0  0  0
    1.1174  -10.0310   -1.6856 S   0  0  0  0  0  0  0  0  0  0  0  0
    2.7392  -10.5990   -1.4912 C   0  0  0  0  0  0  0  0  0  0  0  0
    3.5685  -10.9953   -2.6624 C   0  0  0  0  0  0  0  0  0  0  0  0
    3.3805  -12.4793   -2.9872 C   0  0  0  0  0  0  0  0  0  0  0  0
    3.0614  -10.6723   -0.1685 C   0  0  0  0  0  0  0  0  0  0  0  0
    4.5847  -11.2036    0.4163 Cl  0  0  0  0  0  0  0  0  0  0  0  0
    2.0124  -10.2655    0.6978 C   0  0  0  0  0  0  0  0  0  0  0  0
    2.2110  -10.1768    2.4012 Cl  0  0  0  0  0  0  0  0  0  0  0  0
   -1.0170   -8.2846    0.1769 C   0  0  0  0  0  0  0  0  0  0  0  0
   -2.2304   -7.8284    0.7476 C   0  0  0  0  0  0  0  0  0  0  0  0
   -2.8413   -8.5435    1.7940 C   0  0  0  0  0  0  0  0  0  0  0  0
   -4.0334   -8.0260    2.4436 C   0  0  0  0  0  0  0  0  0  0  0  0
   -5.4512   -9.0096    2.6584 S   0  0  0  0  0  0  0  0  0  0  0  0
   -6.3320   -7.7193    3.4014 C   0  0  0  0  0  0  0  0  0  0  0  0
   -7.7525   -7.8853    3.8155 C   0  0  0  0  0  0  0  0  0  0  0  0
   -8.7031   -7.5023    2.6784 C   0  0  0  0  0  0  0  0  0  0  0  0
   -5.5601   -6.5980    3.4699 C   0  0  0  0  0  0  0  0  0  0  0  0
   -4.2546   -6.7687    2.9385 C   0  0  0  0  0  0  0  0  0  0  0  0
   -3.0714   -5.5241    3.0141 Cl  0  0  0  0  0  0  0  0  0  0  0  0
   -6.0935   -5.1077    4.1333 Cl  0  0  0  0  0  0  0  0  0  0  0  0
   -2.2373   -9.7337    2.1739 C   0  0  0  0  0  0  0  0  0  0  0  0
   -2.7918  -10.8062    3.4302 S   0  0  0  0  0  0  0  0  0  0  0  0
   -2.6641   -6.6181    0.1605 C   0  0  0  0  0  0  0  0  0  0  0  0
   -1.7953   -6.1183   -0.7656 C   0  0  0  0  0  0  0  0  0  0  0  0
   -0.4207   -7.1697   -1.0207 S   0  0  0  0  0  0  0  0  0  0  0  0
   -1.9092   -4.8421   -1.3962 C   0  0  0  0  0  0  0  0  0  0  0  0
   -2.6907   -3.8184   -0.9438 C   0  0  0  0  0  0  0  0  0  0  0  0
   -2.5725   -2.6347   -1.7058 C   0  0  0  0  0  0  0  0  0  0  0  0
   -3.1586   -1.3834   -1.4371 C   0  0  0  0  0  0  0  0  0  0  0  0
   -4.0504   -1.2026   -0.3031 C   0  0  0  0  0  0  0  0  0  0  0  0
   -5.4070   -2.2653   -0.0496 S   0  0  0  0  0  0  0  0  0  0  0  0
   -5.8912   -1.4443    1.3944 C   0  0  0  0  0  0  0  0  0  0  0  0
   -7.0980   -1.8677    2.1559 C   0  0  0  0  0  0  0  0  0  0  0  0
   -8.3710   -1.2795    1.5437 C   0  0  0  0  0  0  0  0  0  0  0  0
   -5.0514   -0.4013    1.6439 C   0  0  0  0  0  0  0  0  0  0  0  0
   -5.2124    0.6574    2.9839 Cl  0  0  0  0  0  0  0  0  0  0  0  0
   -4.0038   -0.2655    0.6929 C   0  0  0  0  0  0  0  0  0  0  0  0
   -2.7649    0.9035    0.8803 Cl  0  0  0  0  0  0  0  0  0  0  0  0
   -2.8117   -0.3394   -2.2833 C   0  0  0  0  0  0  0  0  0  0  0  0
   -1.9091   -0.4958   -3.3660 C   0  0  0  0  0  0  0  0  0  0  0  0
   -1.3116   -1.7428   -3.6229 C   0  0  0  0  0  0  0  0  0  0  0  0
   -0.3332   -1.8861   -4.6877 C   0  0  0  0  0  0  0  0  0  0  0  0
    1.0154   -0.7910   -4.7982 S   0  0  0  0  0  0  0  0  0  0  0  0
    1.6252   -1.5541   -6.2264 C   0  0  0  0  0  0  0  0  0  0  0  0
    2.8345   -1.0227   -6.9137 C   0  0  0  0  0  0  0  0  0  0  0  0
    2.6512    0.4427   -7.3103 C   0  0  0  0  0  0  0  0  0  0  0  0
    0.8281   -2.6031   -6.5750 C   0  0  0  0  0  0  0  0  0  0  0  0
   -0.2784   -2.7989   -5.7033 C   0  0  0  0  0  0  0  0  0  0  0  0
   -1.4616   -4.0069   -5.9805 Cl  0  0  0  0  0  0  0  0  0  0  0  0
    1.1024   -3.6076   -7.9398 Cl  0  0  0  0  0  0  0  0  0  0  0  0
   -1.6613   -2.7905   -2.7806 C   0  0  0  0  0  0  0  0  0  0  0  0
   -0.9853   -4.3948   -2.8093 S   0  0  0  0  0  0  0  0  0  0  0  0
   -1.7047    0.7206   -4.0588 C   0  0  0  0  0  0  0  0  0  0  0  0
   -2.3832    1.7739   -3.5226 C   0  0  0  0  0  0  0  0  0  0  0  0
   -3.3872    1.2984   -2.1712 S   0  0  0  0  0  0  0  0  0  0  0  0
   -2.2057    3.1513   -3.8344 C   0  0  0  0  0  0  0  0  0  0  0  0
   -2.6273    4.2173   -3.0968 C   0  0  0  0  0  0  0  0  0  0  0  0
   -2.0758    5.4495   -3.5193 C   0  0  0  0  0  0  0  0  0  0  0  0
   -2.2502    6.7207   -2.9411 C   0  0  0  0  0  0  0  0  0  0  0  0
   -3.0303    6.8751   -1.7252 C   0  0  0  0  0  0  0  0  0  0  0  0
   -2.7317    5.8351   -0.3587 S   0  0  0  0  0  0  0  0  0  0  0  0
   -3.9530    6.6019    0.5977 C   0  0  0  0  0  0  0  0  0  0  0  0
   -4.2581    6.1140    1.9710 C   0  0  0  0  0  0  0  0  0  0  0  0
   -4.7691    4.6725    1.9468 C   0  0  0  0  0  0  0  0  0  0  0  0
   -4.5432    7.6050   -0.1108 C   0  0  0  0  0  0  0  0  0  0  0  0
   -5.8017    8.6019    0.4993 Cl  0  0  0  0  0  0  0  0  0  0  0  0
   -4.0195    7.7682   -1.4234 C   0  0  0  0  0  0  0  0  0  0  0  0
   -4.6524    8.9197   -2.5222 Cl  0  0  0  0  0  0  0  0  0  0  0  0
   -1.5760    7.7779   -3.5362 C   0  0  0  0  0  0  0  0  0  0  0  0
   -0.7304    7.6182   -4.6642 C   0  0  0  0  0  0  0  0  0  0  0  0
   -0.5506    6.3464   -5.2341 C   0  0  0  0  0  0  0  0  0  0  0  0
    0.3325    6.1335   -6.3697 C   0  0  0  0  0  0  0  0  0  0  0  0
    0.1210    7.0220   -7.8507 S   0  0  0  0  0  0  0  0  0  0  0  0
    1.4185    6.1854   -8.6327 C   0  0  0  0  0  0  0  0  0  0  0  0
    1.7631    6.4515  -10.0563 C   0  0  0  0  0  0  0  0  0  0  0  0
    0.8848    5.6210  -10.9952 C   0  0  0  0  0  0  0  0  0  0  0  0
    1.9696    5.2729   -7.7844 C   0  0  0  0  0  0  0  0  0  0  0  0
    1.3639    5.2450   -6.4994 C   0  0  0  0  0  0  0  0  0  0  0  0
    1.9561    4.2511   -5.2342 Cl  0  0  0  0  0  0  0  0  0  0  0  0
    3.2772    4.2448   -8.2038 Cl  0  0  0  0  0  0  0  0  0  0  0  0
   -1.2334    5.2900   -4.6458 C   0  0  0  0  0  0  0  0  0  0  0  0
   -1.1597    3.6277   -5.1538 S   0  0  0  0  0  0  0  0  0  0  0  0
   -0.0516    8.8164   -4.9931 C   0  0  0  0  0  0  0  0  0  0  0  0
   -0.3415    9.8538   -4.1549 C   0  0  0  0  0  0  0  0  0  0  0  0
   -1.5226    9.4114   -2.9432 S   0  0  0  0  0  0  0  0  0  0  0  0
    0.2591   11.1436   -4.0895 C   0  0  0  0  0  0  0  0  0  0  0  0
    1.2876   11.5372   -4.8927 N   0  0  0  0  0  0  0  0  0  0  0  0
    1.7763   12.7286   -4.4630 C   0  0  0  0  0  0  0  0  0  0  0  0
    1.0086   13.1385   -3.3798 C   0  0  0  0  0  0  0  0  0  0  0  0
    0.0620   12.1459   -3.1440 C   0  0  0  0  0  0  0  0  0  0  0  0
    2.9233   13.3648   -5.0843 C   0  0  0  0  0  0  0  0  0  0  0  0
    2.9073   13.3667   -6.5797 C   0  0  0  0  0  0  0  0  0  0  0  0
    2.5139   12.4058   -7.2139 O   0  0  0  0  0  0  0  0  0  0  0  0
    3.3724   14.4866   -7.1721 N   0  0  0  0  0  0  0  0  0  0  0  0
    3.9987   13.8193   -4.4008 C   0  0  0  0  0  0  0  0  0  0  0  0
    4.2755   13.5507   -3.0190 C   0  0  0  0  0  0  0  0  0  0  0  0
    3.7585   12.5681   -2.2292 C   0  0  0  0  0  0  0  0  0  0  0  0
    4.3165   12.5119   -0.9337 C   0  0  0  0  0  0  0  0  0  0  0  0
    3.9453   11.6509    0.1122 C   0  0  0  0  0  0  0  0  0  0  0  0
    2.9193   10.6394   -0.0869 C   0  0  0  0  0  0  0  0  0  0  0  0
    1.5291   10.5549    0.9527 S   0  0  0  0  0  0  0  0  0  0  0  0
    0.8551    9.2194    0.0821 C   0  0  0  0  0  0  0  0  0  0  0  0
   -0.4278    8.5916    0.5024 C   0  0  0  0  0  0  0  0  0  0  0  0
   -1.5211    9.6249    0.7587 C   0  0  0  0  0  0  0  0  0  0  0  0
    1.6729    8.8698   -0.9507 C   0  0  0  0  0  0  0  0  0  0  0  0
    1.3660    7.5644   -2.0280 Cl  0  0  0  0  0  0  0  0  0  0  0  0
    2.8380    9.6765   -1.0545 C   0  0  0  0  0  0  0  0  0  0  0  0
    4.0436    9.3895   -2.2426 Cl  0  0  0  0  0  0  0  0  0  0  0  0
    4.5912   11.8352    1.3274 C   0  0  0  0  0  0  0  0  0  0  0  0
    5.5937   12.8158    1.5246 C   0  0  0  0  0  0  0  0  0  0  0  0
    5.9491   13.6859    0.4803 C   0  0  0  0  0  0  0  0  0  0  0  0
    6.9340   14.7377    0.6742 C   0  0  0  0  0  0  0  0  0  0  0  0
    8.3088   14.8995   -0.3763 S   0  0  0  0  0  0  0  0  0  0  0  0
    8.9031   16.2768    0.4864 C   0  0  0  0  0  0  0  0  0  0  0  0
   10.1312   16.9924    0.0437 C   0  0  0  0  0  0  0  0  0  0  0  0
    9.8086   17.9882   -1.0729 C   0  0  0  0  0  0  0  0  0  0  0  0
    8.0657   16.5898    1.5153 C   0  0  0  0  0  0  0  0  0  0  0  0
    6.9514   15.7159    1.6290 C   0  0  0  0  0  0  0  0  0  0  0  0
    5.7211   15.9326    2.8067 Cl  0  0  0  0  0  0  0  0  0  0  0  0
    8.3166   17.9057    2.5885 Cl  0  0  0  0  0  0  0  0  0  0  0  0
    5.3062   13.5038   -0.7367 C   0  0  0  0  0  0  0  0  0  0  0  0
    5.5240   14.4593   -2.1762 S   0  0  0  0  0  0  0  0  0  0  0  0
    6.1472   12.7395    2.8362 C   0  0  0  0  0  0  0  0  0  0  0  0
    5.5805   11.7745    3.5886 C   0  0  0  0  0  0  0  0  0  0  0  0
    4.3456   10.8856    2.7658 S   0  0  0  0  0  0  0  0  0  0  0  0
   -0.2602  -19.5880    8.4963 H   0  0  0  0  0  0  0  0  0  0  0  0
    1.3294  -18.6479    6.6595 H   0  0  0  0  0  0  0  0  0  0  0  0
    5.7266  -17.1645    2.6168 H   0  0  0  0  0  0  0  0  0  0  0  0
    4.3726  -17.4204    1.4994 H   0  0  0  0  0  0  0  0  0  0  0  0
    4.0449  -14.9496    1.3353 H   0  0  0  0  0  0  0  0  0  0  0  0
    5.4106  -14.6965    2.4247 H   0  0  0  0  0  0  0  0  0  0  0  0
    5.6748  -15.4173    0.8343 H   0  0  0  0  0  0  0  0  0  0  0  0
   -7.2568  -13.4287    8.7438 H   0  0  0  0  0  0  0  0  0  0  0  0
   -6.0160  -12.1651    8.6246 H   0  0  0  0  0  0  0  0  0  0  0  0
   -6.5931  -12.6095   10.9999 H   0  0  0  0  0  0  0  0  0  0  0  0
   -4.9148  -13.0603   10.6784 H   0  0  0  0  0  0  0  0  0  0  0  0
   -6.1573  -14.3098   10.8003 H   0  0  0  0  0  0  0  0  0  0  0  0
   -3.0378  -13.1818    5.1036 H   0  0  0  0  0  0  0  0  0  0  0  0
    0.2218  -11.9998    1.7991 H   0  0  0  0  0  0  0  0  0  0  0  0
    4.6182  -10.8041   -2.4306 H   0  0  0  0  0  0  0  0  0  0  0  0
    3.2844  -10.3932   -3.5266 H   0  0  0  0  0  0  0  0  0  0  0  0
    3.9943  -12.7548   -3.8404 H   0  0  0  0  0  0  0  0  0  0  0  0
    2.3395  -12.6847   -3.2244 H   0  0  0  0  0  0  0  0  0  0  0  0
    3.6710  -13.0903   -2.1364 H   0  0  0  0  0  0  0  0  0  0  0  0
   -7.9255   -8.9238    4.1013 H   0  0  0  0  0  0  0  0  0  0  0  0
   -7.9441   -7.2461    4.6798 H   0  0  0  0  0  0  0  0  0  0  0  0
   -8.5498   -6.4650    2.3924 H   0  0  0  0  0  0  0  0  0  0  0  0
   -8.5265   -8.1326    1.8104 H   0  0  0  0  0  0  0  0  0  0  0  0
   -9.7344   -7.6273    2.9970 H   0  0  0  0  0  0  0  0  0  0  0  0
   -3.5957   -6.1429    0.4012 H   0  0  0  0  0  0  0  0  0  0  0  0
   -3.2987   -3.8971   -0.0630 H   0  0  0  0  0  0  0  0  0  0  0  0
   -7.1629   -2.9573    2.1540 H   0  0  0  0  0  0  0  0  0  0  0  0
   -6.9957   -1.5272    3.1880 H   0  0  0  0  0  0  0  0  0  0  0  0
   -9.2401   -1.5978    2.1129 H   0  0  0  0  0  0  0  0  0  0  0  0
   -8.4844   -1.6141    0.5151 H   0  0  0  0  0  0  0  0  0  0  0  0
   -8.3262   -0.1934    1.5533 H   0  0  0  0  0  0  0  0  0  0  0  0
    3.0231   -1.6314   -7.7995 H   0  0  0  0  0  0  0  0  0  0  0  0
    3.6982   -1.1084   -6.2487 H   0  0  0  0  0  0  0  0  0  0  0  0
    3.5410    0.8077   -7.8163 H   0  0  0  0  0  0  0  0  0  0  0  0
    1.8017    0.5521   -7.9804 H   0  0  0  0  0  0  0  0  0  0  0  0
    2.4771    1.0560   -6.4290 H   0  0  0  0  0  0  0  0  0  0  0  0
   -1.0523    0.8336   -4.9048 H   0  0  0  0  0  0  0  0  0  0  0  0
   -3.2894    4.1040   -2.2583 H   0  0  0  0  0  0  0  0  0  0  0  0
   -3.3543    6.1629    2.5837 H   0  0  0  0  0  0  0  0  0  0  0  0
   -5.0099    6.7704    2.4122 H   0  0  0  0  0  0  0  0  0  0  0  0
   -4.9924    4.3377    2.9562 H   0  0  0  0  0  0  0  0  0  0  0  0
   -4.0185    4.0114    1.5198 H   0  0  0  0  0  0  0  0  0  0  0  0
   -5.6745    4.6005    1.3490 H   0  0  0  0  0  0  0  0  0  0  0  0
    1.6236    7.5124  -10.2709 H   0  0  0  0  0  0  0  0  0  0  0  0
    2.8124    6.1960  -10.2162 H   0  0  0  0  0  0  0  0  0  0  0  0
    1.0227    4.5606  -10.7998 H   0  0  0  0  0  0  0  0  0  0  0  0
    1.1496    5.8225  -12.0297 H   0  0  0  0  0  0  0  0  0  0  0  0
   -0.1638    5.8684  -10.8480 H   0  0  0  0  0  0  0  0  0  0  0  0
    0.6539    8.8865   -5.8008 H   0  0  0  0  0  0  0  0  0  0  0  0
    1.6264   11.0803   -5.7270 H   0  0  0  0  0  0  0  0  0  0  0  0
    1.1406   14.0466   -2.8265 H   0  0  0  0  0  0  0  0  0  0  0  0
   -0.6823   12.1355   -2.3724 H   0  0  0  0  0  0  0  0  0  0  0  0
    3.3798   14.5335   -8.1779 H   0  0  0  0  0  0  0  0  0  0  0  0
    3.6278   15.3021   -6.6458 H   0  0  0  0  0  0  0  0  0  0  0  0
    4.7797   14.3505   -4.9296 H   0  0  0  0  0  0  0  0  0  0  0  0
    3.0010   11.8872   -2.5588 H   0  0  0  0  0  0  0  0  0  0  0  0
   -0.2588    8.0132    1.4158 H   0  0  0  0  0  0  0  0  0  0  0  0
   -0.7388    7.8991   -0.2808 H   0  0  0  0  0  0  0  0  0  0  0  0
   -2.4285    9.1330    1.0983 H   0  0  0  0  0  0  0  0  0  0  0  0
   -1.2009   10.3318    1.5205 H   0  0  0  0  0  0  0  0  0  0  0  0
   -1.7454   10.1710   -0.1537 H   0  0  0  0  0  0  0  0  0  0  0  0
   10.5546   17.5237    0.8979 H   0  0  0  0  0  0  0  0  0  0  0  0
   10.8633   16.2678   -0.3169 H   0  0  0  0  0  0  0  0  0  0  0  0
   10.7126   18.5028   -1.3870 H   0  0  0  0  0  0  0  0  0  0  0  0
    9.0907   18.7259   -0.7235 H   0  0  0  0  0  0  0  0  0  0  0  0
    9.3849   17.4689   -1.9292 H   0  0  0  0  0  0  0  0  0  0  0  0
    6.9416   13.3745    3.1821 H   0  0  0  0  0  0  0  0  0  0  0  0
    5.8102   11.5117    4.6027 H   0  0  0  0  0  0  0  0  0  0  0  0
  1  2  2  0  0  0  0
  2  3  1  0  0  0  0
  3  4  2  0  0  0  0
  4  5  1  0  0  0  0
  5  6  1  0  0  0  0
  6  7  1  0  0  0  0
  7  8  1  0  0  0  0
  8  9  1  0  0  0  0
  7 10  2  0  0  0  0
 10 11  1  0  0  0  0
 10 12  1  0  0  0  0
 12 13  1  0  0  0  0
  4 14  1  0  0  0  0
 14 15  2  0  0  0  0
 15 16  1  0  0  0  0
 16 17  1  0  0  0  0
 17 18  1  0  0  0  0
 18 19  1  0  0  0  0
 19 20  1  0  0  0  0
 20 21  1  0  0  0  0
 19 22  2  0  0  0  0
 22 23  1  0  0  0  0
 23 24  1  0  0  0  0
 22 25  1  0  0  0  0
 16 26  2  0  0  0  0
 26 27  1  0  0  0  0
 15 28  1  0  0  0  0
 28 29  2  0  0  0  0
 29 30  1  0  0  0  0
 29 31  1  0  0  0  0
 31 32  2  0  0  0  0
 32 33  1  0  0  0  0
 33 34  2  0  0  0  0
 34 35  1  0  0  0  0
 35 36  1  0  0  0  0
 36 37  1  0  0  0  0
 37 38  1  0  0  0  0
 38 39  1  0  0  0  0
 37 40  2  0  0  0  0
 40 41  1  0  0  0  0
 40 42  1  0  0  0  0
 42 43  1  0  0  0  0
 34 44  1  0  0  0  0
 44 45  2  0  0  0  0
 45 46  1  0  0  0  0
 46 47  1  0  0  0  0
 47 48  1  0  0  0  0
 48 49  1  0  0  0  0
 49 50  1  0  0  0  0
 50 51  1  0  0  0  0
 49 52  2  0  0  0  0
 52 53  1  0  0  0  0
 53 54  1  0  0  0  0
 52 55  1  0  0  0  0
 46 56  2  0  0  0  0
 56 57  1  0  0  0  0
 45 58  1  0  0  0  0
 58 59  2  0  0  0  0
 59 60  1  0  0  0  0
 59 61  1  0  0  0  0
 61 62  2  0  0  0  0
 62 63  1  0  0  0  0
 63 64  2  0  0  0  0
 64 65  1  0  0  0  0
 65 66  1  0  0  0  0
 66 67  1  0  0  0  0
 67 68  1  0  0  0  0
 68 69  1  0  0  0  0
 67 70  2  0  0  0  0
 70 71  1  0  0  0  0
 70 72  1  0  0  0  0
 72 73  1  0  0  0  0
 64 74  1  0  0  0  0
 74 75  2  0  0  0  0
 75 76  1  0  0  0  0
 76 77  1  0  0  0  0
 77 78  1  0  0  0  0
 78 79  1  0  0  0  0
 79 80  1  0  0  0  0
 80 81  1  0  0  0  0
 79 82  2  0  0  0  0
 82 83  1  0  0  0  0
 83 84  1  0  0  0  0
 82 85  1  0  0  0  0
 76 86  2  0  0  0  0
 86 87  1  0  0  0  0
 75 88  1  0  0  0  0
 88 89  2  0  0  0  0
 89 90  1  0  0  0  0
 89 91  1  0  0  0  0
 91 92  2  0  0  0  0
 92 93  1  0  0  0  0
 93 94  2  0  0  0  0
 94 95  1  0  0  0  0
 95 96  1  0  0  0  0
 96 97  1  0  0  0  0
 97 98  1  0  0  0  0
 98 99  1  0  0  0  0
 97100  2  0  0  0  0
100101  1  0  0  0  0
100102  1  0  0  0  0
102103  1  0  0  0  0
 94104  1  0  0  0  0
104105  2  0  0  0  0
105106  1  0  0  0  0
106107  1  0  0  0  0
107108  1  0  0  0  0
108109  1  0  0  0  0
109110  1  0  0  0  0
110111  1  0  0  0  0
109112  2  0  0  0  0
112113  1  0  0  0  0
113114  1  0  0  0  0
112115  1  0  0  0  0
106116  2  0  0  0  0
116117  1  0  0  0  0
105118  1  0  0  0  0
118119  2  0  0  0  0
119120  1  0  0  0  0
119121  1  0  0  0  0
121122  1  0  0  0  0
122123  1  0  0  0  0
123124  2  0  0  0  0
124125  1  0  0  0  0
123126  1  0  0  0  0
126127  1  0  0  0  0
127128  2  0  0  0  0
127129  1  0  0  0  0
126130  2  0  0  0  0
130131  1  0  0  0  0
131132  2  0  0  0  0
132133  1  0  0  0  0
133134  2  0  0  0  0
134135  1  0  0  0  0
135136  1  0  0  0  0
136137  1  0  0  0  0
137138  1  0  0  0  0
138139  1  0  0  0  0
137140  2  0  0  0  0
140141  1  0  0  0  0
140142  1  0  0  0  0
142143  1  0  0  0  0
134144  1  0  0  0  0
144145  2  0  0  0  0
145146  1  0  0  0  0
146147  1  0  0  0  0
147148  1  0  0  0  0
148149  1  0  0  0  0
149150  1  0  0  0  0
150151  1  0  0  0  0
149152  2  0  0  0  0
152153  1  0  0  0  0
153154  1  0  0  0  0
152155  1  0  0  0  0
146156  2  0  0  0  0
156157  1  0  0  0  0
145158  1  0  0  0  0
158159  2  0  0  0  0
159160  1  0  0  0  0
 27  1  1  0  0  0  0
 57 31  1  0  0  0  0
 87 61  1  0  0  0  0
117 91  1  0  0  0  0
125121  2  0  0  0  0
157131  1  0  0  0  0
 26  3  1  0  0  0  0
 56 33  1  0  0  0  0
 86 63  1  0  0  0  0
116 93  1  0  0  0  0
156133  1  0  0  0  0
 12  5  2  0  0  0  0
 30 14  1  0  0  0  0
 42 35  2  0  0  0  0
 60 44  1  0  0  0  0
 72 65  2  0  0  0  0
 90 74  1  0  0  0  0
102 95  2  0  0  0  0
120104  1  0  0  0  0
142135  2  0  0  0  0
160144  1  0  0  0  0
 23 17  2  0  0  0  0
 53 47  2  0  0  0  0
 83 77  2  0  0  0  0
113107  2  0  0  0  0
153147  2  0  0  0  0
  1161  1  0  0  0  0
  2162  1  0  0  0  0
  8163  1  0  0  0  0
  8164  1  0  0  0  0
  9165  1  0  0  0  0
  9166  1  0  0  0  0
  9167  1  0  0  0  0
 20168  1  0  0  0  0
 20169  1  0  0  0  0
 21170  1  0  0  0  0
 21171  1  0  0  0  0
 21172  1  0  0  0  0
 28173  1  0  0  0  0
 32174  1  0  0  0  0
 38175  1  0  0  0  0
 38176  1  0  0  0  0
 39177  1  0  0  0  0
 39178  1  0  0  0  0
 39179  1  0  0  0  0
 50180  1  0  0  0  0
 50181  1  0  0  0  0
 51182  1  0  0  0  0
 51183  1  0  0  0  0
 51184  1  0  0  0  0
 58185  1  0  0  0  0
 62186  1  0  0  0  0
 68187  1  0  0  0  0
 68188  1  0  0  0  0
 69189  1  0  0  0  0
 69190  1  0  0  0  0
 69191  1  0  0  0  0
 80192  1  0  0  0  0
 80193  1  0  0  0  0
 81194  1  0  0  0  0
 81195  1  0  0  0  0
 81196  1  0  0  0  0
 88197  1  0  0  0  0
 92198  1  0  0  0  0
 98199  1  0  0  0  0
 98200  1  0  0  0  0
 99201  1  0  0  0  0
 99202  1  0  0  0  0
 99203  1  0  0  0  0
110204  1  0  0  0  0
110205  1  0  0  0  0
111206  1  0  0  0  0
111207  1  0  0  0  0
111208  1  0  0  0  0
118209  1  0  0  0  0
122210  1  0  0  0  0
124211  1  0  0  0  0
125212  1  0  0  0  0
129213  1  0  0  0  0
129214  1  0  0  0  0
130215  1  0  0  0  0
132216  1  0  0  0  0
138217  1  0  0  0  0
138218  1  0  0  0  0
139219  1  0  0  0  0
139220  1  0  0  0  0
139221  1  0  0  0  0
150222  1  0  0  0  0
150223  1  0  0  0  0
151224  1  0  0  0  0
151225  1  0  0  0  0
151226  1  0  0  0  0
158227  1  0  0  0  0
159228  1  0  0  0  0
M  END
