229

C          4.69430       -5.74480       11.81960
C          5.23730       -4.54370       11.53570
C          4.61580       -3.90560       10.42270
C          4.92900       -2.66690        9.84070
C          5.93300       -1.79100       10.42250
S          7.24980       -1.15800        9.48170
C          7.89100       -0.28060       10.82800
C          9.15330        0.50080       10.71310
C         10.36860       -0.37340       11.03200
C          7.12100       -0.47980       11.93500
Cl         7.44110        0.23260       13.46320
C          6.00760       -1.33210       11.70840
Cl         4.84140       -1.67330       12.92120
C          4.22030       -2.30740        8.70210
C          3.19810       -3.11240        8.14380
C          2.87150       -4.34330        8.73700
C          1.83210       -5.19160        8.18080
S          0.53400       -5.79870        9.16470
C         -0.19180       -6.62610        7.83080
C         -1.47490       -7.36580        7.98280
C         -2.67030       -6.44140        7.73820
C          0.53760       -6.43100        6.69550
C          1.68800       -5.62160        6.89020
Cl         2.82000       -5.30350        5.64310
Cl         0.12400       -7.10590        5.17420
C          3.58680       -4.70510        9.87230
S          3.40270       -6.19190       10.75970
C          2.58470       -2.48640        7.02950
C          3.11210       -1.26670        6.73240
S          4.40230       -0.81200        7.82810
C          2.69900       -0.37520        5.69800
C          3.00180        0.94650        5.56800
C          2.36040        1.56720        4.46740
C          2.41400        2.91920        4.09070
C          3.23640        3.87260        4.81830
S          4.94000        3.59930        5.04020
C          5.14760        5.08630        5.90000
C          6.48960        5.52440        6.37250
C          7.25120        6.24950        5.26040
C          3.95950        5.74650        5.99620
Cl         3.76640        7.25880        6.78360
C          2.87330        5.06070        5.38850
Cl         1.26490        5.64610        5.45980
C          1.65040        3.29660        2.99300
C          0.86550        2.37900        2.25390
C          0.79020        1.03090        2.64330
C         -0.06360        0.08410        1.93940
S          0.05590       -0.16040        0.21990
C         -1.22920       -1.31740        0.20910
C         -1.69040       -1.97090       -1.04700
C         -1.17590       -3.40570       -1.16000
C         -1.70250       -1.50560        1.47330
C         -1.05010       -0.71230        2.45390
Cl        -1.54730       -0.70340        4.09450
Cl        -2.98080       -2.58100        1.86240
C          1.54190        0.65870        3.75080
S          1.62440       -0.93820        4.43630
C          0.17830        3.02120        1.19050
C          0.41350        4.35590        1.12000
S          1.52780        4.90850        2.34340
C         -0.27440        5.24380        0.20510
C         -1.34350        6.02460        0.49690
C         -2.03850        6.47980       -0.65830
C         -3.35300        6.97000       -0.71260
C         -4.15240        7.10910        0.50100
S         -4.83390        8.61470        1.02030
C         -5.62290        7.87380        2.37190
C         -6.40300        8.68360        3.34770
C         -5.48840        9.27930        4.42080
C         -5.36120        6.53630        2.40290
Cl        -5.97420        5.46680        3.59590
C         -4.53150        6.09780        1.33690
Cl        -4.09350        4.45550        1.08980
C         -3.95240        7.04250       -1.95830
C         -3.26790        6.72250       -3.15630
C         -1.95550        6.23150       -3.10480
C         -1.36550        5.58650       -4.27770
S          0.00860        6.20020       -5.13490
C          0.00720        4.86650       -6.24140
C          1.04090        4.74970       -7.30620
C          2.33560        4.15250       -6.75000
C         -0.99530        3.99560       -5.93580
C         -1.78330        4.40850       -4.82870
Cl        -3.11420        3.49660       -4.23780
Cl        -1.30170        2.53510       -6.78360
C         -1.38190        6.09140       -1.85030
S          0.04340        5.14830       -1.51550
C         -4.15910        6.52480       -4.24080
C         -5.47110        6.50460       -3.85660
S         -5.68180        7.09510       -2.21520
C         -6.32560        5.47950       -4.40170
C         -6.30860        4.94850       -5.65640
C         -6.41290        3.52950       -5.66420
C         -6.10280        2.64940       -6.71430
C         -5.88040        3.10860       -8.08080
S         -6.85000        2.49520       -9.38690
C         -5.97800        3.40960      -10.56900
C         -6.36060        3.37730      -12.00730
C         -7.49600        4.36220      -12.29540
C         -5.00010        4.14560       -9.97060
Cl        -3.92030        5.17850      -10.81650
C         -4.93880        3.97260       -8.56120
Cl        -3.73850        4.73300       -7.60250
C         -5.89070        1.31800       -6.38090
C         -5.95960        0.82440       -5.05540
C         -6.34670        1.68580       -4.01800
C         -6.29330        1.30290       -2.61240
S         -7.66010        1.49710       -1.55890
C         -6.74340        1.05270       -0.15920
C         -7.35690        1.06590        1.19680
C         -7.35010        2.48020        1.78170
C         -5.45320        0.78270       -0.50460
C         -5.19660        0.91240       -1.89620
Cl        -3.63870        0.66670       -2.57110
Cl        -4.22710        0.35230        0.61740
C         -6.58050        3.00820       -4.35670
S         -6.76080        4.27540       -3.18100
C         -5.47820       -0.50010       -4.95400
C         -5.03670       -1.01720       -6.13980
S         -5.28490        0.10360       -7.47200
C         -4.29420       -2.21900       -6.30250
S         -3.38440       -2.81360       -4.95820
C         -2.59100       -4.03550       -5.89980
C         -3.09300       -4.03840       -7.20990
C         -4.04280       -2.98860       -7.44180
C         -4.64100       -2.84070       -8.70990
C         -4.30920       -3.71550       -9.70050
F         -4.86860       -3.59850      -10.91560
C         -3.40080       -4.77370       -9.46600
F         -3.13880       -5.63570      -10.46290
C         -2.80510       -4.94380       -8.25090
C         -1.52530       -4.72640       -5.27070
C         -0.52820       -5.42870       -5.85660
C          0.58450       -5.95660       -5.14600
C          1.63470       -6.64350       -5.68980
C          2.63760       -6.99070       -4.75470
C          3.83150       -7.69550       -4.98630
C          4.11300       -8.28410       -6.28380
S          5.60560       -7.98550       -7.12310
C          5.14710       -8.98880       -8.45580
C          6.02660       -9.14050       -9.64730
C          5.76860       -8.02540      -10.66380
C          3.90620       -9.51470       -8.25010
Cl         3.11660      -10.56510       -9.35420
C          3.31790       -9.12000       -7.01930
Cl         1.79560       -9.71300       -6.49110
C          4.71240       -7.80770       -3.91820
C          4.42510       -7.30150       -2.62930
C          3.19410       -6.67180       -2.37690
C          2.85420       -6.24100       -1.03040
S          2.38270       -4.61190       -0.65010
C          2.25440       -4.95470        1.04260
C          1.86320       -3.90310        2.02390
C          0.45410       -4.13340        2.57120
C          2.54500       -6.26620        1.27830
C          2.88390       -6.99600        0.10880
Cl         3.22650       -8.67810        0.13850
Cl         2.54360       -6.99390        2.82740
C          2.33850       -6.50720       -3.45650
S          0.79260       -5.71010       -3.41820
C          5.51000       -7.51550       -1.72940
C          6.53820       -8.17740       -2.29710
S          6.27200       -8.58170       -3.95790
H          4.97240       -6.42460       12.60110
H          6.06030       -4.11810       12.07920
H          9.11320        1.33740       11.41330
H          9.24310        0.89440        9.69950
H         10.30020       -0.75730       12.04650
H         11.28150        0.20890       10.94080
H         10.41960       -1.21390       10.34410
H         -1.49550       -8.18560        7.26200
H         -1.53540       -7.78230        8.98940
H         -3.59860       -6.99640        7.84320
H         -2.66830       -5.62420        8.45560
H         -2.62500       -6.02410        6.73550
H          1.76140       -2.90640        6.48140
H          3.64260        1.46280        6.25950
H          6.35860        6.19550        7.22340
H          7.06170        4.65340        6.69690
H          7.39420        5.58890        4.40850
H          8.22450        6.56960        5.62210
H          6.69590        7.12450        4.93240
H         -2.78330       -1.97940       -1.05200
H         -1.34630       -1.38910       -1.90290
H         -1.55610       -3.86180       -2.06930
H         -1.51390       -3.99820       -0.31430
H         -0.08950       -3.42310       -1.19100
H         -0.49410        2.51570        0.52170
H         -1.68000        6.20480        1.50190
H         -6.91720        9.48890        2.82070
H         -7.14860        8.04040        3.81880
H         -6.07230        9.86530        5.12520
H         -4.74120        9.92420        3.96430
H         -4.97930        8.48730        4.96430
H          0.65220        4.10970       -8.10070
H          1.24610        5.73780       -7.72190
H          2.14970        3.16120       -6.34420
H          3.07850        4.07310       -7.53890
H          2.73170        4.78360       -5.95780
H         -3.83690        6.20000       -5.21270
H         -6.10680        5.53210       -6.53500
H         -5.48720        3.64000      -12.60700
H         -6.67820        2.36820      -12.27480
H         -8.37280        4.11100      -11.70330
H         -7.18830        5.37550      -12.04940
H         -7.76300        4.32520      -13.34800
H         -8.38460        0.70350        1.13340
H         -6.78880        0.39720        1.84630
H         -7.90620        3.15880        1.13870
H         -7.80630        2.47920        2.76800
H         -6.33080        2.84530        1.87060
H         -5.43330       -1.04690       -4.02950
H         -5.36100       -2.06180       -8.89890
H         -2.15440       -5.78730       -8.09850
H         -1.46500       -4.58370       -4.19810
H         -0.49430       -5.57220       -6.92550
H          1.69840       -6.87370       -6.73760
H          7.07070       -9.11080       -9.33180
H          5.82650      -10.10890      -10.10970
H          5.96810       -7.05440      -10.21700
H          6.41450       -8.15200      -11.52820
H          4.73370       -8.05020      -10.99550
H          1.91550       -2.92580        1.54150
H          2.57120       -3.91450        2.85660
H          0.20140       -3.34440        3.27450
H         -0.27290       -4.12990        1.76400
H          0.39830       -5.08810        3.08540
H          5.51340       -7.17090       -0.71190
H          7.46750       -8.46330       -1.84450
