
  xtb     03082202303D
 energy: -287.500204018218 gnorm: 0.000820433272 xtb: 6.4.1 (unknown)
167184  0     0  0            999 V2000
   -1.1053   -4.1583   14.4152 C   0  0  0  0  0  0  0  0  0  0  0  0
   -0.3574   -4.8260   13.5145 C   0  0  0  0  0  0  0  0  0  0  0  0
   -0.4702   -4.3029   12.1920 C   0  0  0  0  0  0  0  0  0  0  0  0
    0.1217   -4.7984   11.0136 C   0  0  0  0  0  0  0  0  0  0  0  0
    1.0457   -5.9139   11.0021 C   0  0  0  0  0  0  0  0  0  0  0  0
    1.1147   -6.9151   10.0751 C   0  0  0  0  0  0  0  0  0  0  0  0
    2.1769   -7.8287   10.2259 C   0  0  0  0  0  0  0  0  0  0  0  0
    3.0143   -7.5763   11.2724 C   0  0  0  0  0  0  0  0  0  0  0  0
    4.3437   -8.6145   11.7329 S   0  0  0  0  0  0  0  0  0  0  0  0
    5.4223   -7.4352   12.6194 C   0  0  0  0  0  0  0  0  0  0  0  0
    6.0637   -6.4334   11.6816 C   0  0  0  0  0  0  0  0  0  0  0  0
    2.4508   -6.0667   12.2517 Se  0  0  0  0  0  2  0  0  0  0  0  0
   -0.2176   -4.1419    9.8335 C   0  0  0  0  0  0  0  0  0  0  0  0
   -1.0862   -3.0269    9.7944 C   0  0  0  0  0  0  0  0  0  0  0  0
   -1.7060   -2.5469   10.9662 C   0  0  0  0  0  0  0  0  0  0  0  0
   -2.6895   -1.4878   10.9335 C   0  0  0  0  0  0  0  0  0  0  0  0
   -2.9410   -0.5339   11.8806 C   0  0  0  0  0  0  0  0  0  0  0  0
   -4.0455    0.3066   11.6431 C   0  0  0  0  0  0  0  0  0  0  0  0
   -4.7485    0.0358   10.5031 C   0  0  0  0  0  0  0  0  0  0  0  0
   -6.1698    0.9281   10.0047 S   0  0  0  0  0  0  0  0  0  0  0  0
   -6.7775   -0.0401    8.5773 C   0  0  0  0  0  0  0  0  0  0  0  0
   -6.0708    0.3055    7.2824 C   0  0  0  0  0  0  0  0  0  0  0  0
   -3.9705   -1.3810    9.5488 Se  0  0  0  0  0  2  0  0  0  0  0  0
   -1.3598   -3.2037   12.1457 C   0  0  0  0  0  0  0  0  0  0  0  0
   -1.9996   -2.8485   13.7291 S   0  0  0  0  0  0  0  0  0  0  0  0
   -1.1928   -2.4933    8.4901 C   0  0  0  0  0  0  0  0  0  0  0  0
   -0.4892   -3.1842    7.5457 C   0  0  0  0  0  0  0  0  0  0  0  0
    0.3881   -4.5259    8.2402 S   0  0  0  0  0  0  0  0  0  0  0  0
   -0.4827   -2.8689    6.1545 C   0  0  0  0  0  0  0  0  0  0  0  0
   -1.3286   -1.9758    5.5619 C   0  0  0  0  0  0  0  0  0  0  0  0
   -1.1090   -1.8048    4.1776 C   0  0  0  0  0  0  0  0  0  0  0  0
   -1.7587   -0.8862    3.3271 C   0  0  0  0  0  0  0  0  0  0  0  0
   -2.6709    0.1179    3.8273 C   0  0  0  0  0  0  0  0  0  0  0  0
   -3.7540    0.6650    3.1960 C   0  0  0  0  0  0  0  0  0  0  0  0
   -4.3908    1.7320    3.8584 C   0  0  0  0  0  0  0  0  0  0  0  0
   -3.8195    2.1056    5.0422 C   0  0  0  0  0  0  0  0  0  0  0  0
   -4.4160    3.4191    6.0342 S   0  0  0  0  0  0  0  0  0  0  0  0
   -3.1069    3.5976    7.2982 C   0  0  0  0  0  0  0  0  0  0  0  0
   -3.2599    2.6253    8.4499 C   0  0  0  0  0  0  0  0  0  0  0  0
   -2.3530    1.0104    5.4613 Se  0  0  0  0  0  2  0  0  0  0  0  0
   -1.3992   -0.9521    1.9853 C   0  0  0  0  0  0  0  0  0  0  0  0
   -0.4176   -1.8425    1.4847 C   0  0  0  0  0  0  0  0  0  0  0  0
    0.2933   -2.7006    2.3538 C   0  0  0  0  0  0  0  0  0  0  0  0
    1.3891   -3.5283    1.8983 C   0  0  0  0  0  0  0  0  0  0  0  0
    1.7609   -4.7553    2.3786 C   0  0  0  0  0  0  0  0  0  0  0  0
    2.8864   -5.3474    1.7731 C   0  0  0  0  0  0  0  0  0  0  0  0
    3.4727   -4.6069    0.7885 C   0  0  0  0  0  0  0  0  0  0  0  0
    4.8756   -5.1087   -0.1312 S   0  0  0  0  0  0  0  0  0  0  0  0
    4.4405   -4.5144   -1.8132 C   0  0  0  0  0  0  0  0  0  0  0  0
    4.9196   -3.1033   -2.0841 C   0  0  0  0  0  0  0  0  0  0  0  0
    2.6097   -2.9509    0.5791 Se  0  0  0  0  0  2  0  0  0  0  0  0
   -0.0951   -2.6648    3.6927 C   0  0  0  0  0  0  0  0  0  0  0  0
    0.6075   -3.5924    4.9972 S   0  0  0  0  0  0  0  0  0  0  0  0
   -0.2527   -1.6958    0.0854 C   0  0  0  0  0  0  0  0  0  0  0  0
   -1.0112   -0.7055   -0.4625 C   0  0  0  0  0  0  0  0  0  0  0  0
   -2.0259    0.0792    0.7266 S   0  0  0  0  0  0  0  0  0  0  0  0
   -1.0120   -0.2574   -1.8114 C   0  0  0  0  0  0  0  0  0  0  0  0
   -1.7738    0.7342   -2.3522 C   0  0  0  0  0  0  0  0  0  0  0  0
   -1.4827    1.0053   -3.7102 C   0  0  0  0  0  0  0  0  0  0  0  0
   -2.0410    2.0104   -4.5278 C   0  0  0  0  0  0  0  0  0  0  0  0
   -2.9840    2.9797   -4.0109 C   0  0  0  0  0  0  0  0  0  0  0  0
   -4.0782    3.5048   -4.6387 C   0  0  0  0  0  0  0  0  0  0  0  0
   -4.8095    4.4652   -3.9115 C   0  0  0  0  0  0  0  0  0  0  0  0
   -4.3049    4.7695   -2.6797 C   0  0  0  0  0  0  0  0  0  0  0  0
   -4.9932    5.9681   -1.6063 S   0  0  0  0  0  0  0  0  0  0  0  0
   -4.1996    5.5423   -0.0151 C   0  0  0  0  0  0  0  0  0  0  0  0
   -4.7501    4.2669    0.5899 C   0  0  0  0  0  0  0  0  0  0  0  0
   -2.7330    3.7987   -2.3289 Se  0  0  0  0  0  2  0  0  0  0  0  0
   -1.5979    2.0476   -5.8451 C   0  0  0  0  0  0  0  0  0  0  0  0
   -0.6027    1.1750   -6.3569 C   0  0  0  0  0  0  0  0  0  0  0  0
   -0.0119    0.1996   -5.5253 C   0  0  0  0  0  0  0  0  0  0  0  0
    1.0674   -0.6627   -5.9590 C   0  0  0  0  0  0  0  0  0  0  0  0
    1.2760   -1.9635   -5.5929 C   0  0  0  0  0  0  0  0  0  0  0  0
    2.4830   -2.5473   -6.0264 C   0  0  0  0  0  0  0  0  0  0  0  0
    3.2954   -1.7232   -6.7470 C   0  0  0  0  0  0  0  0  0  0  0  0
    4.8080   -2.2294   -7.4722 S   0  0  0  0  0  0  0  0  0  0  0  0
    5.7411   -0.6561   -7.4457 C   0  0  0  0  0  0  0  0  0  0  0  0
    6.0979   -0.2327   -6.0360 C   0  0  0  0  0  0  0  0  0  0  0  0
    2.5050   -0.0277   -7.0015 Se  0  0  0  0  0  2  0  0  0  0  0  0
   -0.4896    0.1359   -4.2193 C   0  0  0  0  0  0  0  0  0  0  0  0
    0.0914   -0.9498   -2.9816 S   0  0  0  0  0  0  0  0  0  0  0  0
   -0.3228    1.4425   -7.7161 C   0  0  0  0  0  0  0  0  0  0  0  0
   -1.0432    2.4878   -8.2256 C   0  0  0  0  0  0  0  0  0  0  0  0
   -2.1262    3.1925   -7.0558 S   0  0  0  0  0  0  0  0  0  0  0  0
   -0.9827    3.0031   -9.5446 C   0  0  0  0  0  0  0  0  0  0  0  0
   -0.1073    2.4744  -10.4380 O   0  0  0  0  0  0  0  0  0  0  0  0
   -0.2514    3.1486  -11.5936 C   0  0  0  0  0  0  0  0  0  0  0  0
   -1.2232    4.1239  -11.4733 C   0  0  0  0  0  0  0  0  0  0  0  0
   -1.6957    4.0328  -10.1508 C   0  0  0  0  0  0  0  0  0  0  0  0
   -2.6414    4.7442   -9.5020 O   0  0  0  0  0  0  0  0  0  0  0  0
   -3.2736    5.7615  -10.2452 C   0  0  0  0  0  0  0  0  0  0  0  0
    0.5681    2.7884  -12.7000 C   0  0  0  0  0  0  0  0  0  0  0  0
    1.4765    1.7910  -12.5546 O   0  0  0  0  0  0  0  0  0  0  0  0
    2.1162    1.6481  -13.7254 C   0  0  0  0  0  0  0  0  0  0  0  0
    1.6363    2.5494  -14.6553 C   0  0  0  0  0  0  0  0  0  0  0  0
    0.6350    3.2891  -13.9954 C   0  0  0  0  0  0  0  0  0  0  0  0
   -0.1470    4.2944  -14.4525 O   0  0  0  0  0  0  0  0  0  0  0  0
    0.0570    4.6677  -15.7981 C   0  0  0  0  0  0  0  0  0  0  0  0
    3.1309    0.6485  -13.8258 C   0  0  0  0  0  0  0  0  0  0  0  0
    3.7979    0.4534  -14.9924 O   0  0  0  0  0  0  0  0  0  0  0  0
    4.6734   -0.5391  -14.7870 C   0  0  0  0  0  0  0  0  0  0  0  0
    4.6048   -1.0085  -13.5091 C   0  0  0  0  0  0  0  0  0  0  0  0
    3.5998   -0.2401  -12.8686 C   0  0  0  0  0  0  0  0  0  0  0  0
    3.1374   -0.2885  -11.6059 O   0  0  0  0  0  0  0  0  0  0  0  0
    3.7068   -1.2589  -10.7579 C   0  0  0  0  0  0  0  0  0  0  0  0
   -1.1993   -4.3488   15.4663 H   0  0  0  0  0  0  0  0  0  0  0  0
    0.2393   -5.6843   13.7719 H   0  0  0  0  0  0  0  0  0  0  0  0
    0.3878   -7.0184    9.2874 H   0  0  0  0  0  0  0  0  0  0  0  0
    2.3288   -8.6608    9.5607 H   0  0  0  0  0  0  0  0  0  0  0  0
    4.8080   -6.9436   13.3804 H   0  0  0  0  0  0  0  0  0  0  0  0
    6.1692   -8.0577   13.1105 H   0  0  0  0  0  0  0  0  0  0  0  0
    6.6502   -6.9458   10.9225 H   0  0  0  0  0  0  0  0  0  0  0  0
    6.7172   -5.7679   12.2419 H   0  0  0  0  0  0  0  0  0  0  0  0
    5.3036   -5.8318   11.1838 H   0  0  0  0  0  0  0  0  0  0  0  0
   -2.3137   -0.4066   12.7464 H   0  0  0  0  0  0  0  0  0  0  0  0
   -4.3305    1.0968   12.3157 H   0  0  0  0  0  0  0  0  0  0  0  0
   -6.6629   -1.0967    8.8340 H   0  0  0  0  0  0  0  0  0  0  0  0
   -7.8384    0.2015    8.5178 H   0  0  0  0  0  0  0  0  0  0  0  0
   -6.1666    1.3665    7.0655 H   0  0  0  0  0  0  0  0  0  0  0  0
   -6.5087   -0.2594    6.4623 H   0  0  0  0  0  0  0  0  0  0  0  0
   -5.0098    0.0550    7.3390 H   0  0  0  0  0  0  0  0  0  0  0  0
   -1.7205   -1.5848    8.2583 H   0  0  0  0  0  0  0  0  0  0  0  0
   -2.1316   -1.5031    6.1002 H   0  0  0  0  0  0  0  0  0  0  0  0
   -4.1249    0.2854    2.2595 H   0  0  0  0  0  0  0  0  0  0  0  0
   -5.2572    2.2302    3.4589 H   0  0  0  0  0  0  0  0  0  0  0  0
   -2.1486    3.4746    6.7864 H   0  0  0  0  0  0  0  0  0  0  0  0
   -3.2004    4.6272    7.6427 H   0  0  0  0  0  0  0  0  0  0  0  0
   -2.4855    2.8088    9.1916 H   0  0  0  0  0  0  0  0  0  0  0  0
   -3.1618    1.5943    8.1046 H   0  0  0  0  0  0  0  0  0  0  0  0
   -4.2315    2.7425    8.9232 H   0  0  0  0  0  0  0  0  0  0  0  0
    1.1881   -5.2794    3.1244 H   0  0  0  0  0  0  0  0  0  0  0  0
    3.2453   -6.3255    2.0425 H   0  0  0  0  0  0  0  0  0  0  0  0
    3.3565   -4.5951   -1.9069 H   0  0  0  0  0  0  0  0  0  0  0  0
    4.9179   -5.2253   -2.4871 H   0  0  0  0  0  0  0  0  0  0  0  0
    5.9985   -3.0366   -1.9656 H   0  0  0  0  0  0  0  0  0  0  0  0
    4.4494   -2.3985   -1.3963 H   0  0  0  0  0  0  0  0  0  0  0  0
    4.6565   -2.8159   -3.1003 H   0  0  0  0  0  0  0  0  0  0  0  0
    0.3798   -2.3133   -0.5296 H   0  0  0  0  0  0  0  0  0  0  0  0
   -2.5387    1.2302   -1.7787 H   0  0  0  0  0  0  0  0  0  0  0  0
   -4.3990    3.1641   -5.6083 H   0  0  0  0  0  0  0  0  0  0  0  0
   -5.7087    4.9206   -4.2886 H   0  0  0  0  0  0  0  0  0  0  0  0
   -3.1233    5.4702   -0.2004 H   0  0  0  0  0  0  0  0  0  0  0  0
   -4.3948    6.4008    0.6265 H   0  0  0  0  0  0  0  0  0  0  0  0
   -4.2600    4.0692    1.5411 H   0  0  0  0  0  0  0  0  0  0  0  0
   -5.8211    4.3570    0.7560 H   0  0  0  0  0  0  0  0  0  0  0  0
   -4.5699    3.4181   -0.0702 H   0  0  0  0  0  0  0  0  0  0  0  0
    0.5531   -2.5230   -5.0244 H   0  0  0  0  0  0  0  0  0  0  0  0
    2.7540   -3.5639   -5.7983 H   0  0  0  0  0  0  0  0  0  0  0  0
    5.1241    0.0936   -7.9500 H   0  0  0  0  0  0  0  0  0  0  0  0
    6.6322   -0.8509   -8.0413 H   0  0  0  0  0  0  0  0  0  0  0  0
    6.6758    0.6886   -6.0612 H   0  0  0  0  0  0  0  0  0  0  0  0
    5.1961   -0.0584   -5.4500 H   0  0  0  0  0  0  0  0  0  0  0  0
    6.6867   -1.0041   -5.5449 H   0  0  0  0  0  0  0  0  0  0  0  0
    0.3595    0.8821   -8.3322 H   0  0  0  0  0  0  0  0  0  0  0  0
   -1.5259    4.7935  -12.2497 H   0  0  0  0  0  0  0  0  0  0  0  0
   -3.9892    6.2242   -9.5683 H   0  0  0  0  0  0  0  0  0  0  0  0
   -2.5515    6.5102  -10.5847 H   0  0  0  0  0  0  0  0  0  0  0  0
   -3.7997    5.3491  -11.1117 H   0  0  0  0  0  0  0  0  0  0  0  0
    1.9769    2.6428  -15.6651 H   0  0  0  0  0  0  0  0  0  0  0  0
   -0.1447    3.8332  -16.4761 H   0  0  0  0  0  0  0  0  0  0  0  0
   -0.6463    5.4745  -15.9955 H   0  0  0  0  0  0  0  0  0  0  0  0
    1.0781    5.0257  -15.9599 H   0  0  0  0  0  0  0  0  0  0  0  0
    5.2906   -0.8272  -15.6145 H   0  0  0  0  0  0  0  0  0  0  0  0
    5.1925   -1.7972  -13.0872 H   0  0  0  0  0  0  0  0  0  0  0  0
    3.2116   -1.1351   -9.7953 H   0  0  0  0  0  0  0  0  0  0  0  0
    3.5269   -2.2729  -11.1277 H   0  0  0  0  0  0  0  0  0  0  0  0
    4.7838   -1.1061  -10.6376 H   0  0  0  0  0  0  0  0  0  0  0  0
  1  2  2  0  0  0  0
  2  3  1  0  0  0  0
  3  4  2  0  0  0  0
  4  5  1  0  0  0  0
  5  6  2  0  0  0  0
  6  7  1  0  0  0  0
  7  8  2  0  0  0  0
  8  9  1  0  0  0  0
  9 10  1  0  0  0  0
 10 11  1  0  0  0  0
  8 12  1  0  0  0  0
  4 13  1  0  0  0  0
 13 14  2  0  0  0  0
 14 15  1  0  0  0  0
 15 16  1  0  0  0  0
 16 17  2  0  0  0  0
 17 18  1  0  0  0  0
 18 19  2  0  0  0  0
 19 20  1  0  0  0  0
 20 21  1  0  0  0  0
 21 22  1  0  0  0  0
 19 23  1  0  0  0  0
 15 24  2  0  0  0  0
 24 25  1  0  0  0  0
 14 26  1  0  0  0  0
 26 27  2  0  0  0  0
 27 28  1  0  0  0  0
 27 29  1  0  0  0  0
 29 30  2  0  0  0  0
 30 31  1  0  0  0  0
 31 32  2  0  0  0  0
 32 33  1  0  0  0  0
 33 34  2  0  0  0  0
 34 35  1  0  0  0  0
 35 36  2  0  0  0  0
 36 37  1  0  0  0  0
 37 38  1  0  0  0  0
 38 39  1  0  0  0  0
 36 40  1  0  0  0  0
 32 41  1  0  0  0  0
 41 42  2  0  0  0  0
 42 43  1  0  0  0  0
 43 44  1  0  0  0  0
 44 45  2  0  0  0  0
 45 46  1  0  0  0  0
 46 47  2  0  0  0  0
 47 48  1  0  0  0  0
 48 49  1  0  0  0  0
 49 50  1  0  0  0  0
 47 51  1  0  0  0  0
 43 52  2  0  0  0  0
 52 53  1  0  0  0  0
 42 54  1  0  0  0  0
 54 55  2  0  0  0  0
 55 56  1  0  0  0  0
 55 57  1  0  0  0  0
 57 58  2  0  0  0  0
 58 59  1  0  0  0  0
 59 60  2  0  0  0  0
 60 61  1  0  0  0  0
 61 62  2  0  0  0  0
 62 63  1  0  0  0  0
 63 64  2  0  0  0  0
 64 65  1  0  0  0  0
 65 66  1  0  0  0  0
 66 67  1  0  0  0  0
 64 68  1  0  0  0  0
 60 69  1  0  0  0  0
 69 70  2  0  0  0  0
 70 71  1  0  0  0  0
 71 72  1  0  0  0  0
 72 73  2  0  0  0  0
 73 74  1  0  0  0  0
 74 75  2  0  0  0  0
 75 76  1  0  0  0  0
 76 77  1  0  0  0  0
 77 78  1  0  0  0  0
 75 79  1  0  0  0  0
 71 80  2  0  0  0  0
 80 81  1  0  0  0  0
 70 82  1  0  0  0  0
 82 83  2  0  0  0  0
 83 84  1  0  0  0  0
 83 85  1  0  0  0  0
 85 86  1  0  0  0  0
 86 87  1  0  0  0  0
 87 88  2  0  0  0  0
 88 89  1  0  0  0  0
 89 90  1  0  0  0  0
 90 91  1  0  0  0  0
 87 92  1  0  0  0  0
 92 93  1  0  0  0  0
 93 94  1  0  0  0  0
 94 95  2  0  0  0  0
 95 96  1  0  0  0  0
 96 97  1  0  0  0  0
 97 98  1  0  0  0  0
 94 99  1  0  0  0  0
 99100  1  0  0  0  0
100101  1  0  0  0  0
101102  2  0  0  0  0
102103  1  0  0  0  0
103104  1  0  0  0  0
104105  1  0  0  0  0
 25  1  1  0  0  0  0
 53 29  1  0  0  0  0
 81 57  1  0  0  0  0
 89 85  2  0  0  0  0
 96 92  2  0  0  0  0
103 99  2  0  0  0  0
 24  3  1  0  0  0  0
 52 31  1  0  0  0  0
 80 59  1  0  0  0  0
 12  5  1  0  0  0  0
 28 13  1  0  0  0  0
 40 33  1  0  0  0  0
 56 41  1  0  0  0  0
 68 61  1  0  0  0  0
 84 69  1  0  0  0  0
 23 16  1  0  0  0  0
 51 44  1  0  0  0  0
 79 72  1  0  0  0  0
  1106  1  0  0  0  0
  2107  1  0  0  0  0
  6108  1  0  0  0  0
  7109  1  0  0  0  0
 10110  1  0  0  0  0
 10111  1  0  0  0  0
 11112  1  0  0  0  0
 11113  1  0  0  0  0
 11114  1  0  0  0  0
 17115  1  0  0  0  0
 18116  1  0  0  0  0
 21117  1  0  0  0  0
 21118  1  0  0  0  0
 22119  1  0  0  0  0
 22120  1  0  0  0  0
 22121  1  0  0  0  0
 26122  1  0  0  0  0
 30123  1  0  0  0  0
 34124  1  0  0  0  0
 35125  1  0  0  0  0
 38126  1  0  0  0  0
 38127  1  0  0  0  0
 39128  1  0  0  0  0
 39129  1  0  0  0  0
 39130  1  0  0  0  0
 45131  1  0  0  0  0
 46132  1  0  0  0  0
 49133  1  0  0  0  0
 49134  1  0  0  0  0
 50135  1  0  0  0  0
 50136  1  0  0  0  0
 50137  1  0  0  0  0
 54138  1  0  0  0  0
 58139  1  0  0  0  0
 62140  1  0  0  0  0
 63141  1  0  0  0  0
 66142  1  0  0  0  0
 66143  1  0  0  0  0
 67144  1  0  0  0  0
 67145  1  0  0  0  0
 67146  1  0  0  0  0
 73147  1  0  0  0  0
 74148  1  0  0  0  0
 77149  1  0  0  0  0
 77150  1  0  0  0  0
 78151  1  0  0  0  0
 78152  1  0  0  0  0
 78153  1  0  0  0  0
 82154  1  0  0  0  0
 88155  1  0  0  0  0
 91156  1  0  0  0  0
 91157  1  0  0  0  0
 91158  1  0  0  0  0
 95159  1  0  0  0  0
 98160  1  0  0  0  0
 98161  1  0  0  0  0
 98162  1  0  0  0  0
101163  1  0  0  0  0
102164  1  0  0  0  0
105165  1  0  0  0  0
105166  1  0  0  0  0
105167  1  0  0  0  0
M  END
