185

C          5.86470       -4.00310       11.59410
S          6.30880       -2.60630       10.69580
C          7.83220       -3.29960       10.27800
C          7.97600       -4.54680       10.79610
O          9.02710       -5.39910       10.67230
C         10.02920       -5.01750        9.75880
C          6.82770       -4.96790       11.55160
N          6.80020       -6.20710       12.16020
C          5.72120       -6.99510       12.45810
C          4.53390       -7.12640       11.82560
C          4.09620       -6.63730       10.55840
C          2.84150       -6.79350       10.03030
C          2.69410       -6.30280        8.71120
C          1.53810       -6.28150        7.90040
C          0.27730       -6.86370        8.31050
C         -0.97210       -6.39300        8.01350
C         -2.05820       -7.19450        8.41930
C         -1.70870       -8.35000        9.05170
S         -2.73250       -9.62180        9.68110
C         -4.30270       -8.74070       10.00450
C         -4.16250       -7.70450       11.10170
Se         0.15050       -8.51980        9.22250
C          1.68070       -5.68970        6.64700
C          2.87740       -5.08480        6.19140
C          4.01310       -5.04230        7.02890
C          5.18300       -4.26240        6.69690
C          5.20350       -3.07380        6.01330
C          6.45950       -2.45530        5.86770
C          7.49470       -3.12990        6.44630
S          9.19310       -2.69300        6.51430
C          9.12160       -0.86410        6.45990
C          8.45550       -0.27530        7.68720
Se         6.92050       -4.70820        7.27970
C          3.89590       -5.72510        8.23570
S          5.17090       -5.88720        9.39760
C          2.76550       -4.62850        4.85740
C          1.53740       -4.83830        4.30310
S          0.44150       -5.62860        5.41660
C          1.10770       -4.44290        3.00600
C         -0.10750       -4.61660        2.41480
C         -0.21160       -4.01930        1.13340
C         -1.32830       -3.99720        0.26730
C         -2.49070       -4.81210        0.51610
C         -2.52510       -6.05030        1.10350
C         -3.79510       -6.63330        1.25620
C         -4.83730       -5.87950        0.79230
S         -6.49910       -6.42440        0.81890
C         -7.39480       -4.95230        0.21310
C         -7.53900       -3.88630        1.28020
Se        -4.23130       -4.26090        0.04230
C         -1.22960       -3.13250       -0.82120
C         -0.06640       -2.39370       -1.13870
C          1.11120       -2.56300       -0.37470
C          2.36110       -1.96410       -0.77050
C          2.80260       -1.73840       -2.04860
C          4.06220       -1.12730       -2.17650
C          4.68760       -0.83880       -0.99530
S          6.28320       -0.12750       -0.91010
C          6.56150       -0.00850        0.89110
C          5.85120        1.18000        1.50750
Se         3.64720       -1.38150        0.47870
C          0.97340       -3.33460        0.77570
S          2.21300       -3.54740        1.98030
C         -0.28740       -1.49690       -2.21190
C         -1.54530       -1.56560       -2.73600
S         -2.51930       -2.78200       -1.93850
C         -2.10500       -0.76260       -3.77360
C         -1.57820        0.37260       -4.31820
C         -2.40740        0.97750       -5.29390
C         -2.15650        2.15250       -6.04160
C         -0.83850        2.73610       -6.11220
C          0.34660        2.05200       -5.99630
C          1.52040        2.80570       -6.17020
C          1.32450        4.12340       -6.45350
S          2.59780        5.29220       -6.75050
C          2.32030        5.55890       -8.54350
C          2.68880        4.33570       -9.35700
Se        -0.51290        4.55390       -6.49030
C         -3.24740        2.65120       -6.75120
C         -4.46270        1.94850       -6.92020
C         -4.64730        0.69240       -6.30880
C         -5.81100       -0.12790       -6.55980
C         -6.48060       -0.93340       -5.68090
C         -7.52050       -1.71310       -6.22260
C         -7.71150       -1.57350       -7.56740
S         -8.99910       -2.36110       -8.45020
C         -8.39690       -2.23130      -10.17020
C         -7.23180       -3.16070      -10.44130
Se        -6.51920       -0.31380       -8.30120
C         -3.62870        0.27930       -5.45010
S         -3.66670       -1.15090       -4.45500
C         -5.40260        2.68780       -7.68920
C         -4.96030        3.91420       -8.06730
S         -3.30000        4.19930       -7.54030
C         -5.60650        4.93340       -8.83490
S         -6.51550        4.58820      -10.27770
C         -6.70950        6.27110      -10.59740
C         -6.13750        7.05920       -9.64600
O         -6.12390        8.41520       -9.58830
C         -6.82730        9.10110      -10.59530
C         -5.51080        6.29180       -8.61040
N         -4.98280        6.79640       -7.44560
C         -4.50740        8.06280       -7.22280
C         -4.41670        8.59620       -5.99410
C         -3.74800        9.84580       -5.72110
S         -4.48720       11.08130       -4.74340
C         -3.10820       12.09840       -4.91650
C         -2.13140       11.52820       -5.67230
O         -0.92880       12.08330       -5.99850
C         -0.67460       13.37390       -5.50330
C         -2.48870       10.21800       -6.13630
N         -1.68820        9.35660       -6.86160
C         -0.31270        9.36290       -6.90690
C          0.40100        8.27960       -7.19210
H          4.90580       -4.05160       12.06760
H          8.51080       -2.74070        9.66760
H         10.55060       -4.11580       10.09480
H         10.72970       -5.84910        9.71370
H          9.60560       -4.83680        8.76370
H          7.71320       -6.57180       12.39150
H          5.88590       -7.61680       13.33190
H          3.80570       -7.75960       12.31540
H          2.03530       -7.22320       10.60140
H         -1.13000       -5.44660        7.52480
H         -3.07700       -6.90660        8.22540
H         -4.64500       -8.30550        9.06670
H         -4.98980       -9.53430       10.29660
H         -3.82340       -8.17340       12.02250
H         -5.12390       -7.22850       11.28500
H         -3.44330       -6.93840       10.81910
H          4.30530       -2.60200        5.65290
H          6.57250       -1.51830        5.34940
H          8.61310       -0.57820        5.54040
H         10.16660       -0.56310        6.39230
H          7.44500       -0.66270        7.80390
H          8.40340        0.80760        7.59380
H          9.02420       -0.51630        8.58220
H          3.57660       -4.19610        4.30000
H         -0.91950       -5.11120        2.91650
H         -1.62790       -6.57390        1.38750
H         -3.94150       -7.60420        1.69720
H         -6.85060       -4.58130       -0.66100
H         -8.36670       -5.33030       -0.10280
H         -6.55950       -3.53500        1.60640
H         -8.09300       -3.03880        0.88210
H         -8.07070       -4.28140        2.14250
H          2.24410       -2.06340       -2.91030
H          4.51300       -0.91310       -3.13020
H          7.64270        0.07850        0.99720
H          6.22990       -0.95390        1.33120
H          6.06820        1.22990        2.57260
H          6.17970        2.10420        1.03800
H          4.77170        1.09030        1.38020
H          0.44690       -0.79070       -2.55190
H         -0.65750        0.80430       -3.97310
H          0.38210        0.98440       -5.86310
H          2.50530        2.37370       -6.11450
H          1.26950        5.82440       -8.67150
H          2.94520        6.41290       -8.79950
H          3.73170        4.07200       -9.19630
H          2.53660        4.53560      -10.41580
H          2.06840        3.48760       -9.07150
H         -6.25310       -0.95260       -4.62880
H         -8.12040       -2.37900       -5.62690
H         -9.25970       -2.48520      -10.78500
H         -8.12990       -1.18350      -10.34120
H         -6.92230       -3.07110      -11.48050
H         -7.51560       -4.19220      -10.24610
H         -6.38290       -2.90850       -9.80610
H         -6.40530        2.35700       -7.90120
H         -7.25920        6.56390      -11.46810
H         -7.88700        8.82700      -10.59690
H         -6.72430       10.15900      -10.36130
H         -6.40180        8.90050      -11.58390
H         -5.04350        6.19160       -6.63820
H         -4.20270        8.60600       -8.10400
H         -4.84940        8.07790       -5.14730
H         -3.12050       13.05990       -4.44660
H         -1.40970       14.09490       -5.87560
H         -0.67930       13.38840       -4.40850
H          0.31580       13.64380       -5.86640
H         -2.11140        8.44450       -6.99740
H          0.14570       10.32180       -6.72830
H          1.47070        8.31300       -7.26110
H         -0.07550        7.32050       -7.34680
