173

C         11.49440       -0.47150        9.30550
C         11.73870       -1.37240        8.33280
C         10.56040       -1.78130        7.64120
C         10.45310       -2.68550        6.56930
C         11.59680       -3.33190        5.95800
C         11.67910       -4.62780        5.53220
C         12.87930       -4.99430        4.89280
C         13.79430       -3.99060        4.75410
S         15.30920       -4.17520        3.89980
C         16.22940       -2.69260        4.44050
C         16.71590       -2.80660        5.87080
Se        13.15760       -2.37950        5.49270
C          9.16660       -2.91610        6.08840
C          8.01250       -2.27660        6.60000
C          8.11950       -1.37400        7.67710
C          6.97800       -0.69710        8.25600
C          6.75910       -0.46220        9.58490
C          5.58830        0.25090        9.90600
C          4.83370        0.63900        8.83740
S          3.38750        1.61180        8.97220
C          2.55390        1.23790        7.39000
C          1.99870       -0.17060        7.34710
Se         5.61850        0.09380        7.21300
C          9.40540       -1.15990        8.17040
S          9.82210       -0.06920        9.46710
C          6.84460       -2.67600        5.90350
C          7.07760       -3.58400        4.91390
S          8.77550       -3.97730        4.76550
C          6.10140       -4.10430        4.00180
S          4.96960       -3.00380        3.29810
C          4.25610       -4.21720        2.29430
C          4.82980       -5.46620        2.55230
C          5.90400       -5.39210        3.51070
C          6.56090       -6.58390        3.90380
F          7.52020       -6.55050        4.83710
C          6.19540       -7.79000        3.37060
F          6.81120       -8.92010        3.73580
C          5.11850       -7.86740        2.45620
F          4.74450       -9.06890        1.99500
C          4.43910       -6.74040        2.07920
F          3.35690       -6.89070        1.29150
C          3.28870       -3.84510        1.31800
C          3.06220       -4.41910        0.09930
C          2.04030       -3.79720       -0.65330
C          1.51540       -4.21350       -1.89970
C          1.84940       -5.48780       -2.48210
C          1.82030       -5.85450       -3.80530
C          2.07740       -7.20460       -4.08310
C          2.30820       -7.99150       -2.98580
S          2.72100       -9.68350       -3.08030
C          2.86640      -10.14610       -1.31800
C          1.52030      -10.35060       -0.65440
Se         2.24300       -6.99120       -1.40440
C          0.59980       -3.33500       -2.48560
C          0.16370       -2.13680       -1.86910
C          0.59610       -1.79620       -0.56480
C          0.07010       -0.64420        0.12580
C         -1.21360       -0.16980        0.10270
C         -1.44940        1.01700        0.81990
C         -0.35060        1.54960        1.43520
S         -0.39400        3.05630        2.32220
C          1.35220        3.27790        2.80980
C          1.72000        2.46050        4.03140
Se         1.17300        0.47220        1.17110
C          1.54920       -2.63770       -0.00800
S          2.27920       -2.42910        1.56260
C         -0.69660       -1.39810       -2.70620
C         -0.96160       -1.99920       -3.91170
S         -0.14870       -3.54010       -4.04180
C         -1.84370       -1.46740       -4.89680
S         -2.94040       -0.23130       -4.36550
C         -3.68680       -0.06850       -5.91600
C         -3.14210       -0.98910       -6.81070
C         -2.06150       -1.75630       -6.24990
C         -1.36940       -2.63860       -7.11460
F         -0.26730       -3.28320       -6.71030
C         -1.78990       -2.83640       -8.40360
F         -1.12840       -3.67500       -9.20830
C         -2.93490       -2.17510       -8.90550
F         -3.35290       -2.45340      -10.14340
C         -3.59210       -1.26700       -8.12280
F         -4.69430       -0.66270       -8.59300
C         -4.70300        0.90980       -6.12610
S         -5.95270        1.13680       -4.95020
C         -6.74960        2.35920       -5.87760
C         -6.07080        2.58260       -7.08070
C         -4.87700        1.79050       -7.19410
C         -4.00170        2.01180       -8.28300
F         -2.80990        1.39520       -8.32000
C         -4.34430        2.87690       -9.28570
F         -3.52270        3.09980      -10.31580
C         -5.58760        3.55160       -9.24560
F         -5.92420        4.34250      -10.27080
C         -6.42470        3.41190       -8.17040
F         -7.60080        4.05640       -8.18860
C         -7.90670        2.98010       -5.32510
C         -8.39750        4.24210       -5.50430
C         -9.55360        4.52070       -4.73720
C        -10.31120        5.71390       -4.71560
C        -10.06070        6.77630       -5.65490
C         -9.65920        6.65210       -6.96110
C         -9.45260        7.85080       -7.66300
C         -9.67870        8.99240       -6.94260
S         -9.54800       10.59460       -7.62400
C         -9.74830       11.65440       -6.14970
C         -8.49700       11.69600       -5.29610
Se       -10.25030        8.59530       -5.19180
C        -11.30840        5.77940       -3.74200
C        -11.63000        4.71270       -2.87400
C        -10.95040        3.48100       -2.97850
C        -11.32470        2.33720       -2.17880
C        -12.58860        1.94360       -1.83400
C        -12.68130        0.80650       -1.00940
C        -11.48520        0.24730       -0.65880
S        -11.34840       -1.21090        0.29610
C         -9.57520       -1.20520        0.73350
C         -9.24870       -0.17240        1.79300
Se       -10.03900        1.17080       -1.44190
C         -9.90230        3.44140       -3.89160
S         -8.85070        2.07740       -4.14830
C        -12.64420        5.08190       -1.94270
C        -13.08940        6.34220       -2.11960
S        -12.31920        7.16530       -3.42980
H         12.19930       -0.01070        9.96940
H         12.72200       -1.75490        8.11860
H         10.89730       -5.34460        5.71940
H         13.06870       -5.99230        4.53790
H         17.06300       -2.61630        3.74310
H         15.56770       -1.83160        4.30350
H         17.27080       -1.91190        6.14460
H         17.36490       -3.67170        5.98320
H         15.87400       -2.91340        6.55530
H          7.40940       -0.85130       10.34960
H          5.29780        0.46810       10.91920
H          1.76050        1.98020        7.31620
H          3.28320        1.40860        6.59230
H          2.80140       -0.90180        7.44320
H          1.49160       -0.33870        6.39950
H          1.29120       -0.32500        8.15820
H          5.84890       -2.34490        6.14680
H          3.68360       -5.20690       -0.28600
H          1.65810       -5.14730       -4.60040
H          2.09250       -7.60030       -5.08360
H          3.44750      -11.06770       -1.32300
H          3.44400       -9.36050       -0.82120
H          0.93940       -9.42770       -0.66580
H          0.95450      -11.12490       -1.16710
H          1.66900      -10.64740        0.38130
H         -2.00890       -0.69780       -0.39640
H         -2.41850        1.48170        0.87680
H          1.45020        4.34510        3.00710
H          1.96570        3.01310        1.94400
H          2.75550        2.65390        4.30260
H          1.60930        1.39430        3.83010
H          1.07910        2.72540        4.86870
H         -1.07490       -0.42350       -2.45430
H         -7.91190        4.98370       -6.10800
H         -9.55360        5.69440       -7.44120
H         -9.14250        7.87510       -8.69320
H         -9.98840       12.63970       -6.54800
H        -10.60870       11.27170       -5.59160
H         -8.25670       10.70200       -4.91770
H         -7.65290       12.05940       -5.87730
H         -8.65170       12.35880       -4.44750
H        -13.46500        2.44820       -2.20490
H        -13.62160        0.40150       -0.67730
H         -9.37490       -2.21540        1.08890
H         -9.01530       -1.03070       -0.19090
H         -8.19160       -0.22270        2.04460
H         -9.83360       -0.35320        2.69170
H         -9.46950        0.83180        1.43050
H        -12.99150        4.43560       -1.15780
H        -13.83700        6.86480       -1.55590
