
  xtb     03082203213D
 energy: -474.117311011504 gnorm: 0.000348338291 xtb: 6.4.1 (unknown)
278307  0     0  0            999 V2000
   -1.0380  -14.4612    3.3198 C   0  0  0  0  0  0  0  0  0  0  0  0
   -0.1519  -13.5864    2.8024 C   0  0  0  0  0  0  0  0  0  0  0  0
   -0.7596  -12.6082    1.9616 C   0  0  0  0  0  0  0  0  0  0  0  0
   -0.1401  -11.5323    1.2986 C   0  0  0  0  0  0  0  0  0  0  0  0
    1.2553  -11.1841    1.4721 C   0  0  0  0  0  0  0  0  0  0  0  0
    2.1072  -10.6808    0.5285 C   0  0  0  0  0  0  0  0  0  0  0  0
    3.3723  -10.2658    0.9868 C   0  0  0  0  0  0  0  0  0  0  0  0
    3.5723  -10.4045    2.3304 C   0  0  0  0  0  0  0  0  0  0  0  0
    5.0354   -9.9182    3.1542 S   0  0  0  0  0  0  0  0  0  0  0  0
    4.6738  -10.5023    4.8516 C   0  0  0  0  0  0  0  0  0  0  0  0
    5.8307  -10.1866    5.7768 C   0  0  0  0  0  0  0  0  0  0  0  0
    2.0684  -11.1570    3.1763 Se  0  0  0  0  0  2  0  0  0  0  0  0
   -0.9709  -10.7446    0.5063 C   0  0  0  0  0  0  0  0  0  0  0  0
   -2.3680  -10.9403    0.3991 C   0  0  0  0  0  0  0  0  0  0  0  0
   -2.9968  -11.9809    1.1110 C   0  0  0  0  0  0  0  0  0  0  0  0
   -4.4338  -12.1447    1.1326 C   0  0  0  0  0  0  0  0  0  0  0  0
   -5.1465  -13.3115    1.1545 C   0  0  0  0  0  0  0  0  0  0  0  0
   -6.5448  -13.1832    1.2576 C   0  0  0  0  0  0  0  0  0  0  0  0
   -7.0056  -11.9006    1.3574 C   0  0  0  0  0  0  0  0  0  0  0  0
   -8.6928  -11.4897    1.5655 S   0  0  0  0  0  0  0  0  0  0  0  0
   -8.6767   -9.6738    1.3559 C   0  0  0  0  0  0  0  0  0  0  0  0
   -8.5460   -9.2535   -0.0936 C   0  0  0  0  0  0  0  0  0  0  0  0
   -5.5918  -10.6636    1.3108 Se  0  0  0  0  0  2  0  0  0  0  0  0
   -2.1544  -12.8106    1.8511 C   0  0  0  0  0  0  0  0  0  0  0  0
   -2.6653  -14.1696    2.8180 S   0  0  0  0  0  0  0  0  0  0  0  0
   -2.9723   -9.9696   -0.4414 C   0  0  0  0  0  0  0  0  0  0  0  0
   -2.0993   -9.0454   -0.9276 C   0  0  0  0  0  0  0  0  0  0  0  0
   -0.4564   -9.3477   -0.3993 S   0  0  0  0  0  0  0  0  0  0  0  0
   -2.3681   -7.8904   -1.7165 C   0  0  0  0  0  0  0  0  0  0  0  0
   -1.4481   -7.0057   -2.1910 C   0  0  0  0  0  0  0  0  0  0  0  0
   -2.0190   -5.8746   -2.8211 C   0  0  0  0  0  0  0  0  0  0  0  0
   -1.3419   -4.7812   -3.3814 C   0  0  0  0  0  0  0  0  0  0  0  0
    0.1179   -4.6642   -3.2884 C   0  0  0  0  0  0  0  0  0  0  0  0
    0.7469   -4.8061   -2.0540 C   0  0  0  0  0  0  0  0  0  0  0  0
    2.1181   -4.7053   -1.9329 C   0  0  0  0  0  0  0  0  0  0  0  0
    2.9135   -4.4729   -3.0490 C   0  0  0  0  0  0  0  0  0  0  0  0
    4.6699   -4.3665   -3.0386 S   0  0  0  0  0  0  0  0  0  0  0  0
    5.1514   -4.9928   -1.3957 C   0  0  0  0  0  0  0  0  0  0  0  0
    4.9296   -6.4829   -1.2292 C   0  0  0  0  0  0  0  0  0  0  0  0
    2.2667   -4.2950   -4.2737 C   0  0  0  0  0  0  0  0  0  0  0  0
    3.0067   -4.0412   -5.3720 F   0  0  0  0  0  0  0  0  0  0  0  0
    0.8986   -4.3814   -4.4063 C   0  0  0  0  0  0  0  0  0  0  0  0
   -2.1299   -3.7805   -3.9227 C   0  0  0  0  0  0  0  0  0  0  0  0
   -3.5469   -3.8002   -3.8954 C   0  0  0  0  0  0  0  0  0  0  0  0
   -4.2233   -4.9171   -3.3709 C   0  0  0  0  0  0  0  0  0  0  0  0
   -5.6869   -5.0025   -3.3911 C   0  0  0  0  0  0  0  0  0  0  0  0
   -6.3988   -4.7192   -4.5574 C   0  0  0  0  0  0  0  0  0  0  0  0
   -7.7693   -4.8515   -4.5952 C   0  0  0  0  0  0  0  0  0  0  0  0
   -8.4909   -5.2586   -3.4730 C   0  0  0  0  0  0  0  0  0  0  0  0
  -10.2445   -5.3745   -3.6333 S   0  0  0  0  0  0  0  0  0  0  0  0
  -10.6916   -6.7652   -2.5166 C   0  0  0  0  0  0  0  0  0  0  0  0
  -12.0005   -7.3689   -2.9856 C   0  0  0  0  0  0  0  0  0  0  0  0
   -7.7715   -5.5002   -2.3070 C   0  0  0  0  0  0  0  0  0  0  0  0
   -6.3973   -5.3920   -2.2603 C   0  0  0  0  0  0  0  0  0  0  0  0
   -8.4042   -5.8470   -1.1609 F   0  0  0  0  0  0  0  0  0  0  0  0
   -3.4345   -5.9262   -2.8342 C   0  0  0  0  0  0  0  0  0  0  0  0
   -4.0105   -7.3912   -2.0727 S   0  0  0  0  0  0  0  0  0  0  0  0
   -4.0952   -2.5523   -4.2988 C   0  0  0  0  0  0  0  0  0  0  0  0
   -3.1539   -1.6301   -4.6445 C   0  0  0  0  0  0  0  0  0  0  0  0
   -1.5216   -2.2768   -4.5511 S   0  0  0  0  0  0  0  0  0  0  0  0
   -3.2728   -0.2209   -4.8406 C   0  0  0  0  0  0  0  0  0  0  0  0
   -2.2567    0.6140   -5.1987 C   0  0  0  0  0  0  0  0  0  0  0  0
   -2.5148    1.9802   -4.9334 C   0  0  0  0  0  0  0  0  0  0  0  0
   -1.6044    3.0482   -5.0094 C   0  0  0  0  0  0  0  0  0  0  0  0
   -0.2059    2.8392   -5.4042 C   0  0  0  0  0  0  0  0  0  0  0  0
    0.4286    3.6773   -6.3174 C   0  0  0  0  0  0  0  0  0  0  0  0
    1.7546    3.4824   -6.6443 C   0  0  0  0  0  0  0  0  0  0  0  0
    2.4978    2.4560   -6.0674 C   0  0  0  0  0  0  0  0  0  0  0  0
    4.2179    2.3277   -6.4712 S   0  0  0  0  0  0  0  0  0  0  0  0
    4.4188    0.5306   -6.7925 C   0  0  0  0  0  0  0  0  0  0  0  0
    5.8343    0.2721   -7.2656 C   0  0  0  0  0  0  0  0  0  0  0  0
    1.8580    1.6428   -5.1381 C   0  0  0  0  0  0  0  0  0  0  0  0
    2.5319    0.6630   -4.4956 F   0  0  0  0  0  0  0  0  0  0  0  0
    0.5311    1.8184   -4.8108 C   0  0  0  0  0  0  0  0  0  0  0  0
   -2.0417    4.2713   -4.5278 C   0  0  0  0  0  0  0  0  0  0  0  0
   -3.3339    4.4626   -3.9781 C   0  0  0  0  0  0  0  0  0  0  0  0
   -4.2598    3.4045   -3.9421 C   0  0  0  0  0  0  0  0  0  0  0  0
   -5.5646    3.6070   -3.2994 C   0  0  0  0  0  0  0  0  0  0  0  0
   -6.3809    4.6755   -3.6676 C   0  0  0  0  0  0  0  0  0  0  0  0
   -7.5757    4.9040   -3.0185 C   0  0  0  0  0  0  0  0  0  0  0  0
   -7.9922    4.0902   -1.9684 C   0  0  0  0  0  0  0  0  0  0  0  0
   -9.4973    4.5143   -1.1328 S   0  0  0  0  0  0  0  0  0  0  0  0
  -10.3508    2.9020   -0.9641 C   0  0  0  0  0  0  0  0  0  0  0  0
  -10.5682    2.2345   -2.3067 C   0  0  0  0  0  0  0  0  0  0  0  0
   -7.1617    3.0359   -1.6033 C   0  0  0  0  0  0  0  0  0  0  0  0
   -5.9767    2.7790   -2.2608 C   0  0  0  0  0  0  0  0  0  0  0  0
   -7.4846    2.2363   -0.5619 F   0  0  0  0  0  0  0  0  0  0  0  0
   -3.8160    2.1761   -4.4045 C   0  0  0  0  0  0  0  0  0  0  0  0
   -4.6863    0.6627   -4.2908 S   0  0  0  0  0  0  0  0  0  0  0  0
   -3.4289    5.6906   -3.2779 C   0  0  0  0  0  0  0  0  0  0  0  0
   -2.2630    6.4001   -3.2570 C   0  0  0  0  0  0  0  0  0  0  0  0
   -1.0191    5.6601   -4.2528 S   0  0  0  0  0  0  0  0  0  0  0  0
   -1.9120    7.3990   -2.3033 C   0  0  0  0  0  0  0  0  0  0  0  0
   -0.6749    7.9054   -2.0318 C   0  0  0  0  0  0  0  0  0  0  0  0
   -0.5545    8.4462   -0.7263 C   0  0  0  0  0  0  0  0  0  0  0  0
    0.6429    8.8263   -0.0717 C   0  0  0  0  0  0  0  0  0  0  0  0
    1.8348    9.1070   -0.8247 C   0  0  0  0  0  0  0  0  0  0  0  0
    1.8909    9.6392   -2.0894 C   0  0  0  0  0  0  0  0  0  0  0  0
    3.1709    9.7974   -2.6440 C   0  0  0  0  0  0  0  0  0  0  0  0
    4.1998    9.3900   -1.8391 C   0  0  0  0  0  0  0  0  0  0  0  0
    5.8823    9.4501   -2.2994 S   0  0  0  0  0  0  0  0  0  0  0  0
    6.6530    8.8035   -0.7704 C   0  0  0  0  0  0  0  0  0  0  0  0
    8.1582    8.7412   -0.9230 C   0  0  0  0  0  0  0  0  0  0  0  0
    3.5696    8.7468   -0.1815 Se  0  0  0  0  0  2  0  0  0  0  0  0
    0.5957    8.7694    1.3193 C   0  0  0  0  0  0  0  0  0  0  0  0
   -0.5866    8.5198    2.0539 C   0  0  0  0  0  0  0  0  0  0  0  0
   -1.8345    8.4194    1.3941 C   0  0  0  0  0  0  0  0  0  0  0  0
   -3.0538    8.2510    2.1387 C   0  0  0  0  0  0  0  0  0  0  0  0
   -3.3329    8.7581    3.3823 C   0  0  0  0  0  0  0  0  0  0  0  0
   -4.5746    8.4052    3.9371 C   0  0  0  0  0  0  0  0  0  0  0  0
   -5.3473    7.5914    3.1542 C   0  0  0  0  0  0  0  0  0  0  0  0
   -6.9327    7.0295    3.6335 S   0  0  0  0  0  0  0  0  0  0  0  0
   -7.5615    6.2439    2.1070 C   0  0  0  0  0  0  0  0  0  0  0  0
   -7.0640    4.8244    1.9320 C   0  0  0  0  0  0  0  0  0  0  0  0
   -4.4863    7.1839    1.5280 Se  0  0  0  0  0  2  0  0  0  0  0  0
   -1.7559    8.3185    0.0075 C   0  0  0  0  0  0  0  0  0  0  0  0
   -3.0515    7.7418   -1.0071 S   0  0  0  0  0  0  0  0  0  0  0  0
   -0.3056    8.1023    3.3768 C   0  0  0  0  0  0  0  0  0  0  0  0
    1.0271    8.0118    3.6586 C   0  0  0  0  0  0  0  0  0  0  0  0
    2.0029    8.6880    2.3547 S   0  0  0  0  0  0  0  0  0  0  0  0
    1.6225    7.0833    4.5624 C   0  0  0  0  0  0  0  0  0  0  0  0
    2.9382    6.7482    4.7032 C   0  0  0  0  0  0  0  0  0  0  0  0
    3.1453    5.3929    5.0823 C   0  0  0  0  0  0  0  0  0  0  0  0
    4.3729    4.6865    5.0838 C   0  0  0  0  0  0  0  0  0  0  0  0
    5.6179    5.3745    5.2916 C   0  0  0  0  0  0  0  0  0  0  0  0
    6.9003    4.9887    4.9955 C   0  0  0  0  0  0  0  0  0  0  0  0
    7.9248    5.8466    5.4302 C   0  0  0  0  0  0  0  0  0  0  0  0
    7.5102    6.9504    6.1238 C   0  0  0  0  0  0  0  0  0  0  0  0
    8.6099    8.1136    6.8245 S   0  0  0  0  0  0  0  0  0  0  0  0
    7.4807    9.4745    7.2836 C   0  0  0  0  0  0  0  0  0  0  0  0
    7.0328   10.2796    6.0807 C   0  0  0  0  0  0  0  0  0  0  0  0
    5.6381    6.9894    6.2791 Se  0  0  0  0  0  2  0  0  0  0  0  0
    4.2526    3.3165    4.8179 C   0  0  0  0  0  0  0  0  0  0  0  0
    3.0089    2.6473    4.7560 C   0  0  0  0  0  0  0  0  0  0  0  0
    1.8108    3.3127    5.1041 C   0  0  0  0  0  0  0  0  0  0  0  0
    0.5485    2.6213    5.1519 C   0  0  0  0  0  0  0  0  0  0  0  0
    0.3225    1.3258    5.5375 C   0  0  0  0  0  0  0  0  0  0  0  0
   -0.9962    0.8546    5.4025 C   0  0  0  0  0  0  0  0  0  0  0  0
   -1.8805    1.7562    4.8764 C   0  0  0  0  0  0  0  0  0  0  0  0
   -3.5572    1.3903    4.5445 S   0  0  0  0  0  0  0  0  0  0  0  0
   -4.1531    2.9455    3.7888 C   0  0  0  0  0  0  0  0  0  0  0  0
   -4.4875    4.0068    4.8167 C   0  0  0  0  0  0  0  0  0  0  0  0
   -1.0528    3.4147    4.5417 Se  0  0  0  0  0  2  0  0  0  0  0  0
    1.9230    4.6950    5.1945 C   0  0  0  0  0  0  0  0  0  0  0  0
    0.5680    5.7916    5.1412 S   0  0  0  0  0  0  0  0  0  0  0  0
    3.1063    1.3970    4.0857 C   0  0  0  0  0  0  0  0  0  0  0  0
    4.3613    1.0915    3.6744 C   0  0  0  0  0  0  0  0  0  0  0  0
    5.5316    2.2746    4.2385 S   0  0  0  0  0  0  0  0  0  0  0  0
    4.7157    0.2558    2.5454 C   0  0  0  0  0  0  0  0  0  0  0  0
    4.3232    0.6136    1.2960 C   0  0  0  0  0  0  0  0  0  0  0  0
    4.9147   -0.1538    0.2600 C   0  0  0  0  0  0  0  0  0  0  0  0
    4.8260    0.0698   -1.1270 C   0  0  0  0  0  0  0  0  0  0  0  0
    3.9508    1.0969   -1.6471 C   0  0  0  0  0  0  0  0  0  0  0  0
    2.6867    1.3948   -1.2151 C   0  0  0  0  0  0  0  0  0  0  0  0
    2.1089    2.5567   -1.7567 C   0  0  0  0  0  0  0  0  0  0  0  0
    2.9002    3.2359   -2.6412 C   0  0  0  0  0  0  0  0  0  0  0  0
    2.3865    4.7133   -3.4307 S   0  0  0  0  0  0  0  0  0  0  0  0
    3.9779    5.3873   -4.0203 C   0  0  0  0  0  0  0  0  0  0  0  0
    4.8204    5.9294   -2.8849 C   0  0  0  0  0  0  0  0  0  0  0  0
    4.5239    2.3363   -2.9388 Se  0  0  0  0  0  2  0  0  0  0  0  0
    5.6736   -0.6955   -1.9208 C   0  0  0  0  0  0  0  0  0  0  0  0
    6.5284   -1.6996   -1.4107 C   0  0  0  0  0  0  0  0  0  0  0  0
    6.5693   -1.9574   -0.0263 C   0  0  0  0  0  0  0  0  0  0  0  0
    7.3770   -3.0249    0.5274 C   0  0  0  0  0  0  0  0  0  0  0  0
    8.6603   -3.3751    0.2263 C   0  0  0  0  0  0  0  0  0  0  0  0
    9.1475   -4.5395    0.8554 C   0  0  0  0  0  0  0  0  0  0  0  0
    8.2554   -5.1754    1.6700 C   0  0  0  0  0  0  0  0  0  0  0  0
    8.5876   -6.7044    2.4547 S   0  0  0  0  0  0  0  0  0  0  0  0
    7.1233   -6.9150    3.5222 C   0  0  0  0  0  0  0  0  0  0  0  0
    7.1964   -6.0651    4.7743 C   0  0  0  0  0  0  0  0  0  0  0  0
    6.6161   -4.2500    1.7457 Se  0  0  0  0  0  2  0  0  0  0  0  0
    5.7736   -1.1459    0.7776 C   0  0  0  0  0  0  0  0  0  0  0  0
    5.8070   -1.1101    2.5285 S   0  0  0  0  0  0  0  0  0  0  0  0
    7.2548   -2.3395   -2.4588 C   0  0  0  0  0  0  0  0  0  0  0  0
    6.9776   -1.8353   -3.6782 C   0  0  0  0  0  0  0  0  0  0  0  0
    5.8048   -0.5682   -3.6495 S   0  0  0  0  0  0  0  0  0  0  0  0
   -0.8430  -15.2908    3.9709 H   0  0  0  0  0  0  0  0  0  0  0  0
    0.9079  -13.6425    2.9862 H   0  0  0  0  0  0  0  0  0  0  0  0
    1.8464  -10.6401   -0.5154 H   0  0  0  0  0  0  0  0  0  0  0  0
    4.1276   -9.8648    0.3332 H   0  0  0  0  0  0  0  0  0  0  0  0
    4.4974  -11.5796    4.7883 H   0  0  0  0  0  0  0  0  0  0  0  0
    3.7565  -10.0026    5.1768 H   0  0  0  0  0  0  0  0  0  0  0  0
    6.7468  -10.6441    5.4099 H   0  0  0  0  0  0  0  0  0  0  0  0
    5.9825   -9.1120    5.8465 H   0  0  0  0  0  0  0  0  0  0  0  0
    5.6217  -10.5742    6.7713 H   0  0  0  0  0  0  0  0  0  0  0  0
   -4.6750  -14.2735    1.0461 H   0  0  0  0  0  0  0  0  0  0  0  0
   -7.2087  -14.0302    1.2584 H   0  0  0  0  0  0  0  0  0  0  0  0
   -9.6242   -9.3411    1.7787 H   0  0  0  0  0  0  0  0  0  0  0  0
   -7.8565   -9.2841    1.9664 H   0  0  0  0  0  0  0  0  0  0  0  0
   -8.5659   -8.1685   -0.1605 H   0  0  0  0  0  0  0  0  0  0  0  0
   -9.3654   -9.6611   -0.6816 H   0  0  0  0  0  0  0  0  0  0  0  0
   -7.6048   -9.6077   -0.5157 H   0  0  0  0  0  0  0  0  0  0  0  0
   -4.0163   -9.9557   -0.7066 H   0  0  0  0  0  0  0  0  0  0  0  0
   -0.3892   -7.1611   -2.0888 H   0  0  0  0  0  0  0  0  0  0  0  0
    0.1511   -4.9754   -1.1696 H   0  0  0  0  0  0  0  0  0  0  0  0
    2.5620   -4.8044   -0.9558 H   0  0  0  0  0  0  0  0  0  0  0  0
    4.6352   -4.4045   -0.6352 H   0  0  0  0  0  0  0  0  0  0  0  0
    6.2156   -4.7611   -1.3446 H   0  0  0  0  0  0  0  0  0  0  0  0
    5.2828   -6.7924   -0.2460 H   0  0  0  0  0  0  0  0  0  0  0  0
    5.4855   -7.0310   -1.9863 H   0  0  0  0  0  0  0  0  0  0  0  0
    3.8769   -6.7425   -1.3188 H   0  0  0  0  0  0  0  0  0  0  0  0
    0.4543   -4.2538   -5.3809 H   0  0  0  0  0  0  0  0  0  0  0  0
   -5.8653   -4.4273   -5.4492 H   0  0  0  0  0  0  0  0  0  0  0  0
   -8.3131   -4.6485   -5.5047 H   0  0  0  0  0  0  0  0  0  0  0  0
  -10.7784   -6.3786   -1.5022 H   0  0  0  0  0  0  0  0  0  0  0  0
   -9.8813   -7.4909   -2.5697 H   0  0  0  0  0  0  0  0  0  0  0  0
  -11.9065   -7.7436   -4.0023 H   0  0  0  0  0  0  0  0  0  0  0  0
  -12.2796   -8.1929   -2.3323 H   0  0  0  0  0  0  0  0  0  0  0  0
  -12.7930   -6.6244   -2.9648 H   0  0  0  0  0  0  0  0  0  0  0  0
   -5.8982   -5.5831   -1.3235 H   0  0  0  0  0  0  0  0  0  0  0  0
   -5.1468   -2.3276   -4.2724 H   0  0  0  0  0  0  0  0  0  0  0  0
   -1.3299    0.2483   -5.6023 H   0  0  0  0  0  0  0  0  0  0  0  0
   -0.1257    4.4782   -6.7820 H   0  0  0  0  0  0  0  0  0  0  0  0
    2.2445    4.1331   -7.3515 H   0  0  0  0  0  0  0  0  0  0  0  0
    3.6869    0.2648   -7.5554 H   0  0  0  0  0  0  0  0  0  0  0  0
    4.2178   -0.0134   -5.8734 H   0  0  0  0  0  0  0  0  0  0  0  0
    6.5459    0.5634   -6.4960 H   0  0  0  0  0  0  0  0  0  0  0  0
    5.9579   -0.7883   -7.4736 H   0  0  0  0  0  0  0  0  0  0  0  0
    6.0495    0.8365   -8.1704 H   0  0  0  0  0  0  0  0  0  0  0  0
    0.1024    1.1857   -4.0494 H   0  0  0  0  0  0  0  0  0  0  0  0
   -6.0787    5.3199   -4.4791 H   0  0  0  0  0  0  0  0  0  0  0  0
   -8.2079    5.7285   -3.3089 H   0  0  0  0  0  0  0  0  0  0  0  0
   -9.7838    2.2714   -0.2826 H   0  0  0  0  0  0  0  0  0  0  0  0
  -11.2986    3.1686   -0.4969 H   0  0  0  0  0  0  0  0  0  0  0  0
   -9.6174    1.9791   -2.7717 H   0  0  0  0  0  0  0  0  0  0  0  0
  -11.1155    2.8936   -2.9775 H   0  0  0  0  0  0  0  0  0  0  0  0
  -11.1406    1.3192   -2.1713 H   0  0  0  0  0  0  0  0  0  0  0  0
   -5.3651    1.9576   -1.9228 H   0  0  0  0  0  0  0  0  0  0  0  0
   -4.2959    5.9837   -2.7122 H   0  0  0  0  0  0  0  0  0  0  0  0
    0.1606    7.7636   -2.6946 H   0  0  0  0  0  0  0  0  0  0  0  0
    1.0041    9.9600   -2.6100 H   0  0  0  0  0  0  0  0  0  0  0  0
    3.3373   10.2116   -3.6234 H   0  0  0  0  0  0  0  0  0  0  0  0
    6.3609    9.4739    0.0434 H   0  0  0  0  0  0  0  0  0  0  0  0
    6.2282    7.8106   -0.5926 H   0  0  0  0  0  0  0  0  0  0  0  0
    8.4301    8.0842   -1.7458 H   0  0  0  0  0  0  0  0  0  0  0  0
    8.6052    8.3590   -0.0081 H   0  0  0  0  0  0  0  0  0  0  0  0
    8.5620    9.7308   -1.1232 H   0  0  0  0  0  0  0  0  0  0  0  0
   -2.6603    9.4337    3.8841 H   0  0  0  0  0  0  0  0  0  0  0  0
   -4.9061    8.7578    4.8985 H   0  0  0  0  0  0  0  0  0  0  0  0
   -7.2673    6.8821    1.2693 H   0  0  0  0  0  0  0  0  0  0  0  0
   -8.6456    6.2674    2.2117 H   0  0  0  0  0  0  0  0  0  0  0  0
   -7.3084    4.2246    2.8055 H   0  0  0  0  0  0  0  0  0  0  0  0
   -7.5392    4.3828    1.0606 H   0  0  0  0  0  0  0  0  0  0  0  0
   -5.9830    4.8077    1.7830 H   0  0  0  0  0  0  0  0  0  0  0  0
   -1.0588    7.7227    4.0450 H   0  0  0  0  0  0  0  0  0  0  0  0
    3.7281    7.3975    4.3602 H   0  0  0  0  0  0  0  0  0  0  0  0
    7.1244    4.1020    4.4297 H   0  0  0  0  0  0  0  0  0  0  0  0
    8.9659    5.6527    5.2377 H   0  0  0  0  0  0  0  0  0  0  0  0
    8.0539   10.0865    7.9792 H   0  0  0  0  0  0  0  0  0  0  0  0
    6.6331    9.0278    7.8127 H   0  0  0  0  0  0  0  0  0  0  0  0
    7.8920   10.7035    5.5663 H   0  0  0  0  0  0  0  0  0  0  0  0
    6.3795   11.0885    6.4010 H   0  0  0  0  0  0  0  0  0  0  0  0
    6.4832    9.6507    5.3798 H   0  0  0  0  0  0  0  0  0  0  0  0
    1.1048    0.7130    5.9544 H   0  0  0  0  0  0  0  0  0  0  0  0
   -1.2905   -0.1424    5.6821 H   0  0  0  0  0  0  0  0  0  0  0  0
   -5.0351    2.6527    3.2195 H   0  0  0  0  0  0  0  0  0  0  0  0
   -3.3750    3.2837    3.0970 H   0  0  0  0  0  0  0  0  0  0  0  0
   -3.6082    4.2600    5.4107 H   0  0  0  0  0  0  0  0  0  0  0  0
   -5.2696    3.6582    5.4866 H   0  0  0  0  0  0  0  0  0  0  0  0
   -4.8305    4.9103    4.3159 H   0  0  0  0  0  0  0  0  0  0  0  0
    2.2479    0.8040    3.8248 H   0  0  0  0  0  0  0  0  0  0  0  0
    3.6866    1.4612    1.1172 H   0  0  0  0  0  0  0  0  0  0  0  0
    2.1587    0.7663   -0.5166 H   0  0  0  0  0  0  0  0  0  0  0  0
    1.1263    2.9059   -1.4866 H   0  0  0  0  0  0  0  0  0  0  0  0
    4.4864    4.5865   -4.5662 H   0  0  0  0  0  0  0  0  0  0  0  0
    3.6985    6.1760   -4.7179 H   0  0  0  0  0  0  0  0  0  0  0  0
    5.7170    6.3999   -3.2824 H   0  0  0  0  0  0  0  0  0  0  0  0
    4.2538    6.6690   -2.3197 H   0  0  0  0  0  0  0  0  0  0  0  0
    5.1157    5.1280   -2.2076 H   0  0  0  0  0  0  0  0  0  0  0  0
    9.2797   -2.7749   -0.4194 H   0  0  0  0  0  0  0  0  0  0  0  0
   10.1463   -4.9103    0.7027 H   0  0  0  0  0  0  0  0  0  0  0  0
    7.1051   -7.9787    3.7569 H   0  0  0  0  0  0  0  0  0  0  0  0
    6.2436   -6.6736    2.9169 H   0  0  0  0  0  0  0  0  0  0  0  0
    6.3081   -6.2248    5.3822 H   0  0  0  0  0  0  0  0  0  0  0  0
    7.2495   -5.0068    4.5182 H   0  0  0  0  0  0  0  0  0  0  0  0
    8.0762   -6.3240    5.3588 H   0  0  0  0  0  0  0  0  0  0  0  0
    7.9479   -3.1451   -2.2992 H   0  0  0  0  0  0  0  0  0  0  0  0
    7.3817   -2.1402   -4.6231 H   0  0  0  0  0  0  0  0  0  0  0  0
  1  2  2  0  0  0  0
  2  3  1  0  0  0  0
  3  4  2  0  0  0  0
  4  5  1  0  0  0  0
  5  6  2  0  0  0  0
  6  7  1  0  0  0  0
  7  8  2  0  0  0  0
  8  9  1  0  0  0  0
  9 10  1  0  0  0  0
 10 11  1  0  0  0  0
  8 12  1  0  0  0  0
  4 13  1  0  0  0  0
 13 14  2  0  0  0  0
 14 15  1  0  0  0  0
 15 16  1  0  0  0  0
 16 17  2  0  0  0  0
 17 18  1  0  0  0  0
 18 19  2  0  0  0  0
 19 20  1  0  0  0  0
 20 21  1  0  0  0  0
 21 22  1  0  0  0  0
 19 23  1  0  0  0  0
 15 24  2  0  0  0  0
 24 25  1  0  0  0  0
 14 26  1  0  0  0  0
 26 27  2  0  0  0  0
 27 28  1  0  0  0  0
 27 29  1  0  0  0  0
 29 30  2  0  0  0  0
 30 31  1  0  0  0  0
 31 32  2  0  0  0  0
 32 33  1  0  0  0  0
 33 34  2  0  0  0  0
 34 35  1  0  0  0  0
 35 36  2  0  0  0  0
 36 37  1  0  0  0  0
 37 38  1  0  0  0  0
 38 39  1  0  0  0  0
 36 40  1  0  0  0  0
 40 41  1  0  0  0  0
 40 42  2  0  0  0  0
 32 43  1  0  0  0  0
 43 44  2  0  0  0  0
 44 45  1  0  0  0  0
 45 46  1  0  0  0  0
 46 47  2  0  0  0  0
 47 48  1  0  0  0  0
 48 49  2  0  0  0  0
 49 50  1  0  0  0  0
 50 51  1  0  0  0  0
 51 52  1  0  0  0  0
 49 53  1  0  0  0  0
 53 54  2  0  0  0  0
 53 55  1  0  0  0  0
 45 56  2  0  0  0  0
 56 57  1  0  0  0  0
 44 58  1  0  0  0  0
 58 59  2  0  0  0  0
 59 60  1  0  0  0  0
 59 61  1  0  0  0  0
 61 62  2  0  0  0  0
 62 63  1  0  0  0  0
 63 64  2  0  0  0  0
 64 65  1  0  0  0  0
 65 66  2  0  0  0  0
 66 67  1  0  0  0  0
 67 68  2  0  0  0  0
 68 69  1  0  0  0  0
 69 70  1  0  0  0  0
 70 71  1  0  0  0  0
 68 72  1  0  0  0  0
 72 73  1  0  0  0  0
 72 74  2  0  0  0  0
 64 75  1  0  0  0  0
 75 76  2  0  0  0  0
 76 77  1  0  0  0  0
 77 78  1  0  0  0  0
 78 79  2  0  0  0  0
 79 80  1  0  0  0  0
 80 81  2  0  0  0  0
 81 82  1  0  0  0  0
 82 83  1  0  0  0  0
 83 84  1  0  0  0  0
 81 85  1  0  0  0  0
 85 86  2  0  0  0  0
 85 87  1  0  0  0  0
 77 88  2  0  0  0  0
 88 89  1  0  0  0  0
 76 90  1  0  0  0  0
 90 91  2  0  0  0  0
 91 92  1  0  0  0  0
 91 93  1  0  0  0  0
 93 94  2  0  0  0  0
 94 95  1  0  0  0  0
 95 96  2  0  0  0  0
 96 97  1  0  0  0  0
 97 98  2  0  0  0  0
 98 99  1  0  0  0  0
 99100  2  0  0  0  0
100101  1  0  0  0  0
101102  1  0  0  0  0
102103  1  0  0  0  0
100104  1  0  0  0  0
 96105  1  0  0  0  0
105106  2  0  0  0  0
106107  1  0  0  0  0
107108  1  0  0  0  0
108109  2  0  0  0  0
109110  1  0  0  0  0
110111  2  0  0  0  0
111112  1  0  0  0  0
112113  1  0  0  0  0
113114  1  0  0  0  0
111115  1  0  0  0  0
107116  2  0  0  0  0
116117  1  0  0  0  0
106118  1  0  0  0  0
118119  2  0  0  0  0
119120  1  0  0  0  0
119121  1  0  0  0  0
121122  2  0  0  0  0
122123  1  0  0  0  0
123124  2  0  0  0  0
124125  1  0  0  0  0
125126  2  0  0  0  0
126127  1  0  0  0  0
127128  2  0  0  0  0
128129  1  0  0  0  0
129130  1  0  0  0  0
130131  1  0  0  0  0
128132  1  0  0  0  0
124133  1  0  0  0  0
133134  2  0  0  0  0
134135  1  0  0  0  0
135136  1  0  0  0  0
136137  2  0  0  0  0
137138  1  0  0  0  0
138139  2  0  0  0  0
139140  1  0  0  0  0
140141  1  0  0  0  0
141142  1  0  0  0  0
139143  1  0  0  0  0
135144  2  0  0  0  0
144145  1  0  0  0  0
134146  1  0  0  0  0
146147  2  0  0  0  0
147148  1  0  0  0  0
147149  1  0  0  0  0
149150  2  0  0  0  0
150151  1  0  0  0  0
151152  2  0  0  0  0
152153  1  0  0  0  0
153154  2  0  0  0  0
154155  1  0  0  0  0
155156  2  0  0  0  0
156157  1  0  0  0  0
157158  1  0  0  0  0
158159  1  0  0  0  0
156160  1  0  0  0  0
152161  1  0  0  0  0
161162  2  0  0  0  0
162163  1  0  0  0  0
163164  1  0  0  0  0
164165  2  0  0  0  0
165166  1  0  0  0  0
166167  2  0  0  0  0
167168  1  0  0  0  0
168169  1  0  0  0  0
169170  1  0  0  0  0
167171  1  0  0  0  0
163172  2  0  0  0  0
172173  1  0  0  0  0
162174  1  0  0  0  0
174175  2  0  0  0  0
175176  1  0  0  0  0
 25  1  1  0  0  0  0
 57 29  1  0  0  0  0
 89 61  1  0  0  0  0
117 93  1  0  0  0  0
145121  1  0  0  0  0
173149  1  0  0  0  0
 24  3  1  0  0  0  0
 56 31  1  0  0  0  0
 88 63  1  0  0  0  0
116 95  1  0  0  0  0
144123  1  0  0  0  0
172151  1  0  0  0  0
 12  5  1  0  0  0  0
 28 13  1  0  0  0  0
 42 33  1  0  0  0  0
 60 43  1  0  0  0  0
 74 65  1  0  0  0  0
 92 75  1  0  0  0  0
104 97  1  0  0  0  0
120105  1  0  0  0  0
132125  1  0  0  0  0
148133  1  0  0  0  0
160153  1  0  0  0  0
176161  1  0  0  0  0
 23 16  1  0  0  0  0
 54 46  1  0  0  0  0
 86 78  1  0  0  0  0
115108  1  0  0  0  0
143136  1  0  0  0  0
171164  1  0  0  0  0
  1177  1  0  0  0  0
  2178  1  0  0  0  0
  6179  1  0  0  0  0
  7180  1  0  0  0  0
 10181  1  0  0  0  0
 10182  1  0  0  0  0
 11183  1  0  0  0  0
 11184  1  0  0  0  0
 11185  1  0  0  0  0
 17186  1  0  0  0  0
 18187  1  0  0  0  0
 21188  1  0  0  0  0
 21189  1  0  0  0  0
 22190  1  0  0  0  0
 22191  1  0  0  0  0
 22192  1  0  0  0  0
 26193  1  0  0  0  0
 30194  1  0  0  0  0
 34195  1  0  0  0  0
 35196  1  0  0  0  0
 38197  1  0  0  0  0
 38198  1  0  0  0  0
 39199  1  0  0  0  0
 39200  1  0  0  0  0
 39201  1  0  0  0  0
 42202  1  0  0  0  0
 47203  1  0  0  0  0
 48204  1  0  0  0  0
 51205  1  0  0  0  0
 51206  1  0  0  0  0
 52207  1  0  0  0  0
 52208  1  0  0  0  0
 52209  1  0  0  0  0
 54210  1  0  0  0  0
 58211  1  0  0  0  0
 62212  1  0  0  0  0
 66213  1  0  0  0  0
 67214  1  0  0  0  0
 70215  1  0  0  0  0
 70216  1  0  0  0  0
 71217  1  0  0  0  0
 71218  1  0  0  0  0
 71219  1  0  0  0  0
 74220  1  0  0  0  0
 79221  1  0  0  0  0
 80222  1  0  0  0  0
 83223  1  0  0  0  0
 83224  1  0  0  0  0
 84225  1  0  0  0  0
 84226  1  0  0  0  0
 84227  1  0  0  0  0
 86228  1  0  0  0  0
 90229  1  0  0  0  0
 94230  1  0  0  0  0
 98231  1  0  0  0  0
 99232  1  0  0  0  0
102233  1  0  0  0  0
102234  1  0  0  0  0
103235  1  0  0  0  0
103236  1  0  0  0  0
103237  1  0  0  0  0
109238  1  0  0  0  0
110239  1  0  0  0  0
113240  1  0  0  0  0
113241  1  0  0  0  0
114242  1  0  0  0  0
114243  1  0  0  0  0
114244  1  0  0  0  0
118245  1  0  0  0  0
122246  1  0  0  0  0
126247  1  0  0  0  0
127248  1  0  0  0  0
130249  1  0  0  0  0
130250  1  0  0  0  0
131251  1  0  0  0  0
131252  1  0  0  0  0
131253  1  0  0  0  0
137254  1  0  0  0  0
138255  1  0  0  0  0
141256  1  0  0  0  0
141257  1  0  0  0  0
142258  1  0  0  0  0
142259  1  0  0  0  0
142260  1  0  0  0  0
146261  1  0  0  0  0
150262  1  0  0  0  0
154263  1  0  0  0  0
155264  1  0  0  0  0
158265  1  0  0  0  0
158266  1  0  0  0  0
159267  1  0  0  0  0
159268  1  0  0  0  0
159269  1  0  0  0  0
165270  1  0  0  0  0
166271  1  0  0  0  0
169272  1  0  0  0  0
169273  1  0  0  0  0
170274  1  0  0  0  0
170275  1  0  0  0  0
170276  1  0  0  0  0
174277  1  0  0  0  0
175278  1  0  0  0  0
M  END
