
  xtb     03072220543D
 energy: -474.149340723854 gnorm: 0.001119652978 xtb: 6.4.1 (unknown)
278307  0     0  0            999 V2000
   12.3185  -18.5718   -3.9356 C   0  0  0  0  0  0  0  0  0  0  0  0
   12.6737  -17.3131   -4.2607 C   0  0  0  0  0  0  0  0  0  0  0  0
   11.5598  -16.4877   -4.5958 C   0  0  0  0  0  0  0  0  0  0  0  0
   11.5581  -15.1260   -4.9524 C   0  0  0  0  0  0  0  0  0  0  0  0
   12.7739  -14.3607   -5.1314 C   0  0  0  0  0  0  0  0  0  0  0  0
   13.9372  -14.7567   -5.7301 C   0  0  0  0  0  0  0  0  0  0  0  0
   14.9445  -13.7761   -5.8373 C   0  0  0  0  0  0  0  0  0  0  0  0
   14.6229  -12.5578   -5.3125 C   0  0  0  0  0  0  0  0  0  0  0  0
   15.6964  -11.1782   -5.2776 S   0  0  0  0  0  0  0  0  0  0  0  0
   14.4941   -9.8022   -5.1701 C   0  0  0  0  0  0  0  0  0  0  0  0
   13.6915   -9.6339   -6.4432 C   0  0  0  0  0  0  0  0  0  0  0  0
   12.8969  -12.5707   -4.5536 Se  0  0  0  0  0  2  0  0  0  0  0  0
   10.3075  -14.5492   -5.1537 C   0  0  0  0  0  0  0  0  0  0  0  0
    9.0838  -15.2495   -5.0454 C   0  0  0  0  0  0  0  0  0  0  0  0
    9.0860  -16.6093   -4.6728 C   0  0  0  0  0  0  0  0  0  0  0  0
    7.8527  -17.3350   -4.4742 C   0  0  0  0  0  0  0  0  0  0  0  0
    6.6966  -16.8677   -3.9105 C   0  0  0  0  0  0  0  0  0  0  0  0
    5.6193  -17.7716   -3.8639 C   0  0  0  0  0  0  0  0  0  0  0  0
    5.8755  -19.0047   -4.3945 C   0  0  0  0  0  0  0  0  0  0  0  0
    4.7080  -20.3078   -4.3915 S   0  0  0  0  0  0  0  0  0  0  0  0
    5.5516  -21.5813   -5.3927 C   0  0  0  0  0  0  0  0  0  0  0  0
    5.5062  -21.2733   -6.8753 C   0  0  0  0  0  0  0  0  0  0  0  0
    7.6509  -19.1288   -5.0145 Se  0  0  0  0  0  2  0  0  0  0  0  0
   10.3387  -17.1898   -4.4808 C   0  0  0  0  0  0  0  0  0  0  0  0
   10.6117  -18.8438   -3.9992 S   0  0  0  0  0  0  0  0  0  0  0  0
    7.9754  -14.4263   -5.3732 C   0  0  0  0  0  0  0  0  0  0  0  0
    8.3206  -13.1456   -5.6817 C   0  0  0  0  0  0  0  0  0  0  0  0
   10.0522  -12.8919   -5.6181 S   0  0  0  0  0  0  0  0  0  0  0  0
    7.4806  -12.0314   -5.9586 C   0  0  0  0  0  0  0  0  0  0  0  0
    7.8815  -10.7451   -6.1613 C   0  0  0  0  0  0  0  0  0  0  0  0
    6.8157   -9.8229   -6.2858 C   0  0  0  0  0  0  0  0  0  0  0  0
    6.8936   -8.4245   -6.4475 C   0  0  0  0  0  0  0  0  0  0  0  0
    8.1484   -7.7047   -6.4925 C   0  0  0  0  0  0  0  0  0  0  0  0
    8.4245   -6.5860   -7.2297 C   0  0  0  0  0  0  0  0  0  0  0  0
    9.6884   -5.9989   -7.0245 C   0  0  0  0  0  0  0  0  0  0  0  0
   10.4680   -6.6160   -6.0911 C   0  0  0  0  0  0  0  0  0  0  0  0
   12.1150   -6.1558   -5.7216 S   0  0  0  0  0  0  0  0  0  0  0  0
   12.2503   -6.7177   -3.9864 C   0  0  0  0  0  0  0  0  0  0  0  0
   11.4110   -5.8730   -3.0507 C   0  0  0  0  0  0  0  0  0  0  0  0
    9.6143   -8.1392   -5.3835 Se  0  0  0  0  0  2  0  0  0  0  0  0
    5.6742   -7.7511   -6.5006 C   0  0  0  0  0  0  0  0  0  0  0  0
    4.4160   -8.3964   -6.4247 C   0  0  0  0  0  0  0  0  0  0  0  0
    4.3414   -9.8038   -6.3220 C   0  0  0  0  0  0  0  0  0  0  0  0
    3.0763  -10.4990   -6.3107 C   0  0  0  0  0  0  0  0  0  0  0  0
    1.9494  -10.1912   -7.0252 C   0  0  0  0  0  0  0  0  0  0  0  0
    0.8401  -11.0347   -6.8315 C   0  0  0  0  0  0  0  0  0  0  0  0
    1.0341  -12.0495   -5.9365 C   0  0  0  0  0  0  0  0  0  0  0  0
   -0.2142  -13.1805   -5.4714 S   0  0  0  0  0  0  0  0  0  0  0  0
    0.7453  -14.4518   -4.5744 C   0  0  0  0  0  0  0  0  0  0  0  0
    1.5475  -15.3376   -5.5057 C   0  0  0  0  0  0  0  0  0  0  0  0
    2.7809  -12.0149   -5.2294 Se  0  0  0  0  0  2  0  0  0  0  0  0
    5.5583  -10.4684   -6.2161 C   0  0  0  0  0  0  0  0  0  0  0  0
    5.7380  -12.1874   -5.9775 S   0  0  0  0  0  0  0  0  0  0  0  0
    3.3502   -7.4676   -6.3459 C   0  0  0  0  0  0  0  0  0  0  0  0
    3.7548   -6.1640   -6.3692 C   0  0  0  0  0  0  0  0  0  0  0  0
    5.4897   -6.0186   -6.5320 S   0  0  0  0  0  0  0  0  0  0  0  0
    2.9457   -4.9986   -6.2107 C   0  0  0  0  0  0  0  0  0  0  0  0
    1.5839   -4.9305   -6.1419 C   0  0  0  0  0  0  0  0  0  0  0  0
    1.0916   -3.6305   -5.8644 C   0  0  0  0  0  0  0  0  0  0  0  0
   -0.2419   -3.2397   -5.6410 C   0  0  0  0  0  0  0  0  0  0  0  0
   -1.3495   -4.1818   -5.8383 C   0  0  0  0  0  0  0  0  0  0  0  0
   -2.3394   -4.3565   -4.8726 C   0  0  0  0  0  0  0  0  0  0  0  0
   -3.3742   -5.2420   -5.0804 C   0  0  0  0  0  0  0  0  0  0  0  0
   -3.4662   -5.9964   -6.2497 C   0  0  0  0  0  0  0  0  0  0  0  0
   -4.8094   -7.1403   -6.3560 S   0  0  0  0  0  0  0  0  0  0  0  0
   -5.2898   -7.1441   -8.1233 C   0  0  0  0  0  0  0  0  0  0  0  0
   -5.6789   -5.7644   -8.6128 C   0  0  0  0  0  0  0  0  0  0  0  0
   -2.4610   -5.8253   -7.1967 C   0  0  0  0  0  0  0  0  0  0  0  0
   -2.4540   -6.5407   -8.3450 F   0  0  0  0  0  0  0  0  0  0  0  0
   -1.4289   -4.9283   -7.0101 C   0  0  0  0  0  0  0  0  0  0  0  0
   -0.4442   -1.9347   -5.2160 C   0  0  0  0  0  0  0  0  0  0  0  0
    0.6166   -1.0099   -5.0545 C   0  0  0  0  0  0  0  0  0  0  0  0
    1.9435   -1.3895   -5.3073 C   0  0  0  0  0  0  0  0  0  0  0  0
    3.0429   -0.4420   -5.0723 C   0  0  0  0  0  0  0  0  0  0  0  0
    3.1894    0.1502   -3.8188 C   0  0  0  0  0  0  0  0  0  0  0  0
    4.1849    1.0773   -3.5920 C   0  0  0  0  0  0  0  0  0  0  0  0
    5.0589    1.4494   -4.6071 C   0  0  0  0  0  0  0  0  0  0  0  0
    6.3123    2.6583   -4.2542 S   0  0  0  0  0  0  0  0  0  0  0  0
    5.9213    3.9342   -5.5079 C   0  0  0  0  0  0  0  0  0  0  0  0
    4.5593    4.5553   -5.2665 C   0  0  0  0  0  0  0  0  0  0  0  0
    4.9269    0.8230   -5.8417 C   0  0  0  0  0  0  0  0  0  0  0  0
    3.9367   -0.1097   -6.0833 C   0  0  0  0  0  0  0  0  0  0  0  0
    5.7664    1.1294   -6.8517 F   0  0  0  0  0  0  0  0  0  0  0  0
    2.1481   -2.6961   -5.7114 C   0  0  0  0  0  0  0  0  0  0  0  0
    3.7022   -3.4361   -5.9740 S   0  0  0  0  0  0  0  0  0  0  0  0
    0.1613    0.2541   -4.6146 C   0  0  0  0  0  0  0  0  0  0  0  0
   -1.1860    0.3099   -4.4035 C   0  0  0  0  0  0  0  0  0  0  0  0
   -1.9759   -1.2014   -4.8043 S   0  0  0  0  0  0  0  0  0  0  0  0
   -1.8845    1.4059   -3.8144 C   0  0  0  0  0  0  0  0  0  0  0  0
   -1.3286    2.5981   -3.4490 C   0  0  0  0  0  0  0  0  0  0  0  0
   -2.2012    3.4383   -2.7216 C   0  0  0  0  0  0  0  0  0  0  0  0
   -1.8896    4.6712   -2.1095 C   0  0  0  0  0  0  0  0  0  0  0  0
   -0.6321    5.3312   -2.3671 C   0  0  0  0  0  0  0  0  0  0  0  0
    0.0425    5.3733   -3.5582 C   0  0  0  0  0  0  0  0  0  0  0  0
    1.2804    6.0407   -3.5472 C   0  0  0  0  0  0  0  0  0  0  0  0
    1.6505    6.5503   -2.3342 C   0  0  0  0  0  0  0  0  0  0  0  0
    3.1935    7.3205   -2.0496 S   0  0  0  0  0  0  0  0  0  0  0  0
    2.9101    8.1418   -0.4440 C   0  0  0  0  0  0  0  0  0  0  0  0
    2.0140    9.3568   -0.5682 C   0  0  0  0  0  0  0  0  0  0  0  0
    0.3398    6.2191   -1.0178 Se  0  0  0  0  0  2  0  0  0  0  0  0
   -2.8478    5.1713   -1.2356 C   0  0  0  0  0  0  0  0  0  0  0  0
   -4.1121    4.5698   -1.0228 C   0  0  0  0  0  0  0  0  0  0  0  0
   -4.4492    3.3748   -1.6957 C   0  0  0  0  0  0  0  0  0  0  0  0
   -5.7180    2.7110   -1.4952 C   0  0  0  0  0  0  0  0  0  0  0  0
   -6.4135    2.5467   -0.3296 C   0  0  0  0  0  0  0  0  0  0  0  0
   -7.6489    1.8792   -0.4334 C   0  0  0  0  0  0  0  0  0  0  0  0
   -7.9879    1.4816   -1.6959 C   0  0  0  0  0  0  0  0  0  0  0  0
   -9.4377    0.5728   -2.0575 S   0  0  0  0  0  0  0  0  0  0  0  0
   -9.4641    0.6083   -3.8827 C   0  0  0  0  0  0  0  0  0  0  0  0
   -9.9092    1.9507   -4.4264 C   0  0  0  0  0  0  0  0  0  0  0  0
   -6.6473    1.9347   -2.9410 Se  0  0  0  0  0  2  0  0  0  0  0  0
   -3.4662    2.8394   -2.5231 C   0  0  0  0  0  0  0  0  0  0  0  0
   -3.5576    1.2864   -3.3162 S   0  0  0  0  0  0  0  0  0  0  0  0
   -4.8840    5.2965   -0.0833 C   0  0  0  0  0  0  0  0  0  0  0  0
   -4.2312    6.3693    0.4519 C   0  0  0  0  0  0  0  0  0  0  0  0
   -2.6444    6.5918   -0.2530 S   0  0  0  0  0  0  0  0  0  0  0  0
   -4.6471    7.2039    1.5313 C   0  0  0  0  0  0  0  0  0  0  0  0
   -5.8131    7.1458    2.2391 C   0  0  0  0  0  0  0  0  0  0  0  0
   -5.8482    8.0233    3.3499 C   0  0  0  0  0  0  0  0  0  0  0  0
   -6.8599    8.1363    4.3292 C   0  0  0  0  0  0  0  0  0  0  0  0
   -8.1376    7.4781    4.1814 C   0  0  0  0  0  0  0  0  0  0  0  0
   -8.8475    7.3072    3.0239 C   0  0  0  0  0  0  0  0  0  0  0  0
  -10.0564    6.5927    3.1356 C   0  0  0  0  0  0  0  0  0  0  0  0
  -10.3534    6.1566    4.3940 C   0  0  0  0  0  0  0  0  0  0  0  0
  -11.8309    5.3248    4.8239 S   0  0  0  0  0  0  0  0  0  0  0  0
  -11.2445    4.2967    6.2178 C   0  0  0  0  0  0  0  0  0  0  0  0
  -10.3152    3.1946    5.7533 C   0  0  0  0  0  0  0  0  0  0  0  0
   -9.0507    6.7124    5.6436 Se  0  0  0  0  0  2  0  0  0  0  0  0
   -6.5416    8.9072    5.4415 C   0  0  0  0  0  0  0  0  0  0  0  0
   -5.3239    9.6127    5.5924 C   0  0  0  0  0  0  0  0  0  0  0  0
   -4.3456    9.5669    4.5776 C   0  0  0  0  0  0  0  0  0  0  0  0
   -3.0816   10.2655    4.6643 C   0  0  0  0  0  0  0  0  0  0  0  0
   -2.3885   10.8327    3.6291 C   0  0  0  0  0  0  0  0  0  0  0  0
   -1.1491   11.4155    3.9544 C   0  0  0  0  0  0  0  0  0  0  0  0
   -0.7853   11.3132    5.2666 C   0  0  0  0  0  0  0  0  0  0  0  0
    0.7358   11.8832    5.9101 S   0  0  0  0  0  0  0  0  0  0  0  0
    0.3314   12.0841    7.6834 C   0  0  0  0  0  0  0  0  0  0  0  0
   -0.5997   13.2517    7.9329 C   0  0  0  0  0  0  0  0  0  0  0  0
   -2.0839   10.3867    6.2629 Se  0  0  0  0  0  2  0  0  0  0  0  0
   -4.6437    8.7558    3.4837 C   0  0  0  0  0  0  0  0  0  0  0  0
   -3.5432    8.3937    2.1823 S   0  0  0  0  0  0  0  0  0  0  0  0
   -5.2717   10.3036    6.8280 C   0  0  0  0  0  0  0  0  0  0  0  0
   -6.3738   10.1247    7.6065 C   0  0  0  0  0  0  0  0  0  0  0  0
   -7.5805    9.1268    6.8228 S   0  0  0  0  0  0  0  0  0  0  0  0
   -6.6038   10.6034    8.9271 C   0  0  0  0  0  0  0  0  0  0  0  0
   -7.7413   10.4677    9.6616 C   0  0  0  0  0  0  0  0  0  0  0  0
   -7.6403   11.0037   10.9701 C   0  0  0  0  0  0  0  0  0  0  0  0
   -8.6100   10.9718   11.9841 C   0  0  0  0  0  0  0  0  0  0  0  0
   -9.9265   10.3884   11.6999 C   0  0  0  0  0  0  0  0  0  0  0  0
  -10.4470    9.3510   12.4698 C   0  0  0  0  0  0  0  0  0  0  0  0
  -11.6070    8.7108   12.0863 C   0  0  0  0  0  0  0  0  0  0  0  0
  -12.3020    9.0939   10.9414 C   0  0  0  0  0  0  0  0  0  0  0  0
  -13.7375    8.1653   10.4867 S   0  0  0  0  0  0  0  0  0  0  0  0
  -13.5673    7.9969    8.6688 C   0  0  0  0  0  0  0  0  0  0  0  0
  -12.2493    7.3652    8.2681 C   0  0  0  0  0  0  0  0  0  0  0  0
  -11.8228   10.1958   10.2389 C   0  0  0  0  0  0  0  0  0  0  0  0
  -12.4915   10.6796    9.1699 F   0  0  0  0  0  0  0  0  0  0  0  0
  -10.6461   10.8230   10.5903 C   0  0  0  0  0  0  0  0  0  0  0  0
   -8.2335   11.4777   13.2183 C   0  0  0  0  0  0  0  0  0  0  0  0
   -6.9461   12.0111   13.4748 C   0  0  0  0  0  0  0  0  0  0  0  0
   -5.9733   12.0326   12.4634 C   0  0  0  0  0  0  0  0  0  0  0  0
   -4.5932   12.4722   12.7003 C   0  0  0  0  0  0  0  0  0  0  0  0
   -3.8619   11.9718   13.7741 C   0  0  0  0  0  0  0  0  0  0  0  0
   -2.5329   12.3043   13.9532 C   0  0  0  0  0  0  0  0  0  0  0  0
   -1.8823   13.1441   13.0565 C   0  0  0  0  0  0  0  0  0  0  0  0
   -0.1930   13.6380   13.1537 S   0  0  0  0  0  0  0  0  0  0  0  0
    0.5578   12.4334   14.3021 C   0  0  0  0  0  0  0  0  0  0  0  0
    0.6394   11.0420   13.7039 C   0  0  0  0  0  0  0  0  0  0  0  0
   -2.6342   13.6566   11.9983 C   0  0  0  0  0  0  0  0  0  0  0  0
   -3.9595   13.3379   11.8108 C   0  0  0  0  0  0  0  0  0  0  0  0
   -2.0381   14.4849   11.1157 F   0  0  0  0  0  0  0  0  0  0  0  0
   -6.3563   11.5426   11.2225 C   0  0  0  0  0  0  0  0  0  0  0  0
   -5.3280   11.4113    9.8168 S   0  0  0  0  0  0  0  0  0  0  0  0
   -6.8450   12.5082   14.8085 C   0  0  0  0  0  0  0  0  0  0  0  0
   -7.9802   12.3465   15.5179 C   0  0  0  0  0  0  0  0  0  0  0  0
   -9.2544   11.5838   14.6286 S   0  0  0  0  0  0  0  0  0  0  0  0
   12.9542  -19.3852   -3.6456 H   0  0  0  0  0  0  0  0  0  0  0  0
   13.6881  -16.9598   -4.2426 H   0  0  0  0  0  0  0  0  0  0  0  0
   14.0511  -15.7347   -6.1675 H   0  0  0  0  0  0  0  0  0  0  0  0
   15.8872  -13.9603   -6.3227 H   0  0  0  0  0  0  0  0  0  0  0  0
   15.1026   -8.9222   -4.9648 H   0  0  0  0  0  0  0  0  0  0  0  0
   13.8516  -10.0065   -4.3073 H   0  0  0  0  0  0  0  0  0  0  0  0
   13.0817  -10.5173   -6.6352 H   0  0  0  0  0  0  0  0  0  0  0  0
   13.0315   -8.7730   -6.3537 H   0  0  0  0  0  0  0  0  0  0  0  0
   14.3533   -9.4764   -7.2913 H   0  0  0  0  0  0  0  0  0  0  0  0
    6.6261  -15.8820   -3.4823 H   0  0  0  0  0  0  0  0  0  0  0  0
    4.6644  -17.5194   -3.4356 H   0  0  0  0  0  0  0  0  0  0  0  0
    6.5793  -21.6512   -5.0228 H   0  0  0  0  0  0  0  0  0  0  0  0
    5.0239  -22.5067   -5.1637 H   0  0  0  0  0  0  0  0  0  0  0  0
    6.0187  -20.3347   -7.0887 H   0  0  0  0  0  0  0  0  0  0  0  0
    4.4764  -21.1910   -7.2149 H   0  0  0  0  0  0  0  0  0  0  0  0
    5.9985  -22.0679   -7.4316 H   0  0  0  0  0  0  0  0  0  0  0  0
    6.9565  -14.7674   -5.3999 H   0  0  0  0  0  0  0  0  0  0  0  0
    8.9257  -10.4871   -6.2227 H   0  0  0  0  0  0  0  0  0  0  0  0
    7.7292   -6.1860   -7.9480 H   0  0  0  0  0  0  0  0  0  0  0  0
   10.0150   -5.1201   -7.5528 H   0  0  0  0  0  0  0  0  0  0  0  0
   11.9508   -7.7704   -3.9615 H   0  0  0  0  0  0  0  0  0  0  0  0
   13.3113   -6.6409   -3.7515 H   0  0  0  0  0  0  0  0  0  0  0  0
   11.7063   -4.8282   -3.1140 H   0  0  0  0  0  0  0  0  0  0  0  0
   10.3550   -5.9504   -3.3082 H   0  0  0  0  0  0  0  0  0  0  0  0
   11.5421   -6.2144   -2.0262 H   0  0  0  0  0  0  0  0  0  0  0  0
    1.9312   -9.3896   -7.7447 H   0  0  0  0  0  0  0  0  0  0  0  0
   -0.0918  -10.9020   -7.3533 H   0  0  0  0  0  0  0  0  0  0  0  0
   -0.0028  -15.0257   -4.0284 H   0  0  0  0  0  0  0  0  0  0  0  0
    1.3868  -13.9255   -3.8603 H   0  0  0  0  0  0  0  0  0  0  0  0
    2.0752  -16.0957   -4.9306 H   0  0  0  0  0  0  0  0  0  0  0  0
    2.2827  -14.7511   -6.0575 H   0  0  0  0  0  0  0  0  0  0  0  0
    0.8916  -15.8317   -6.2185 H   0  0  0  0  0  0  0  0  0  0  0  0
    2.3252   -7.7569   -6.2088 H   0  0  0  0  0  0  0  0  0  0  0  0
    0.9489   -5.7909   -6.2458 H   0  0  0  0  0  0  0  0  0  0  0  0
   -2.2897   -3.8044   -3.9472 H   0  0  0  0  0  0  0  0  0  0  0  0
   -4.1379   -5.3729   -4.3298 H   0  0  0  0  0  0  0  0  0  0  0  0
   -6.1427   -7.8227   -8.1429 H   0  0  0  0  0  0  0  0  0  0  0  0
   -4.4821   -7.5744   -8.7110 H   0  0  0  0  0  0  0  0  0  0  0  0
   -6.0349   -5.8283   -9.6388 H   0  0  0  0  0  0  0  0  0  0  0  0
   -4.8270   -5.0877   -8.5874 H   0  0  0  0  0  0  0  0  0  0  0  0
   -6.4696   -5.3474   -7.9927 H   0  0  0  0  0  0  0  0  0  0  0  0
   -0.6941   -4.8151   -7.7925 H   0  0  0  0  0  0  0  0  0  0  0  0
    2.5189   -0.1264   -3.0190 H   0  0  0  0  0  0  0  0  0  0  0  0
    4.2959    1.5392   -2.6233 H   0  0  0  0  0  0  0  0  0  0  0  0
    6.7154    4.6704   -5.3907 H   0  0  0  0  0  0  0  0  0  0  0  0
    5.9964    3.4830   -6.4953 H   0  0  0  0  0  0  0  0  0  0  0  0
    4.5091    4.9934   -4.2715 H   0  0  0  0  0  0  0  0  0  0  0  0
    3.7728    3.8069   -5.3560 H   0  0  0  0  0  0  0  0  0  0  0  0
    4.3785    5.3380   -6.0011 H   0  0  0  0  0  0  0  0  0  0  0  0
    3.8650   -0.5604   -7.0611 H   0  0  0  0  0  0  0  0  0  0  0  0
    0.8225    1.0830   -4.4444 H   0  0  0  0  0  0  0  0  0  0  0  0
   -0.3011    2.8456   -3.6365 H   0  0  0  0  0  0  0  0  0  0  0  0
   -0.3772    4.9716   -4.4656 H   0  0  0  0  0  0  0  0  0  0  0  0
    1.8927    6.1503   -4.4255 H   0  0  0  0  0  0  0  0  0  0  0  0
    2.4852    7.3915    0.2305 H   0  0  0  0  0  0  0  0  0  0  0  0
    3.9050    8.4156   -0.0943 H   0  0  0  0  0  0  0  0  0  0  0  0
    2.4452   10.0785   -1.2581 H   0  0  0  0  0  0  0  0  0  0  0  0
    1.8961    9.8267    0.4058 H   0  0  0  0  0  0  0  0  0  0  0  0
    1.0270    9.0717   -0.9335 H   0  0  0  0  0  0  0  0  0  0  0  0
   -6.0200    2.8627    0.6221 H   0  0  0  0  0  0  0  0  0  0  0  0
   -8.2824    1.6888    0.4157 H   0  0  0  0  0  0  0  0  0  0  0  0
  -10.1579   -0.1831   -4.1644 H   0  0  0  0  0  0  0  0  0  0  0  0
   -8.4583    0.3441   -4.2246 H   0  0  0  0  0  0  0  0  0  0  0  0
  -10.9000    2.2012   -4.0546 H   0  0  0  0  0  0  0  0  0  0  0  0
   -9.9393    1.9165   -5.5133 H   0  0  0  0  0  0  0  0  0  0  0  0
   -9.2156    2.7360   -4.1252 H   0  0  0  0  0  0  0  0  0  0  0  0
   -5.8872    5.0310    0.1917 H   0  0  0  0  0  0  0  0  0  0  0  0
   -6.6020    6.4543    2.0090 H   0  0  0  0  0  0  0  0  0  0  0  0
   -8.5184    7.7221    2.0858 H   0  0  0  0  0  0  0  0  0  0  0  0
  -10.6980    6.3962    2.2939 H   0  0  0  0  0  0  0  0  0  0  0  0
  -12.1501    3.8946    6.6697 H   0  0  0  0  0  0  0  0  0  0  0  0
  -10.7509    4.9680    6.9272 H   0  0  0  0  0  0  0  0  0  0  0  0
  -10.0083    2.5873    6.6020 H   0  0  0  0  0  0  0  0  0  0  0  0
   -9.4239    3.6191    5.2916 H   0  0  0  0  0  0  0  0  0  0  0  0
  -10.8135    2.5576    5.0264 H   0  0  0  0  0  0  0  0  0  0  0  0
   -2.7922   10.8918    2.6325 H   0  0  0  0  0  0  0  0  0  0  0  0
   -0.5343   11.9194    3.2291 H   0  0  0  0  0  0  0  0  0  0  0  0
    1.2959   12.2341    8.1671 H   0  0  0  0  0  0  0  0  0  0  0  0
   -0.0994   11.1377    8.0258 H   0  0  0  0  0  0  0  0  0  0  0  0
   -1.5610   13.0894    7.4448 H   0  0  0  0  0  0  0  0  0  0  0  0
   -0.7719   13.3697    9.0001 H   0  0  0  0  0  0  0  0  0  0  0  0
   -0.1667   14.1718    7.5479 H   0  0  0  0  0  0  0  0  0  0  0  0
   -4.4555   10.9296    7.1477 H   0  0  0  0  0  0  0  0  0  0  0  0
   -8.6169    9.9733    9.2810 H   0  0  0  0  0  0  0  0  0  0  0  0
   -9.9131    9.0150   13.3452 H   0  0  0  0  0  0  0  0  0  0  0  0
  -11.9873    7.8800   12.6599 H   0  0  0  0  0  0  0  0  0  0  0  0
  -13.7081    8.9717    8.2074 H   0  0  0  0  0  0  0  0  0  0  0  0
  -14.4057    7.3541    8.4009 H   0  0  0  0  0  0  0  0  0  0  0  0
  -12.1155    6.4109    8.7740 H   0  0  0  0  0  0  0  0  0  0  0  0
  -11.4100    8.0109    8.5215 H   0  0  0  0  0  0  0  0  0  0  0  0
  -12.2400    7.2001    7.1917 H   0  0  0  0  0  0  0  0  0  0  0  0
  -10.3066   11.6617   10.0020 H   0  0  0  0  0  0  0  0  0  0  0  0
   -4.3314   11.2874   14.4648 H   0  0  0  0  0  0  0  0  0  0  0  0
   -2.0047   11.8956   14.7994 H   0  0  0  0  0  0  0  0  0  0  0  0
    0.0067   12.4528   15.2414 H   0  0  0  0  0  0  0  0  0  0  0  0
    1.5541   12.8390   14.4779 H   0  0  0  0  0  0  0  0  0  0  0  0
   -0.3516   10.6559   13.4739 H   0  0  0  0  0  0  0  0  0  0  0  0
    1.1223   10.3650   14.4059 H   0  0  0  0  0  0  0  0  0  0  0  0
    1.2204   11.0627   12.7849 H   0  0  0  0  0  0  0  0  0  0  0  0
   -4.4890   13.7723   10.9780 H   0  0  0  0  0  0  0  0  0  0  0  0
   -5.9618   12.9832   15.1955 H   0  0  0  0  0  0  0  0  0  0  0  0
   -8.1680   12.6326   16.5343 H   0  0  0  0  0  0  0  0  0  0  0  0
  1  2  2  0  0  0  0
  2  3  1  0  0  0  0
  3  4  2  0  0  0  0
  4  5  1  0  0  0  0
  5  6  2  0  0  0  0
  6  7  1  0  0  0  0
  7  8  2  0  0  0  0
  8  9  1  0  0  0  0
  9 10  1  0  0  0  0
 10 11  1  0  0  0  0
  8 12  1  0  0  0  0
  4 13  1  0  0  0  0
 13 14  2  0  0  0  0
 14 15  1  0  0  0  0
 15 16  1  0  0  0  0
 16 17  2  0  0  0  0
 17 18  1  0  0  0  0
 18 19  2  0  0  0  0
 19 20  1  0  0  0  0
 20 21  1  0  0  0  0
 21 22  1  0  0  0  0
 19 23  1  0  0  0  0
 15 24  2  0  0  0  0
 24 25  1  0  0  0  0
 14 26  1  0  0  0  0
 26 27  2  0  0  0  0
 27 28  1  0  0  0  0
 27 29  1  0  0  0  0
 29 30  2  0  0  0  0
 30 31  1  0  0  0  0
 31 32  2  0  0  0  0
 32 33  1  0  0  0  0
 33 34  2  0  0  0  0
 34 35  1  0  0  0  0
 35 36  2  0  0  0  0
 36 37  1  0  0  0  0
 37 38  1  0  0  0  0
 38 39  1  0  0  0  0
 36 40  1  0  0  0  0
 32 41  1  0  0  0  0
 41 42  2  0  0  0  0
 42 43  1  0  0  0  0
 43 44  1  0  0  0  0
 44 45  2  0  0  0  0
 45 46  1  0  0  0  0
 46 47  2  0  0  0  0
 47 48  1  0  0  0  0
 48 49  1  0  0  0  0
 49 50  1  0  0  0  0
 47 51  1  0  0  0  0
 43 52  2  0  0  0  0
 52 53  1  0  0  0  0
 42 54  1  0  0  0  0
 54 55  2  0  0  0  0
 55 56  1  0  0  0  0
 55 57  1  0  0  0  0
 57 58  2  0  0  0  0
 58 59  1  0  0  0  0
 59 60  2  0  0  0  0
 60 61  1  0  0  0  0
 61 62  2  0  0  0  0
 62 63  1  0  0  0  0
 63 64  2  0  0  0  0
 64 65  1  0  0  0  0
 65 66  1  0  0  0  0
 66 67  1  0  0  0  0
 64 68  1  0  0  0  0
 68 69  1  0  0  0  0
 68 70  2  0  0  0  0
 60 71  1  0  0  0  0
 71 72  2  0  0  0  0
 72 73  1  0  0  0  0
 73 74  1  0  0  0  0
 74 75  2  0  0  0  0
 75 76  1  0  0  0  0
 76 77  2  0  0  0  0
 77 78  1  0  0  0  0
 78 79  1  0  0  0  0
 79 80  1  0  0  0  0
 77 81  1  0  0  0  0
 81 82  2  0  0  0  0
 81 83  1  0  0  0  0
 73 84  2  0  0  0  0
 84 85  1  0  0  0  0
 72 86  1  0  0  0  0
 86 87  2  0  0  0  0
 87 88  1  0  0  0  0
 87 89  1  0  0  0  0
 89 90  2  0  0  0  0
 90 91  1  0  0  0  0
 91 92  2  0  0  0  0
 92 93  1  0  0  0  0
 93 94  2  0  0  0  0
 94 95  1  0  0  0  0
 95 96  2  0  0  0  0
 96 97  1  0  0  0  0
 97 98  1  0  0  0  0
 98 99  1  0  0  0  0
 96100  1  0  0  0  0
 92101  1  0  0  0  0
101102  2  0  0  0  0
102103  1  0  0  0  0
103104  1  0  0  0  0
104105  2  0  0  0  0
105106  1  0  0  0  0
106107  2  0  0  0  0
107108  1  0  0  0  0
108109  1  0  0  0  0
109110  1  0  0  0  0
107111  1  0  0  0  0
103112  2  0  0  0  0
112113  1  0  0  0  0
102114  1  0  0  0  0
114115  2  0  0  0  0
115116  1  0  0  0  0
115117  1  0  0  0  0
117118  2  0  0  0  0
118119  1  0  0  0  0
119120  2  0  0  0  0
120121  1  0  0  0  0
121122  2  0  0  0  0
122123  1  0  0  0  0
123124  2  0  0  0  0
124125  1  0  0  0  0
125126  1  0  0  0  0
126127  1  0  0  0  0
124128  1  0  0  0  0
120129  1  0  0  0  0
129130  2  0  0  0  0
130131  1  0  0  0  0
131132  1  0  0  0  0
132133  2  0  0  0  0
133134  1  0  0  0  0
134135  2  0  0  0  0
135136  1  0  0  0  0
136137  1  0  0  0  0
137138  1  0  0  0  0
135139  1  0  0  0  0
131140  2  0  0  0  0
140141  1  0  0  0  0
130142  1  0  0  0  0
142143  2  0  0  0  0
143144  1  0  0  0  0
143145  1  0  0  0  0
145146  2  0  0  0  0
146147  1  0  0  0  0
147148  2  0  0  0  0
148149  1  0  0  0  0
149150  2  0  0  0  0
150151  1  0  0  0  0
151152  2  0  0  0  0
152153  1  0  0  0  0
153154  1  0  0  0  0
154155  1  0  0  0  0
152156  1  0  0  0  0
156157  1  0  0  0  0
156158  2  0  0  0  0
148159  1  0  0  0  0
159160  2  0  0  0  0
160161  1  0  0  0  0
161162  1  0  0  0  0
162163  2  0  0  0  0
163164  1  0  0  0  0
164165  2  0  0  0  0
165166  1  0  0  0  0
166167  1  0  0  0  0
167168  1  0  0  0  0
165169  1  0  0  0  0
169170  2  0  0  0  0
169171  1  0  0  0  0
161172  2  0  0  0  0
172173  1  0  0  0  0
160174  1  0  0  0  0
174175  2  0  0  0  0
175176  1  0  0  0  0
 25  1  1  0  0  0  0
 53 29  1  0  0  0  0
 85 57  1  0  0  0  0
113 89  1  0  0  0  0
141117  1  0  0  0  0
173145  1  0  0  0  0
 24  3  1  0  0  0  0
 52 31  1  0  0  0  0
 84 59  1  0  0  0  0
112 91  1  0  0  0  0
140119  1  0  0  0  0
172147  1  0  0  0  0
 12  5  1  0  0  0  0
 28 13  1  0  0  0  0
 40 33  1  0  0  0  0
 56 41  1  0  0  0  0
 70 61  1  0  0  0  0
 88 71  1  0  0  0  0
100 93  1  0  0  0  0
116101  1  0  0  0  0
128121  1  0  0  0  0
144129  1  0  0  0  0
158149  1  0  0  0  0
176159  1  0  0  0  0
 23 16  1  0  0  0  0
 51 44  1  0  0  0  0
 82 74  1  0  0  0  0
111104  1  0  0  0  0
139132  1  0  0  0  0
170162  1  0  0  0  0
  1177  1  0  0  0  0
  2178  1  0  0  0  0
  6179  1  0  0  0  0
  7180  1  0  0  0  0
 10181  1  0  0  0  0
 10182  1  0  0  0  0
 11183  1  0  0  0  0
 11184  1  0  0  0  0
 11185  1  0  0  0  0
 17186  1  0  0  0  0
 18187  1  0  0  0  0
 21188  1  0  0  0  0
 21189  1  0  0  0  0
 22190  1  0  0  0  0
 22191  1  0  0  0  0
 22192  1  0  0  0  0
 26193  1  0  0  0  0
 30194  1  0  0  0  0
 34195  1  0  0  0  0
 35196  1  0  0  0  0
 38197  1  0  0  0  0
 38198  1  0  0  0  0
 39199  1  0  0  0  0
 39200  1  0  0  0  0
 39201  1  0  0  0  0
 45202  1  0  0  0  0
 46203  1  0  0  0  0
 49204  1  0  0  0  0
 49205  1  0  0  0  0
 50206  1  0  0  0  0
 50207  1  0  0  0  0
 50208  1  0  0  0  0
 54209  1  0  0  0  0
 58210  1  0  0  0  0
 62211  1  0  0  0  0
 63212  1  0  0  0  0
 66213  1  0  0  0  0
 66214  1  0  0  0  0
 67215  1  0  0  0  0
 67216  1  0  0  0  0
 67217  1  0  0  0  0
 70218  1  0  0  0  0
 75219  1  0  0  0  0
 76220  1  0  0  0  0
 79221  1  0  0  0  0
 79222  1  0  0  0  0
 80223  1  0  0  0  0
 80224  1  0  0  0  0
 80225  1  0  0  0  0
 82226  1  0  0  0  0
 86227  1  0  0  0  0
 90228  1  0  0  0  0
 94229  1  0  0  0  0
 95230  1  0  0  0  0
 98231  1  0  0  0  0
 98232  1  0  0  0  0
 99233  1  0  0  0  0
 99234  1  0  0  0  0
 99235  1  0  0  0  0
105236  1  0  0  0  0
106237  1  0  0  0  0
109238  1  0  0  0  0
109239  1  0  0  0  0
110240  1  0  0  0  0
110241  1  0  0  0  0
110242  1  0  0  0  0
114243  1  0  0  0  0
118244  1  0  0  0  0
122245  1  0  0  0  0
123246  1  0  0  0  0
126247  1  0  0  0  0
126248  1  0  0  0  0
127249  1  0  0  0  0
127250  1  0  0  0  0
127251  1  0  0  0  0
133252  1  0  0  0  0
134253  1  0  0  0  0
137254  1  0  0  0  0
137255  1  0  0  0  0
138256  1  0  0  0  0
138257  1  0  0  0  0
138258  1  0  0  0  0
142259  1  0  0  0  0
146260  1  0  0  0  0
150261  1  0  0  0  0
151262  1  0  0  0  0
154263  1  0  0  0  0
154264  1  0  0  0  0
155265  1  0  0  0  0
155266  1  0  0  0  0
155267  1  0  0  0  0
158268  1  0  0  0  0
163269  1  0  0  0  0
164270  1  0  0  0  0
167271  1  0  0  0  0
167272  1  0  0  0  0
168273  1  0  0  0  0
168274  1  0  0  0  0
168275  1  0  0  0  0
170276  1  0  0  0  0
174277  1  0  0  0  0
175278  1  0  0  0  0
M  END
