
  xtb     03072214283D
 energy: -311.161614069591 gnorm: 0.000692986350 xtb: 6.4.1 (unknown)
185202  0     0  0            999 V2000
    5.8647   -4.0031   11.5941 C   0  0  0  0  0  0  0  0  0  0  0  0
    6.3088   -2.6063   10.6958 S   0  0  0  0  0  0  0  0  0  0  0  0
    7.8322   -3.2996   10.2780 C   0  0  0  0  0  0  0  0  0  0  0  0
    7.9760   -4.5468   10.7961 C   0  0  0  0  0  0  0  0  0  0  0  0
    9.0271   -5.3991   10.6723 O   0  0  0  0  0  0  0  0  0  0  0  0
   10.0292   -5.0175    9.7588 C   0  0  0  0  0  0  0  0  0  0  0  0
    6.8277   -4.9679   11.5516 C   0  0  0  0  0  0  0  0  0  0  0  0
    6.8002   -6.2071   12.1602 N   0  0  0  0  0  0  0  0  0  0  0  0
    5.7212   -6.9951   12.4581 C   0  0  0  0  0  0  0  0  0  0  0  0
    4.5339   -7.1264   11.8256 C   0  0  0  0  0  0  0  0  0  0  0  0
    4.0962   -6.6373   10.5584 C   0  0  0  0  0  0  0  0  0  0  0  0
    2.8415   -6.7935   10.0303 C   0  0  0  0  0  0  0  0  0  0  0  0
    2.6941   -6.3028    8.7112 C   0  0  0  0  0  0  0  0  0  0  0  0
    1.5381   -6.2815    7.9004 C   0  0  0  0  0  0  0  0  0  0  0  0
    0.2773   -6.8637    8.3105 C   0  0  0  0  0  0  0  0  0  0  0  0
   -0.9721   -6.3930    8.0135 C   0  0  0  0  0  0  0  0  0  0  0  0
   -2.0582   -7.1945    8.4193 C   0  0  0  0  0  0  0  0  0  0  0  0
   -1.7087   -8.3500    9.0517 C   0  0  0  0  0  0  0  0  0  0  0  0
   -2.7325   -9.6218    9.6811 S   0  0  0  0  0  0  0  0  0  0  0  0
   -4.3027   -8.7407   10.0045 C   0  0  0  0  0  0  0  0  0  0  0  0
   -4.1625   -7.7045   11.1017 C   0  0  0  0  0  0  0  0  0  0  0  0
    0.1505   -8.5198    9.2225 Se  0  0  0  0  0  2  0  0  0  0  0  0
    1.6807   -5.6897    6.6470 C   0  0  0  0  0  0  0  0  0  0  0  0
    2.8774   -5.0848    6.1914 C   0  0  0  0  0  0  0  0  0  0  0  0
    4.0131   -5.0423    7.0289 C   0  0  0  0  0  0  0  0  0  0  0  0
    5.1830   -4.2624    6.6969 C   0  0  0  0  0  0  0  0  0  0  0  0
    5.2035   -3.0738    6.0133 C   0  0  0  0  0  0  0  0  0  0  0  0
    6.4595   -2.4553    5.8677 C   0  0  0  0  0  0  0  0  0  0  0  0
    7.4947   -3.1299    6.4463 C   0  0  0  0  0  0  0  0  0  0  0  0
    9.1931   -2.6930    6.5143 S   0  0  0  0  0  0  0  0  0  0  0  0
    9.1216   -0.8641    6.4599 C   0  0  0  0  0  0  0  0  0  0  0  0
    8.4555   -0.2753    7.6872 C   0  0  0  0  0  0  0  0  0  0  0  0
    6.9205   -4.7082    7.2797 Se  0  0  0  0  0  2  0  0  0  0  0  0
    3.8959   -5.7251    8.2357 C   0  0  0  0  0  0  0  0  0  0  0  0
    5.1709   -5.8872    9.3976 S   0  0  0  0  0  0  0  0  0  0  0  0
    2.7655   -4.6285    4.8574 C   0  0  0  0  0  0  0  0  0  0  0  0
    1.5374   -4.8383    4.3031 C   0  0  0  0  0  0  0  0  0  0  0  0
    0.4415   -5.6286    5.4166 S   0  0  0  0  0  0  0  0  0  0  0  0
    1.1077   -4.4429    3.0060 C   0  0  0  0  0  0  0  0  0  0  0  0
   -0.1075   -4.6166    2.4148 C   0  0  0  0  0  0  0  0  0  0  0  0
   -0.2116   -4.0193    1.1334 C   0  0  0  0  0  0  0  0  0  0  0  0
   -1.3283   -3.9972    0.2673 C   0  0  0  0  0  0  0  0  0  0  0  0
   -2.4907   -4.8121    0.5161 C   0  0  0  0  0  0  0  0  0  0  0  0
   -2.5251   -6.0503    1.1035 C   0  0  0  0  0  0  0  0  0  0  0  0
   -3.7951   -6.6333    1.2562 C   0  0  0  0  0  0  0  0  0  0  0  0
   -4.8373   -5.8795    0.7923 C   0  0  0  0  0  0  0  0  0  0  0  0
   -6.4991   -6.4244    0.8189 S   0  0  0  0  0  0  0  0  0  0  0  0
   -7.3948   -4.9523    0.2131 C   0  0  0  0  0  0  0  0  0  0  0  0
   -7.5390   -3.8863    1.2802 C   0  0  0  0  0  0  0  0  0  0  0  0
   -4.2313   -4.2609    0.0423 Se  0  0  0  0  0  2  0  0  0  0  0  0
   -1.2296   -3.1325   -0.8212 C   0  0  0  0  0  0  0  0  0  0  0  0
   -0.0664   -2.3937   -1.1387 C   0  0  0  0  0  0  0  0  0  0  0  0
    1.1112   -2.5630   -0.3747 C   0  0  0  0  0  0  0  0  0  0  0  0
    2.3611   -1.9641   -0.7705 C   0  0  0  0  0  0  0  0  0  0  0  0
    2.8026   -1.7384   -2.0486 C   0  0  0  0  0  0  0  0  0  0  0  0
    4.0622   -1.1273   -2.1765 C   0  0  0  0  0  0  0  0  0  0  0  0
    4.6876   -0.8388   -0.9953 C   0  0  0  0  0  0  0  0  0  0  0  0
    6.2832   -0.1275   -0.9101 S   0  0  0  0  0  0  0  0  0  0  0  0
    6.5615   -0.0085    0.8911 C   0  0  0  0  0  0  0  0  0  0  0  0
    5.8512    1.1800    1.5075 C   0  0  0  0  0  0  0  0  0  0  0  0
    3.6472   -1.3815    0.4787 Se  0  0  0  0  0  2  0  0  0  0  0  0
    0.9734   -3.3346    0.7757 C   0  0  0  0  0  0  0  0  0  0  0  0
    2.2130   -3.5474    1.9803 S   0  0  0  0  0  0  0  0  0  0  0  0
   -0.2874   -1.4969   -2.2119 C   0  0  0  0  0  0  0  0  0  0  0  0
   -1.5453   -1.5656   -2.7360 C   0  0  0  0  0  0  0  0  0  0  0  0
   -2.5193   -2.7820   -1.9385 S   0  0  0  0  0  0  0  0  0  0  0  0
   -2.1050   -0.7626   -3.7736 C   0  0  0  0  0  0  0  0  0  0  0  0
   -1.5782    0.3726   -4.3182 C   0  0  0  0  0  0  0  0  0  0  0  0
   -2.4074    0.9775   -5.2939 C   0  0  0  0  0  0  0  0  0  0  0  0
   -2.1565    2.1525   -6.0416 C   0  0  0  0  0  0  0  0  0  0  0  0
   -0.8385    2.7361   -6.1122 C   0  0  0  0  0  0  0  0  0  0  0  0
    0.3466    2.0520   -5.9963 C   0  0  0  0  0  0  0  0  0  0  0  0
    1.5204    2.8057   -6.1702 C   0  0  0  0  0  0  0  0  0  0  0  0
    1.3245    4.1234   -6.4535 C   0  0  0  0  0  0  0  0  0  0  0  0
    2.5978    5.2922   -6.7505 S   0  0  0  0  0  0  0  0  0  0  0  0
    2.3203    5.5589   -8.5435 C   0  0  0  0  0  0  0  0  0  0  0  0
    2.6888    4.3357   -9.3570 C   0  0  0  0  0  0  0  0  0  0  0  0
   -0.5129    4.5539   -6.4903 Se  0  0  0  0  0  2  0  0  0  0  0  0
   -3.2474    2.6512   -6.7512 C   0  0  0  0  0  0  0  0  0  0  0  0
   -4.4627    1.9485   -6.9202 C   0  0  0  0  0  0  0  0  0  0  0  0
   -4.6473    0.6924   -6.3088 C   0  0  0  0  0  0  0  0  0  0  0  0
   -5.8110   -0.1279   -6.5598 C   0  0  0  0  0  0  0  0  0  0  0  0
   -6.4806   -0.9334   -5.6809 C   0  0  0  0  0  0  0  0  0  0  0  0
   -7.5205   -1.7131   -6.2226 C   0  0  0  0  0  0  0  0  0  0  0  0
   -7.7115   -1.5735   -7.5674 C   0  0  0  0  0  0  0  0  0  0  0  0
   -8.9991   -2.3611   -8.4502 S   0  0  0  0  0  0  0  0  0  0  0  0
   -8.3969   -2.2313  -10.1702 C   0  0  0  0  0  0  0  0  0  0  0  0
   -7.2318   -3.1607  -10.4413 C   0  0  0  0  0  0  0  0  0  0  0  0
   -6.5192   -0.3138   -8.3012 Se  0  0  0  0  0  2  0  0  0  0  0  0
   -3.6287    0.2793   -5.4501 C   0  0  0  0  0  0  0  0  0  0  0  0
   -3.6667   -1.1509   -4.4550 S   0  0  0  0  0  0  0  0  0  0  0  0
   -5.4026    2.6878   -7.6892 C   0  0  0  0  0  0  0  0  0  0  0  0
   -4.9603    3.9142   -8.0673 C   0  0  0  0  0  0  0  0  0  0  0  0
   -3.3000    4.1993   -7.5403 S   0  0  0  0  0  0  0  0  0  0  0  0
   -5.6065    4.9334   -8.8349 C   0  0  0  0  0  0  0  0  0  0  0  0
   -6.5155    4.5882  -10.2777 S   0  0  0  0  0  0  0  0  0  0  0  0
   -6.7095    6.2711  -10.5974 C   0  0  0  0  0  0  0  0  0  0  0  0
   -6.1375    7.0592   -9.6460 C   0  0  0  0  0  0  0  0  0  0  0  0
   -6.1239    8.4152   -9.5883 O   0  0  0  0  0  0  0  0  0  0  0  0
   -6.8273    9.1011  -10.5953 C   0  0  0  0  0  0  0  0  0  0  0  0
   -5.5108    6.2918   -8.6104 C   0  0  0  0  0  0  0  0  0  0  0  0
   -4.9828    6.7964   -7.4456 N   0  0  0  0  0  0  0  0  0  0  0  0
   -4.5074    8.0628   -7.2228 C   0  0  0  0  0  0  0  0  0  0  0  0
   -4.4167    8.5962   -5.9941 C   0  0  0  0  0  0  0  0  0  0  0  0
   -3.7480    9.8458   -5.7211 C   0  0  0  0  0  0  0  0  0  0  0  0
   -4.4872   11.0813   -4.7434 S   0  0  0  0  0  0  0  0  0  0  0  0
   -3.1082   12.0984   -4.9165 C   0  0  0  0  0  0  0  0  0  0  0  0
   -2.1314   11.5282   -5.6723 C   0  0  0  0  0  0  0  0  0  0  0  0
   -0.9288   12.0833   -5.9985 O   0  0  0  0  0  0  0  0  0  0  0  0
   -0.6746   13.3739   -5.5033 C   0  0  0  0  0  0  0  0  0  0  0  0
   -2.4887   10.2180   -6.1363 C   0  0  0  0  0  0  0  0  0  0  0  0
   -1.6882    9.3566   -6.8616 N   0  0  0  0  0  0  0  0  0  0  0  0
   -0.3127    9.3629   -6.9069 C   0  0  0  0  0  0  0  0  0  0  0  0
    0.4010    8.2796   -7.1921 C   0  0  0  0  0  0  0  0  0  0  0  0
    4.9058   -4.0516   12.0676 H   0  0  0  0  0  0  0  0  0  0  0  0
    8.5108   -2.7407    9.6676 H   0  0  0  0  0  0  0  0  0  0  0  0
   10.5506   -4.1158   10.0948 H   0  0  0  0  0  0  0  0  0  0  0  0
   10.7297   -5.8491    9.7137 H   0  0  0  0  0  0  0  0  0  0  0  0
    9.6056   -4.8368    8.7637 H   0  0  0  0  0  0  0  0  0  0  0  0
    7.7132   -6.5718   12.3915 H   0  0  0  0  0  0  0  0  0  0  0  0
    5.8859   -7.6168   13.3319 H   0  0  0  0  0  0  0  0  0  0  0  0
    3.8057   -7.7596   12.3154 H   0  0  0  0  0  0  0  0  0  0  0  0
    2.0353   -7.2232   10.6014 H   0  0  0  0  0  0  0  0  0  0  0  0
   -1.1300   -5.4466    7.5248 H   0  0  0  0  0  0  0  0  0  0  0  0
   -3.0770   -6.9066    8.2254 H   0  0  0  0  0  0  0  0  0  0  0  0
   -4.6450   -8.3055    9.0667 H   0  0  0  0  0  0  0  0  0  0  0  0
   -4.9898   -9.5343   10.2966 H   0  0  0  0  0  0  0  0  0  0  0  0
   -3.8234   -8.1734   12.0225 H   0  0  0  0  0  0  0  0  0  0  0  0
   -5.1239   -7.2285   11.2850 H   0  0  0  0  0  0  0  0  0  0  0  0
   -3.4433   -6.9384   10.8191 H   0  0  0  0  0  0  0  0  0  0  0  0
    4.3053   -2.6020    5.6529 H   0  0  0  0  0  0  0  0  0  0  0  0
    6.5725   -1.5183    5.3494 H   0  0  0  0  0  0  0  0  0  0  0  0
    8.6131   -0.5782    5.5404 H   0  0  0  0  0  0  0  0  0  0  0  0
   10.1666   -0.5631    6.3923 H   0  0  0  0  0  0  0  0  0  0  0  0
    7.4450   -0.6627    7.8039 H   0  0  0  0  0  0  0  0  0  0  0  0
    8.4034    0.8076    7.5938 H   0  0  0  0  0  0  0  0  0  0  0  0
    9.0242   -0.5163    8.5822 H   0  0  0  0  0  0  0  0  0  0  0  0
    3.5766   -4.1961    4.3000 H   0  0  0  0  0  0  0  0  0  0  0  0
   -0.9195   -5.1112    2.9165 H   0  0  0  0  0  0  0  0  0  0  0  0
   -1.6279   -6.5739    1.3875 H   0  0  0  0  0  0  0  0  0  0  0  0
   -3.9415   -7.6042    1.6972 H   0  0  0  0  0  0  0  0  0  0  0  0
   -6.8506   -4.5813   -0.6610 H   0  0  0  0  0  0  0  0  0  0  0  0
   -8.3667   -5.3303   -0.1028 H   0  0  0  0  0  0  0  0  0  0  0  0
   -6.5595   -3.5350    1.6064 H   0  0  0  0  0  0  0  0  0  0  0  0
   -8.0930   -3.0388    0.8821 H   0  0  0  0  0  0  0  0  0  0  0  0
   -8.0707   -4.2814    2.1425 H   0  0  0  0  0  0  0  0  0  0  0  0
    2.2441   -2.0634   -2.9103 H   0  0  0  0  0  0  0  0  0  0  0  0
    4.5130   -0.9131   -3.1302 H   0  0  0  0  0  0  0  0  0  0  0  0
    7.6427    0.0785    0.9972 H   0  0  0  0  0  0  0  0  0  0  0  0
    6.2299   -0.9539    1.3312 H   0  0  0  0  0  0  0  0  0  0  0  0
    6.0682    1.2299    2.5726 H   0  0  0  0  0  0  0  0  0  0  0  0
    6.1797    2.1042    1.0380 H   0  0  0  0  0  0  0  0  0  0  0  0
    4.7717    1.0903    1.3802 H   0  0  0  0  0  0  0  0  0  0  0  0
    0.4469   -0.7907   -2.5519 H   0  0  0  0  0  0  0  0  0  0  0  0
   -0.6575    0.8043   -3.9731 H   0  0  0  0  0  0  0  0  0  0  0  0
    0.3821    0.9844   -5.8631 H   0  0  0  0  0  0  0  0  0  0  0  0
    2.5053    2.3737   -6.1145 H   0  0  0  0  0  0  0  0  0  0  0  0
    1.2695    5.8244   -8.6715 H   0  0  0  0  0  0  0  0  0  0  0  0
    2.9452    6.4129   -8.7995 H   0  0  0  0  0  0  0  0  0  0  0  0
    3.7317    4.0720   -9.1963 H   0  0  0  0  0  0  0  0  0  0  0  0
    2.5366    4.5356  -10.4158 H   0  0  0  0  0  0  0  0  0  0  0  0
    2.0684    3.4876   -9.0715 H   0  0  0  0  0  0  0  0  0  0  0  0
   -6.2531   -0.9526   -4.6288 H   0  0  0  0  0  0  0  0  0  0  0  0
   -8.1204   -2.3790   -5.6269 H   0  0  0  0  0  0  0  0  0  0  0  0
   -9.2597   -2.4852  -10.7850 H   0  0  0  0  0  0  0  0  0  0  0  0
   -8.1299   -1.1835  -10.3412 H   0  0  0  0  0  0  0  0  0  0  0  0
   -6.9223   -3.0711  -11.4805 H   0  0  0  0  0  0  0  0  0  0  0  0
   -7.5156   -4.1922  -10.2461 H   0  0  0  0  0  0  0  0  0  0  0  0
   -6.3829   -2.9085   -9.8061 H   0  0  0  0  0  0  0  0  0  0  0  0
   -6.4053    2.3570   -7.9012 H   0  0  0  0  0  0  0  0  0  0  0  0
   -7.2592    6.5639  -11.4681 H   0  0  0  0  0  0  0  0  0  0  0  0
   -7.8870    8.8270  -10.5969 H   0  0  0  0  0  0  0  0  0  0  0  0
   -6.7243   10.1590  -10.3613 H   0  0  0  0  0  0  0  0  0  0  0  0
   -6.4018    8.9005  -11.5839 H   0  0  0  0  0  0  0  0  0  0  0  0
   -5.0435    6.1916   -6.6382 H   0  0  0  0  0  0  0  0  0  0  0  0
   -4.2027    8.6060   -8.1040 H   0  0  0  0  0  0  0  0  0  0  0  0
   -4.8494    8.0779   -5.1473 H   0  0  0  0  0  0  0  0  0  0  0  0
   -3.1205   13.0599   -4.4466 H   0  0  0  0  0  0  0  0  0  0  0  0
   -1.4097   14.0949   -5.8756 H   0  0  0  0  0  0  0  0  0  0  0  0
   -0.6793   13.3884   -4.4085 H   0  0  0  0  0  0  0  0  0  0  0  0
    0.3158   13.6438   -5.8664 H   0  0  0  0  0  0  0  0  0  0  0  0
   -2.1114    8.4445   -6.9974 H   0  0  0  0  0  0  0  0  0  0  0  0
    0.1457   10.3218   -6.7283 H   0  0  0  0  0  0  0  0  0  0  0  0
    1.4707    8.3130   -7.2611 H   0  0  0  0  0  0  0  0  0  0  0  0
   -0.0755    7.3205   -7.3468 H   0  0  0  0  0  0  0  0  0  0  0  0
  1  2  1  0  0  0  0
  2  3  1  0  0  0  0
  3  4  2  0  0  0  0
  4  5  1  0  0  0  0
  5  6  1  0  0  0  0
  4  7  1  0  0  0  0
  7  8  1  0  0  0  0
  8  9  1  0  0  0  0
  9 10  2  0  0  0  0
 10 11  1  0  0  0  0
 11 12  2  0  0  0  0
 12 13  1  0  0  0  0
 13 14  2  0  0  0  0
 14 15  1  0  0  0  0
 15 16  2  0  0  0  0
 16 17  1  0  0  0  0
 17 18  2  0  0  0  0
 18 19  1  0  0  0  0
 19 20  1  0  0  0  0
 20 21  1  0  0  0  0
 18 22  1  0  0  0  0
 14 23  1  0  0  0  0
 23 24  2  0  0  0  0
 24 25  1  0  0  0  0
 25 26  1  0  0  0  0
 26 27  2  0  0  0  0
 27 28  1  0  0  0  0
 28 29  2  0  0  0  0
 29 30  1  0  0  0  0
 30 31  1  0  0  0  0
 31 32  1  0  0  0  0
 29 33  1  0  0  0  0
 25 34  2  0  0  0  0
 34 35  1  0  0  0  0
 24 36  1  0  0  0  0
 36 37  2  0  0  0  0
 37 38  1  0  0  0  0
 37 39  1  0  0  0  0
 39 40  2  0  0  0  0
 40 41  1  0  0  0  0
 41 42  2  0  0  0  0
 42 43  1  0  0  0  0
 43 44  2  0  0  0  0
 44 45  1  0  0  0  0
 45 46  2  0  0  0  0
 46 47  1  0  0  0  0
 47 48  1  0  0  0  0
 48 49  1  0  0  0  0
 46 50  1  0  0  0  0
 42 51  1  0  0  0  0
 51 52  2  0  0  0  0
 52 53  1  0  0  0  0
 53 54  1  0  0  0  0
 54 55  2  0  0  0  0
 55 56  1  0  0  0  0
 56 57  2  0  0  0  0
 57 58  1  0  0  0  0
 58 59  1  0  0  0  0
 59 60  1  0  0  0  0
 57 61  1  0  0  0  0
 53 62  2  0  0  0  0
 62 63  1  0  0  0  0
 52 64  1  0  0  0  0
 64 65  2  0  0  0  0
 65 66  1  0  0  0  0
 65 67  1  0  0  0  0
 67 68  2  0  0  0  0
 68 69  1  0  0  0  0
 69 70  2  0  0  0  0
 70 71  1  0  0  0  0
 71 72  2  0  0  0  0
 72 73  1  0  0  0  0
 73 74  2  0  0  0  0
 74 75  1  0  0  0  0
 75 76  1  0  0  0  0
 76 77  1  0  0  0  0
 74 78  1  0  0  0  0
 70 79  1  0  0  0  0
 79 80  2  0  0  0  0
 80 81  1  0  0  0  0
 81 82  1  0  0  0  0
 82 83  2  0  0  0  0
 83 84  1  0  0  0  0
 84 85  2  0  0  0  0
 85 86  1  0  0  0  0
 86 87  1  0  0  0  0
 87 88  1  0  0  0  0
 85 89  1  0  0  0  0
 81 90  2  0  0  0  0
 90 91  1  0  0  0  0
 80 92  1  0  0  0  0
 92 93  2  0  0  0  0
 93 94  1  0  0  0  0
 93 95  1  0  0  0  0
 95 96  1  0  0  0  0
 96 97  1  0  0  0  0
 97 98  2  0  0  0  0
 98 99  1  0  0  0  0
 99100  1  0  0  0  0
 98101  1  0  0  0  0
101102  1  0  0  0  0
102103  1  0  0  0  0
103104  2  0  0  0  0
104105  1  0  0  0  0
105106  1  0  0  0  0
106107  1  0  0  0  0
107108  2  0  0  0  0
108109  1  0  0  0  0
109110  1  0  0  0  0
108111  1  0  0  0  0
111112  1  0  0  0  0
112113  1  0  0  0  0
113114  2  0  0  0  0
  7  1  2  0  0  0  0
 35 11  1  0  0  0  0
 63 39  1  0  0  0  0
 91 67  1  0  0  0  0
101 95  2  0  0  0  0
111105  2  0  0  0  0
 34 13  1  0  0  0  0
 62 41  1  0  0  0  0
 90 69  1  0  0  0  0
 22 15  1  0  0  0  0
 38 23  1  0  0  0  0
 50 43  1  0  0  0  0
 66 51  1  0  0  0  0
 78 71  1  0  0  0  0
 94 79  1  0  0  0  0
 33 26  1  0  0  0  0
 61 54  1  0  0  0  0
 89 82  1  0  0  0  0
  1115  1  0  0  0  0
  3116  1  0  0  0  0
  6117  1  0  0  0  0
  6118  1  0  0  0  0
  6119  1  0  0  0  0
  8120  1  0  0  0  0
  9121  1  0  0  0  0
 10122  1  0  0  0  0
 12123  1  0  0  0  0
 16124  1  0  0  0  0
 17125  1  0  0  0  0
 20126  1  0  0  0  0
 20127  1  0  0  0  0
 21128  1  0  0  0  0
 21129  1  0  0  0  0
 21130  1  0  0  0  0
 27131  1  0  0  0  0
 28132  1  0  0  0  0
 31133  1  0  0  0  0
 31134  1  0  0  0  0
 32135  1  0  0  0  0
 32136  1  0  0  0  0
 32137  1  0  0  0  0
 36138  1  0  0  0  0
 40139  1  0  0  0  0
 44140  1  0  0  0  0
 45141  1  0  0  0  0
 48142  1  0  0  0  0
 48143  1  0  0  0  0
 49144  1  0  0  0  0
 49145  1  0  0  0  0
 49146  1  0  0  0  0
 55147  1  0  0  0  0
 56148  1  0  0  0  0
 59149  1  0  0  0  0
 59150  1  0  0  0  0
 60151  1  0  0  0  0
 60152  1  0  0  0  0
 60153  1  0  0  0  0
 64154  1  0  0  0  0
 68155  1  0  0  0  0
 72156  1  0  0  0  0
 73157  1  0  0  0  0
 76158  1  0  0  0  0
 76159  1  0  0  0  0
 77160  1  0  0  0  0
 77161  1  0  0  0  0
 77162  1  0  0  0  0
 83163  1  0  0  0  0
 84164  1  0  0  0  0
 87165  1  0  0  0  0
 87166  1  0  0  0  0
 88167  1  0  0  0  0
 88168  1  0  0  0  0
 88169  1  0  0  0  0
 92170  1  0  0  0  0
 97171  1  0  0  0  0
100172  1  0  0  0  0
100173  1  0  0  0  0
100174  1  0  0  0  0
102175  1  0  0  0  0
103176  1  0  0  0  0
104177  1  0  0  0  0
107178  1  0  0  0  0
110179  1  0  0  0  0
110180  1  0  0  0  0
110181  1  0  0  0  0
112182  1  0  0  0  0
113183  1  0  0  0  0
114184  1  0  0  0  0
114185  1  0  0  0  0
M  END
