203

C          8.02810       -4.79040       14.16110
C          8.01200       -5.66000       13.13130
C          7.79920       -5.03230       11.86790
C          7.67140       -5.64390       10.60480
C          7.82400       -7.06900       10.39660
C          7.09350       -7.85770        9.55230
C          7.49680       -9.20310        9.45320
C          8.58520       -9.53960       10.20490
S          9.21210      -11.16680       10.32840
C         10.89950      -10.86230       10.95940
C         11.80550      -10.26040        9.90520
Se         9.20720       -8.06740       11.20240
C          7.38740       -4.79430        9.53750
C          7.24640       -3.39450        9.68240
C          7.35080       -2.78280       10.94690
C          7.13190       -1.36090       11.13090
C          7.82130       -0.52130       11.96310
C          7.38380        0.81870       11.98990
C          6.31660        1.08960       11.19010
S          5.57930        2.66070       10.91420
C          6.85020        3.41170        9.81980
C          7.18430        2.54210        8.62700
Se         5.72200       -0.44110       10.27680
C          7.64130       -3.63270       12.01020
S          7.78590       -3.14850       13.67900
C          7.01830       -2.75830        8.44170
C          6.93720       -3.61560        7.38270
S          7.19160       -5.27460        7.86930
C          6.56960       -3.23860        6.05650
C          6.23730       -1.97180        5.66950
C          5.74360       -1.88480        4.35020
C          5.18730       -0.75010        3.72620
C          5.00890        0.51890        4.39780
C          5.04690        1.76540        3.83460
C          4.67730        2.83940        4.66670
C          4.30790        2.49070        5.93470
S          3.88540        3.64340        7.18150
C          3.05690        2.57340        8.40760
C          1.67960        2.14220        7.95020
Se         4.46140        0.63350        6.20260
C          4.69860       -0.95240        2.43990
C          4.72700       -2.19910        1.76660
C          5.28700       -3.33370        2.39610
C          5.31440       -4.64670        1.79230
C          6.28710       -5.59720        1.95330
C          6.05400       -6.84130        1.34060
C          4.86690       -6.94670        0.67220
S          4.39600       -8.36070       -0.23990
C          2.64750       -7.99990       -0.62670
C          1.74030       -8.18890        0.57200
Se         3.89780       -5.33800        0.75340
C          5.77500       -3.13520        3.68830
S          6.37040       -4.38580        4.75460
C          4.07020       -2.12580        0.51100
C          3.51850       -0.90760        0.24800
S          3.85370        0.25390        1.51530
C          2.64140       -0.50790       -0.79850
C          2.07480        0.72820       -0.90850
C          1.06820        0.82010       -1.89300
C          0.26760        1.94780       -2.18410
C          0.32900        3.16200       -1.40090
C          0.12540        4.44680       -1.82750
C          0.19960        5.45060       -0.84260
C          0.44670        5.00520        0.42470
S          0.60160        6.04250        1.82500
C          1.75650        5.08970        2.88560
C          1.05110        4.11550        3.80670
Se         0.56250        3.13150        0.47400
C         -0.63250        1.78650       -3.23240
C         -0.78230        0.57090       -3.94440
C          0.01580       -0.56030       -3.65050
C         -0.08670       -1.79480       -4.39460
C          0.11550       -3.06320       -3.91740
C          0.00890       -4.10550       -4.85380
C         -0.26110       -3.71420       -6.13490
S         -0.38260       -4.81520       -7.48270
C         -1.48220       -3.89100       -8.61120
C         -2.89280       -3.78800       -8.06720
Se        -0.39470       -1.84540       -6.26480
C          0.91780       -0.39770       -2.60110
S          2.00550       -1.62100       -1.98480
C         -1.84050        0.63830       -4.87510
C         -2.45440        1.85990       -4.93820
S         -1.77380        2.98720       -3.78320
C         -3.52920        2.20870       -5.79750
S         -4.71530        3.37730       -5.34570
C         -5.68380        3.07490       -6.76040
C         -5.06490        2.12640       -7.58850
C         -3.82150        1.65030       -7.04670
C         -2.99920        0.77700       -7.79310
C         -3.45630        0.36850       -9.00820
C         -2.81890       -0.50020      -10.01490
O         -1.75680       -1.07500       -9.96640
N         -3.69790       -0.53670      -11.08450
C         -3.44920       -1.28960      -12.29490
C         -3.83090       -2.75600      -12.12750
C         -4.84740        0.22080      -10.88150
O         -5.74010        0.34240      -11.68210
C         -4.69760        0.81350       -9.53620
C         -5.49650        1.68850       -8.86190
C         -6.96050        3.67000       -6.90150
S         -8.23940        2.81740       -7.70620
C         -9.42600        4.02760       -7.33230
C         -8.83830        5.08470       -6.62390
C         -7.43740        4.87810       -6.37280
C         -6.67790        5.86210       -5.70130
C         -7.32910        6.97650       -5.26570
C         -6.81990        8.15980       -4.54130
O         -5.69730        8.41880       -4.18640
N         -7.92700        8.97260       -4.33700
C         -7.86340       10.23030       -3.62440
C         -8.08700       10.02900       -2.12970
C         -9.10420        8.44490       -4.84660
O        -10.18470        8.97700       -4.78780
C         -8.72450        7.15300       -5.45850
C         -9.48370        6.24020       -6.12560
C        -10.76650        3.87350       -7.77310
S        -11.76500        5.25120       -8.13270
C        -13.07810        4.28160       -8.61360
C        -12.80380        2.93630       -8.51100
C        -11.46740        2.68710       -8.02820
C        -11.04100        1.35750       -7.80790
C        -11.91800        0.35550       -8.09470
C        -11.75880       -1.10570       -7.95290
O        -10.81190       -1.73970       -7.55680
N        -12.95800       -1.65410       -8.38670
C        -13.22870       -3.07530       -8.37210
C        -13.82250       -3.50860       -7.03610
C        -13.88870       -0.70670       -8.78790
O        -14.99460       -0.95510       -9.19830
C        -13.22490        0.60320       -8.60270
C        -13.68530        1.86430       -8.81100
H          8.16720       -5.00440       15.20260
H          8.12080       -6.72280       13.26450
H          6.23890       -7.48480        9.01390
H          6.99280       -9.91780        8.82620
H         11.25550      -11.84130       11.27830
H         10.80540      -10.21180       11.83490
H         12.80520      -10.12300       10.31200
H         11.86510      -10.91430        9.03830
H         11.42840       -9.29030        9.58220
H          8.67390       -0.85040       12.53240
H          7.86100        1.57520       12.58950
H          6.40010        4.35330        9.50870
H          7.73130        3.61130       10.42920
H          7.84530        3.08240        7.95280
H          7.68410        1.62610        8.94160
H          6.28070        2.27320        8.08130
H          6.93380       -1.69250        8.32820
H          6.35120       -1.12170        6.31860
H          5.37170        1.92730        2.82090
H          4.67720        3.86240        4.33200
H          3.00930        3.17620        9.31370
H          3.71290        1.71450        8.59240
H          1.74200        1.55510        7.03350
H          1.05140        3.01030        7.76350
H          1.21390        1.52960        8.71880
H          7.20190       -5.39760        2.48490
H          6.75470       -7.65640        1.39210
H          2.39470       -8.69350       -1.42820
H          2.60570       -6.97610       -1.01230
H          1.81140       -9.20800        0.94460
H          0.70910       -7.98860        0.28890
H          2.01520       -7.50600        1.37580
H          3.99070       -2.93980       -0.19060
H          2.40440        1.54620       -0.29160
H         -0.00890        4.69340       -2.86710
H          0.09790        6.49730       -1.07040
H          2.45440        4.57890        2.21920
H          2.29040        5.84820        3.45770
H          0.34260        4.63870        4.44430
H          0.51160        3.36050        3.23200
H          1.78520        3.61140        4.43240
H          0.27620       -3.26610       -2.87250
H          0.11600       -5.14260       -4.58710
H         -1.45550       -4.45960       -9.54030
H         -1.04280       -2.90490       -8.78450
H         -2.89970       -3.25370       -7.11640
H         -3.51900       -3.23950       -8.76780
H         -3.31960       -4.77660       -7.91240
H         -2.21670       -0.21540       -5.40970
H         -2.02490        0.47660       -7.43950
H         -4.04400       -0.82760      -13.08640
H         -2.38500       -1.20150      -12.52880
H         -4.88310       -2.84480      -11.86650
H         -3.65540       -3.28880      -13.05770
H         -3.22970       -3.21240      -11.34460
H         -6.40950        2.05270       -9.30410
H         -5.61760        5.74670       -5.54590
H         -8.63570       10.88150       -4.04080
H         -6.87470       10.65850       -3.80650
H         -9.06820        9.59460       -1.95220
H         -8.02920       10.98490       -1.61710
H         -7.32640        9.36660       -1.72280
H        -10.54080        6.39890       -6.26040
H        -13.98930        4.74120       -8.94040
H        -10.06550        1.13060       -7.41030
H        -13.92810       -3.28350       -9.18520
H        -12.28160       -3.58980       -8.55190
H        -14.01170       -4.57820       -7.04680
H        -14.76060       -2.98840       -6.85600
H        -13.13070       -3.28300       -6.22780
H        -14.68040        2.05860       -9.17830
