
  xtb     03072223353D
 energy: -448.666549770103 gnorm: 0.000886955831 xtb: 6.4.1 (unknown)
266295  0     0  0            999 V2000
    2.4328   -7.4440   13.6944 C   0  0  0  0  0  0  0  0  0  0  0  0
    3.0915   -7.2352   12.5373 C   0  0  0  0  0  0  0  0  0  0  0  0
    2.3537   -6.4443   11.6067 C   0  0  0  0  0  0  0  0  0  0  0  0
    2.7391   -6.0297   10.3174 C   0  0  0  0  0  0  0  0  0  0  0  0
    4.0557   -6.2848    9.7714 C   0  0  0  0  0  0  0  0  0  0  0  0
    4.3730   -6.6003    8.4795 C   0  0  0  0  0  0  0  0  0  0  0  0
    5.7448   -6.6997    8.1803 C   0  0  0  0  0  0  0  0  0  0  0  0
    6.5848   -6.4429    9.2261 C   0  0  0  0  0  0  0  0  0  0  0  0
    8.3277   -6.5043    9.1218 S   0  0  0  0  0  0  0  0  0  0  0  0
    8.7785   -5.9840   10.8185 C   0  0  0  0  0  0  0  0  0  0  0  0
   10.2846   -5.9406   10.9705 C   0  0  0  0  0  0  0  0  0  0  0  0
    5.6245   -6.0497   10.7955 Se  0  0  0  0  0  2  0  0  0  0  0  0
    1.7827   -5.3254    9.5885 C   0  0  0  0  0  0  0  0  0  0  0  0
    0.5054   -4.9886   10.0972 C   0  0  0  0  0  0  0  0  0  0  0  0
    0.1511   -5.3374   11.4163 C   0  0  0  0  0  0  0  0  0  0  0  0
   -1.1010   -4.9080   11.9957 C   0  0  0  0  0  0  0  0  0  0  0  0
   -1.7209   -3.7004   11.8237 C   0  0  0  0  0  0  0  0  0  0  0  0
   -2.9490   -3.5326   12.4908 C   0  0  0  0  0  0  0  0  0  0  0  0
   -3.3653   -4.6123   13.2159 C   0  0  0  0  0  0  0  0  0  0  0  0
   -4.9018   -4.6813   14.0474 S   0  0  0  0  0  0  0  0  0  0  0  0
   -4.6317   -6.0724   15.2000 C   0  0  0  0  0  0  0  0  0  0  0  0
   -3.6954   -5.7043   16.3325 C   0  0  0  0  0  0  0  0  0  0  0  0
   -2.1292   -6.0334   13.1046 Se  0  0  0  0  0  2  0  0  0  0  0  0
    1.0860   -6.0921   12.1203 C   0  0  0  0  0  0  0  0  0  0  0  0
    0.8739   -6.6962   13.7417 S   0  0  0  0  0  0  0  0  0  0  0  0
   -0.2818   -4.3077    9.1356 C   0  0  0  0  0  0  0  0  0  0  0  0
    0.3662   -4.0779    7.9594 C   0  0  0  0  0  0  0  0  0  0  0  0
    1.9975   -4.7147    7.9683 S   0  0  0  0  0  0  0  0  0  0  0  0
   -0.1371   -3.4085    6.8074 C   0  0  0  0  0  0  0  0  0  0  0  0
    0.5097   -3.1464    5.6379 C   0  0  0  0  0  0  0  0  0  0  0  0
   -0.2694   -2.4301    4.6955 C   0  0  0  0  0  0  0  0  0  0  0  0
    0.1080   -2.0284    3.3954 C   0  0  0  0  0  0  0  0  0  0  0  0
    1.4398   -2.2217    2.8615 C   0  0  0  0  0  0  0  0  0  0  0  0
    1.7851   -2.4279    1.5532 C   0  0  0  0  0  0  0  0  0  0  0  0
    3.1651   -2.4840    1.2657 C   0  0  0  0  0  0  0  0  0  0  0  0
    3.9796   -2.2969    2.3422 C   0  0  0  0  0  0  0  0  0  0  0  0
    5.7213   -2.2937    2.4675 S   0  0  0  0  0  0  0  0  0  0  0  0
    6.2741   -2.7683    0.7945 C   0  0  0  0  0  0  0  0  0  0  0  0
    6.1034   -4.2511    0.5310 C   0  0  0  0  0  0  0  0  0  0  0  0
    3.0056   -2.0352    3.9175 Se  0  0  0  0  0  2  0  0  0  0  0  0
   -0.8724   -1.3564    2.6669 C   0  0  0  0  0  0  0  0  0  0  0  0
   -2.1662   -1.0703    3.1622 C   0  0  0  0  0  0  0  0  0  0  0  0
   -2.5619   -1.5201    4.4414 C   0  0  0  0  0  0  0  0  0  0  0  0
   -3.9086   -1.3495    4.9317 C   0  0  0  0  0  0  0  0  0  0  0  0
   -4.3352   -1.2267    6.2268 C   0  0  0  0  0  0  0  0  0  0  0  0
   -5.7266   -1.1800    6.4278 C   0  0  0  0  0  0  0  0  0  0  0  0
   -6.4817   -1.2835    5.2936 C   0  0  0  0  0  0  0  0  0  0  0  0
   -8.2257   -1.1645    5.2798 S   0  0  0  0  0  0  0  0  0  0  0  0
   -8.6254   -1.5931    3.5495 C   0  0  0  0  0  0  0  0  0  0  0  0
   -8.5189   -3.0808    3.2830 C   0  0  0  0  0  0  0  0  0  0  0  0
   -5.3932   -1.4350    3.7690 Se  0  0  0  0  0  2  0  0  0  0  0  0
   -1.5741   -2.1668    5.1824 C   0  0  0  0  0  0  0  0  0  0  0  0
   -1.7734   -2.7869    6.8020 S   0  0  0  0  0  0  0  0  0  0  0  0
   -2.8930   -0.2292    2.2827 C   0  0  0  0  0  0  0  0  0  0  0  0
   -2.2102    0.0996    1.1519 C   0  0  0  0  0  0  0  0  0  0  0  0
   -0.6438   -0.6658    1.0866 S   0  0  0  0  0  0  0  0  0  0  0  0
   -2.6244    0.9532    0.0859 C   0  0  0  0  0  0  0  0  0  0  0  0
   -3.8935    1.2461   -0.3148 C   0  0  0  0  0  0  0  0  0  0  0  0
   -3.9492    2.0613   -1.4740 C   0  0  0  0  0  0  0  0  0  0  0  0
   -5.0815    2.4480   -2.2270 C   0  0  0  0  0  0  0  0  0  0  0  0
   -6.4274    2.0608   -1.8643 C   0  0  0  0  0  0  0  0  0  0  0  0
   -6.8690    0.8944   -1.3036 C   0  0  0  0  0  0  0  0  0  0  0  0
   -8.2477    0.8222   -1.0265 C   0  0  0  0  0  0  0  0  0  0  0  0
   -8.9650    1.9383   -1.3508 C   0  0  0  0  0  0  0  0  0  0  0  0
  -10.7016    2.0539   -1.1780 S   0  0  0  0  0  0  0  0  0  0  0  0
  -10.9623    3.8584   -1.2879 C   0  0  0  0  0  0  0  0  0  0  0  0
  -10.4951    4.5820   -0.0418 C   0  0  0  0  0  0  0  0  0  0  0  0
   -7.8649    3.2577   -2.1296 Se  0  0  0  0  0  2  0  0  0  0  0  0
   -4.8235    3.1805   -3.3841 C   0  0  0  0  0  0  0  0  0  0  0  0
   -3.5323    3.6029   -3.7704 C   0  0  0  0  0  0  0  0  0  0  0  0
   -2.4017    3.2327   -3.0142 C   0  0  0  0  0  0  0  0  0  0  0  0
   -1.0647    3.5393   -3.4794 C   0  0  0  0  0  0  0  0  0  0  0  0
   -0.6229    4.7017   -4.0506 C   0  0  0  0  0  0  0  0  0  0  0  0
    0.7011    4.6908   -4.5343 C   0  0  0  0  0  0  0  0  0  0  0  0
    1.3526    3.5031   -4.3810 C   0  0  0  0  0  0  0  0  0  0  0  0
    2.9765    3.0934   -4.8996 S   0  0  0  0  0  0  0  0  0  0  0  0
    2.9650    3.7610   -6.6050 C   0  0  0  0  0  0  0  0  0  0  0  0
    1.8511    3.1591   -7.4342 C   0  0  0  0  0  0  0  0  0  0  0  0
    0.2847    2.2181   -3.5295 Se  0  0  0  0  0  2  0  0  0  0  0  0
   -2.6518    2.4353   -1.9046 C   0  0  0  0  0  0  0  0  0  0  0  0
   -1.4141    1.7526   -0.8921 S   0  0  0  0  0  0  0  0  0  0  0  0
   -3.5212    4.1543   -5.0723 C   0  0  0  0  0  0  0  0  0  0  0  0
   -4.7208    4.0766   -5.7181 C   0  0  0  0  0  0  0  0  0  0  0  0
   -5.9862    3.4842   -4.6647 S   0  0  0  0  0  0  0  0  0  0  0  0
   -4.7626    3.9912   -7.1501 C   0  0  0  0  0  0  0  0  0  0  0  0
   -5.2148    2.8959   -7.8288 C   0  0  0  0  0  0  0  0  0  0  0  0
   -4.3948    2.5395   -8.9334 C   0  0  0  0  0  0  0  0  0  0  0  0
   -4.3093    1.2535   -9.5221 C   0  0  0  0  0  0  0  0  0  0  0  0
   -5.3762    0.2966   -9.5916 C   0  0  0  0  0  0  0  0  0  0  0  0
   -5.3968   -0.8021  -10.4192 C   0  0  0  0  0  0  0  0  0  0  0  0
   -6.5475   -1.6040  -10.3757 C   0  0  0  0  0  0  0  0  0  0  0  0
   -7.5161   -1.1839   -9.5070 C   0  0  0  0  0  0  0  0  0  0  0  0
   -8.9911   -2.0648   -9.1980 S   0  0  0  0  0  0  0  0  0  0  0  0
  -10.0002   -0.8112   -8.3323 C   0  0  0  0  0  0  0  0  0  0  0  0
  -10.5173    0.2584   -9.2723 C   0  0  0  0  0  0  0  0  0  0  0  0
   -6.9875    0.3809   -8.6156 Se  0  0  0  0  0  2  0  0  0  0  0  0
   -3.0045    0.8934   -9.8927 C   0  0  0  0  0  0  0  0  0  0  0  0
   -1.9378    1.8069  -10.0028 C   0  0  0  0  0  0  0  0  0  0  0  0
   -2.1513    3.1901   -9.7711 C   0  0  0  0  0  0  0  0  0  0  0  0
   -1.0643    4.1244   -9.9142 C   0  0  0  0  0  0  0  0  0  0  0  0
   -0.0897    4.0803  -10.8765 C   0  0  0  0  0  0  0  0  0  0  0  0
    0.9647    5.0060  -10.7493 C   0  0  0  0  0  0  0  0  0  0  0  0
    0.8713    5.8197   -9.6568 C   0  0  0  0  0  0  0  0  0  0  0  0
    1.9848    7.0363   -9.0813 S   0  0  0  0  0  0  0  0  0  0  0  0
    3.1255    7.2225  -10.5046 C   0  0  0  0  0  0  0  0  0  0  0  0
    4.0515    8.3954  -10.2512 C   0  0  0  0  0  0  0  0  0  0  0  0
   -0.6859    5.4977   -8.6615 Se  0  0  0  0  0  2  0  0  0  0  0  0
   -3.3465    3.4736   -9.1207 C   0  0  0  0  0  0  0  0  0  0  0  0
   -3.5468    4.8626   -8.0761 S   0  0  0  0  0  0  0  0  0  0  0  0
   -0.6711    1.1773   -9.8671 C   0  0  0  0  0  0  0  0  0  0  0  0
   -0.7620   -0.1423   -9.5333 C   0  0  0  0  0  0  0  0  0  0  0  0
   -2.3969   -0.7463   -9.7451 S   0  0  0  0  0  0  0  0  0  0  0  0
    0.1110   -0.7642   -8.5760 C   0  0  0  0  0  0  0  0  0  0  0  0
   -0.3677   -1.2300   -7.3876 C   0  0  0  0  0  0  0  0  0  0  0  0
    0.5732   -1.1839   -6.3306 C   0  0  0  0  0  0  0  0  0  0  0  0
    0.2836   -1.3300   -4.9594 C   0  0  0  0  0  0  0  0  0  0  0  0
   -1.0421   -1.7138   -4.5178 C   0  0  0  0  0  0  0  0  0  0  0  0
   -1.8264   -2.7126   -5.0269 C   0  0  0  0  0  0  0  0  0  0  0  0
   -3.1191   -2.8200   -4.4770 C   0  0  0  0  0  0  0  0  0  0  0  0
   -3.4111   -1.8840   -3.5306 C   0  0  0  0  0  0  0  0  0  0  0  0
   -4.9282   -1.6944   -2.6706 S   0  0  0  0  0  0  0  0  0  0  0  0
   -6.0833   -1.5046   -4.0829 C   0  0  0  0  0  0  0  0  0  0  0  0
   -5.7906   -0.2557   -4.8856 C   0  0  0  0  0  0  0  0  0  0  0  0
   -1.9709   -0.7259   -3.2072 Se  0  0  0  0  0  2  0  0  0  0  0  0
    1.2906   -0.9521   -4.0817 C   0  0  0  0  0  0  0  0  0  0  0  0
    2.5744   -0.5366   -4.5080 C   0  0  0  0  0  0  0  0  0  0  0  0
    2.8956   -0.4762   -5.8827 C   0  0  0  0  0  0  0  0  0  0  0  0
    4.2329   -0.1514   -6.3343 C   0  0  0  0  0  0  0  0  0  0  0  0
    4.6031    0.5324   -7.4599 C   0  0  0  0  0  0  0  0  0  0  0  0
    5.9854    0.5998   -7.7189 C   0  0  0  0  0  0  0  0  0  0  0  0
    6.7755   -0.0636   -6.8295 C   0  0  0  0  0  0  0  0  0  0  0  0
    8.5281   -0.1229   -6.9144 S   0  0  0  0  0  0  0  0  0  0  0  0
    8.7799   -1.9080   -7.2750 C   0  0  0  0  0  0  0  0  0  0  0  0
    8.8095   -2.7558   -6.0213 C   0  0  0  0  0  0  0  0  0  0  0  0
    5.7518   -0.8215   -5.4410 Se  0  0  0  0  0  2  0  0  0  0  0  0
    1.8438   -0.7342   -6.7616 C   0  0  0  0  0  0  0  0  0  0  0  0
    1.8274   -0.4263   -8.4893 S   0  0  0  0  0  0  0  0  0  0  0  0
    3.3627   -0.1049   -3.4123 C   0  0  0  0  0  0  0  0  0  0  0  0
    2.7255   -0.1858   -2.2102 C   0  0  0  0  0  0  0  0  0  0  0  0
    1.1241   -0.8769   -2.3476 S   0  0  0  0  0  0  0  0  0  0  0  0
    3.2439    0.2173   -0.9453 C   0  0  0  0  0  0  0  0  0  0  0  0
    2.5818    0.5316    0.2003 C   0  0  0  0  0  0  0  0  0  0  0  0
    3.4400    0.8635    1.2811 C   0  0  0  0  0  0  0  0  0  0  0  0
    3.0924    1.1806    2.6109 C   0  0  0  0  0  0  0  0  0  0  0  0
    1.7236    1.4256    3.0008 C   0  0  0  0  0  0  0  0  0  0  0  0
    0.7628    2.0747    2.2721 C   0  0  0  0  0  0  0  0  0  0  0  0
   -0.4861    2.2373    2.8997 C   0  0  0  0  0  0  0  0  0  0  0  0
   -0.5745    1.7055    4.1553 C   0  0  0  0  0  0  0  0  0  0  0  0
   -2.0398    1.7230    5.1100 S   0  0  0  0  0  0  0  0  0  0  0  0
   -1.4163    1.2079    6.7457 C   0  0  0  0  0  0  0  0  0  0  0  0
   -0.6503    2.3119    7.4447 C   0  0  0  0  0  0  0  0  0  0  0  0
    1.0506    0.9105    4.6806 Se  0  0  0  0  0  2  0  0  0  0  0  0
    4.1540    1.2898    3.5099 C   0  0  0  0  0  0  0  0  0  0  0  0
    5.5142    1.1779    3.1437 C   0  0  0  0  0  0  0  0  0  0  0  0
    5.8626    0.9120    1.8072 C   0  0  0  0  0  0  0  0  0  0  0  0
    7.2299    0.7216    1.3728 C   0  0  0  0  0  0  0  0  0  0  0  0
    8.2312    0.0423    2.0091 C   0  0  0  0  0  0  0  0  0  0  0  0
    9.4404   -0.0867    1.2949 C   0  0  0  0  0  0  0  0  0  0  0  0
    9.4493    0.5018    0.0629 C   0  0  0  0  0  0  0  0  0  0  0  0
   10.8170    0.5118   -1.0262 S   0  0  0  0  0  0  0  0  0  0  0  0
    9.9847    0.8054   -2.6297 C   0  0  0  0  0  0  0  0  0  0  0  0
    9.1465   -0.3748   -3.0740 C   0  0  0  0  0  0  0  0  0  0  0  0
    7.8134    1.3675   -0.2973 Se  0  0  0  0  0  2  0  0  0  0  0  0
    4.8024    0.7667    0.9179 C   0  0  0  0  0  0  0  0  0  0  0  0
    4.9811    0.3394   -0.7627 S   0  0  0  0  0  0  0  0  0  0  0  0
    6.3795    1.4000    4.2546 C   0  0  0  0  0  0  0  0  0  0  0  0
    5.7127    1.6402    5.4005 C   0  0  0  0  0  0  0  0  0  0  0  0
    3.9931    1.6322    5.2111 S   0  0  0  0  0  0  0  0  0  0  0  0
    2.7583   -8.0045   14.5485 H   0  0  0  0  0  0  0  0  0  0  0  0
    4.0624   -7.6539   12.3323 H   0  0  0  0  0  0  0  0  0  0  0  0
    3.6191   -6.8010    7.7375 H   0  0  0  0  0  0  0  0  0  0  0  0
    6.1117   -6.9536    7.2010 H   0  0  0  0  0  0  0  0  0  0  0  0
    8.3330   -4.9991   10.9833 H   0  0  0  0  0  0  0  0  0  0  0  0
    8.3291   -6.7058   11.5073 H   0  0  0  0  0  0  0  0  0  0  0  0
   10.7139   -6.9220   10.7831 H   0  0  0  0  0  0  0  0  0  0  0  0
   10.7167   -5.2344   10.2656 H   0  0  0  0  0  0  0  0  0  0  0  0
   10.5446   -5.6314   11.9804 H   0  0  0  0  0  0  0  0  0  0  0  0
   -1.2664   -2.8999   11.2644 H   0  0  0  0  0  0  0  0  0  0  0  0
   -3.5182   -2.6202   12.4446 H   0  0  0  0  0  0  0  0  0  0  0  0
   -5.6255   -6.3224   15.5698 H   0  0  0  0  0  0  0  0  0  0  0  0
   -4.2458   -6.9096   14.6097 H   0  0  0  0  0  0  0  0  0  0  0  0
   -3.5876   -6.5477   17.0111 H   0  0  0  0  0  0  0  0  0  0  0  0
   -2.7095   -5.4451   15.9461 H   0  0  0  0  0  0  0  0  0  0  0  0
   -4.0861   -4.8539   16.8865 H   0  0  0  0  0  0  0  0  0  0  0  0
   -1.3063   -4.0217    9.2921 H   0  0  0  0  0  0  0  0  0  0  0  0
    1.5153   -3.4901    5.4591 H   0  0  0  0  0  0  0  0  0  0  0  0
    1.0544   -2.5880    0.7780 H   0  0  0  0  0  0  0  0  0  0  0  0
    3.5239   -2.6552    0.2655 H   0  0  0  0  0  0  0  0  0  0  0  0
    5.7327   -2.1518    0.0782 H   0  0  0  0  0  0  0  0  0  0  0  0
    7.3262   -2.4821    0.7763 H   0  0  0  0  0  0  0  0  0  0  0  0
    6.6759   -4.8307    1.2515 H   0  0  0  0  0  0  0  0  0  0  0  0
    6.4575   -4.4890   -0.4702 H   0  0  0  0  0  0  0  0  0  0  0  0
    5.0580   -4.5419    0.6096 H   0  0  0  0  0  0  0  0  0  0  0  0
   -3.6521   -1.1351    7.0531 H   0  0  0  0  0  0  0  0  0  0  0  0
   -6.1705   -1.0714    7.4022 H   0  0  0  0  0  0  0  0  0  0  0  0
   -7.9496   -1.0160    2.9100 H   0  0  0  0  0  0  0  0  0  0  0  0
   -9.6451   -1.2367    3.4059 H   0  0  0  0  0  0  0  0  0  0  0  0
   -8.7900   -3.2908    2.2505 H   0  0  0  0  0  0  0  0  0  0  0  0
   -7.4994   -3.4295    3.4483 H   0  0  0  0  0  0  0  0  0  0  0  0
   -9.1852   -3.6329    3.9415 H   0  0  0  0  0  0  0  0  0  0  0  0
   -3.8446    0.2154    2.5167 H   0  0  0  0  0  0  0  0  0  0  0  0
   -4.7570    0.8668    0.1973 H   0  0  0  0  0  0  0  0  0  0  0  0
   -6.2176    0.0557   -1.1295 H   0  0  0  0  0  0  0  0  0  0  0  0
   -8.7079   -0.0471   -0.5889 H   0  0  0  0  0  0  0  0  0  0  0  0
  -10.4337    4.2048   -2.1818 H   0  0  0  0  0  0  0  0  0  0  0  0
  -12.0352    3.9746   -1.4373 H   0  0  0  0  0  0  0  0  0  0  0  0
  -11.0169    4.2053    0.8348 H   0  0  0  0  0  0  0  0  0  0  0  0
  -10.6925    5.6475   -0.1383 H   0  0  0  0  0  0  0  0  0  0  0  0
   -9.4240    4.4415    0.1040 H   0  0  0  0  0  0  0  0  0  0  0  0
   -1.2312    5.5905   -4.0874 H   0  0  0  0  0  0  0  0  0  0  0  0
    1.1551    5.5553   -4.9894 H   0  0  0  0  0  0  0  0  0  0  0  0
    2.8892    4.8465   -6.5522 H   0  0  0  0  0  0  0  0  0  0  0  0
    3.9456    3.4871   -6.9936 H   0  0  0  0  0  0  0  0  0  0  0  0
    1.8850    2.0736   -7.3874 H   0  0  0  0  0  0  0  0  0  0  0  0
    1.9511    3.4733   -8.4720 H   0  0  0  0  0  0  0  0  0  0  0  0
    0.8773    3.4844   -7.0679 H   0  0  0  0  0  0  0  0  0  0  0  0
   -2.6197    4.4564   -5.5739 H   0  0  0  0  0  0  0  0  0  0  0  0
   -5.9554    2.2443   -7.3905 H   0  0  0  0  0  0  0  0  0  0  0  0
   -4.5935   -1.0177  -11.1030 H   0  0  0  0  0  0  0  0  0  0  0  0
   -6.6689   -2.4820  -10.9861 H   0  0  0  0  0  0  0  0  0  0  0  0
   -9.3806   -0.3874   -7.5351 H   0  0  0  0  0  0  0  0  0  0  0  0
  -10.8178   -1.3764   -7.8860 H   0  0  0  0  0  0  0  0  0  0  0  0
   -9.6909    0.8077   -9.7239 H   0  0  0  0  0  0  0  0  0  0  0  0
  -11.1374    0.9631   -8.7223 H   0  0  0  0  0  0  0  0  0  0  0  0
  -11.1112   -0.1885  -10.0662 H   0  0  0  0  0  0  0  0  0  0  0  0
   -0.1359    3.3868  -11.7003 H   0  0  0  0  0  0  0  0  0  0  0  0
    1.7735    5.0460  -11.4583 H   0  0  0  0  0  0  0  0  0  0  0  0
    2.5112    7.3862  -11.3899 H   0  0  0  0  0  0  0  0  0  0  0  0
    3.6858    6.2925  -10.6036 H   0  0  0  0  0  0  0  0  0  0  0  0
    4.6355    8.2320   -9.3484 H   0  0  0  0  0  0  0  0  0  0  0  0
    4.7325    8.5148  -11.0911 H   0  0  0  0  0  0  0  0  0  0  0  0
    3.4799    9.3127  -10.1311 H   0  0  0  0  0  0  0  0  0  0  0  0
    0.2484    1.7292   -9.7897 H   0  0  0  0  0  0  0  0  0  0  0  0
   -1.4072   -1.4592   -7.2371 H   0  0  0  0  0  0  0  0  0  0  0  0
   -1.4620   -3.4039   -5.7692 H   0  0  0  0  0  0  0  0  0  0  0  0
   -3.8167   -3.5833   -4.7789 H   0  0  0  0  0  0  0  0  0  0  0  0
   -6.0125   -2.4053   -4.6912 H   0  0  0  0  0  0  0  0  0  0  0  0
   -7.0683   -1.4561   -3.6201 H   0  0  0  0  0  0  0  0  0  0  0  0
   -4.7785   -0.2813   -5.2892 H   0  0  0  0  0  0  0  0  0  0  0  0
   -5.8923    0.6273   -4.2602 H   0  0  0  0  0  0  0  0  0  0  0  0
   -6.4917   -0.1770   -5.7174 H   0  0  0  0  0  0  0  0  0  0  0  0
    3.8919    1.0119   -8.1090 H   0  0  0  0  0  0  0  0  0  0  0  0
    6.3951    1.1213   -8.5672 H   0  0  0  0  0  0  0  0  0  0  0  0
    9.7315   -1.9488   -7.8031 H   0  0  0  0  0  0  0  0  0  0  0  0
    7.9781   -2.2054   -7.9500 H   0  0  0  0  0  0  0  0  0  0  0  0
    7.8890   -2.6285   -5.4478 H   0  0  0  0  0  0  0  0  0  0  0  0
    8.9063   -3.8065   -6.2874 H   0  0  0  0  0  0  0  0  0  0  0  0
    9.6499   -2.4735   -5.3927 H   0  0  0  0  0  0  0  0  0  0  0  0
    4.3391    0.3413   -3.5020 H   0  0  0  0  0  0  0  0  0  0  0  0
    1.5112    0.4981    0.2700 H   0  0  0  0  0  0  0  0  0  0  0  0
    0.9612    2.4841    1.2956 H   0  0  0  0  0  0  0  0  0  0  0  0
   -1.3106    2.7487    2.4330 H   0  0  0  0  0  0  0  0  0  0  0  0
   -2.3087    0.9288    7.3048 H   0  0  0  0  0  0  0  0  0  0  0  0
   -0.7961    0.3193    6.5858 H   0  0  0  0  0  0  0  0  0  0  0  0
   -1.2800    3.1897    7.5694 H   0  0  0  0  0  0  0  0  0  0  0  0
   -0.3227    1.9694    8.4239 H   0  0  0  0  0  0  0  0  0  0  0  0
    0.2305    2.5937    6.8663 H   0  0  0  0  0  0  0  0  0  0  0  0
    8.0779   -0.4434    2.9582 H   0  0  0  0  0  0  0  0  0  0  0  0
   10.2857   -0.6344    1.6749 H   0  0  0  0  0  0  0  0  0  0  0  0
   10.7963    1.0010   -3.3294 H   0  0  0  0  0  0  0  0  0  0  0  0
    9.3810    1.7115   -2.5182 H   0  0  0  0  0  0  0  0  0  0  0  0
    8.3253   -0.5532   -2.3786 H   0  0  0  0  0  0  0  0  0  0  0  0
    8.7239   -0.1712   -4.0571 H   0  0  0  0  0  0  0  0  0  0  0  0
    9.7566   -1.2735   -3.1275 H   0  0  0  0  0  0  0  0  0  0  0  0
    7.4511    1.3974    4.1807 H   0  0  0  0  0  0  0  0  0  0  0  0
    6.1183    1.8342    6.3741 H   0  0  0  0  0  0  0  0  0  0  0  0
  1  2  2  0  0  0  0
  2  3  1  0  0  0  0
  3  4  2  0  0  0  0
  4  5  1  0  0  0  0
  5  6  2  0  0  0  0
  6  7  1  0  0  0  0
  7  8  2  0  0  0  0
  8  9  1  0  0  0  0
  9 10  1  0  0  0  0
 10 11  1  0  0  0  0
  8 12  1  0  0  0  0
  4 13  1  0  0  0  0
 13 14  2  0  0  0  0
 14 15  1  0  0  0  0
 15 16  1  0  0  0  0
 16 17  2  0  0  0  0
 17 18  1  0  0  0  0
 18 19  2  0  0  0  0
 19 20  1  0  0  0  0
 20 21  1  0  0  0  0
 21 22  1  0  0  0  0
 19 23  1  0  0  0  0
 15 24  2  0  0  0  0
 24 25  1  0  0  0  0
 14 26  1  0  0  0  0
 26 27  2  0  0  0  0
 27 28  1  0  0  0  0
 27 29  1  0  0  0  0
 29 30  2  0  0  0  0
 30 31  1  0  0  0  0
 31 32  2  0  0  0  0
 32 33  1  0  0  0  0
 33 34  2  0  0  0  0
 34 35  1  0  0  0  0
 35 36  2  0  0  0  0
 36 37  1  0  0  0  0
 37 38  1  0  0  0  0
 38 39  1  0  0  0  0
 36 40  1  0  0  0  0
 32 41  1  0  0  0  0
 41 42  2  0  0  0  0
 42 43  1  0  0  0  0
 43 44  1  0  0  0  0
 44 45  2  0  0  0  0
 45 46  1  0  0  0  0
 46 47  2  0  0  0  0
 47 48  1  0  0  0  0
 48 49  1  0  0  0  0
 49 50  1  0  0  0  0
 47 51  1  0  0  0  0
 43 52  2  0  0  0  0
 52 53  1  0  0  0  0
 42 54  1  0  0  0  0
 54 55  2  0  0  0  0
 55 56  1  0  0  0  0
 55 57  1  0  0  0  0
 57 58  2  0  0  0  0
 58 59  1  0  0  0  0
 59 60  2  0  0  0  0
 60 61  1  0  0  0  0
 61 62  2  0  0  0  0
 62 63  1  0  0  0  0
 63 64  2  0  0  0  0
 64 65  1  0  0  0  0
 65 66  1  0  0  0  0
 66 67  1  0  0  0  0
 64 68  1  0  0  0  0
 60 69  1  0  0  0  0
 69 70  2  0  0  0  0
 70 71  1  0  0  0  0
 71 72  1  0  0  0  0
 72 73  2  0  0  0  0
 73 74  1  0  0  0  0
 74 75  2  0  0  0  0
 75 76  1  0  0  0  0
 76 77  1  0  0  0  0
 77 78  1  0  0  0  0
 75 79  1  0  0  0  0
 71 80  2  0  0  0  0
 80 81  1  0  0  0  0
 70 82  1  0  0  0  0
 82 83  2  0  0  0  0
 83 84  1  0  0  0  0
 83 85  1  0  0  0  0
 85 86  2  0  0  0  0
 86 87  1  0  0  0  0
 87 88  2  0  0  0  0
 88 89  1  0  0  0  0
 89 90  2  0  0  0  0
 90 91  1  0  0  0  0
 91 92  2  0  0  0  0
 92 93  1  0  0  0  0
 93 94  1  0  0  0  0
 94 95  1  0  0  0  0
 92 96  1  0  0  0  0
 88 97  1  0  0  0  0
 97 98  2  0  0  0  0
 98 99  1  0  0  0  0
 99100  1  0  0  0  0
100101  2  0  0  0  0
101102  1  0  0  0  0
102103  2  0  0  0  0
103104  1  0  0  0  0
104105  1  0  0  0  0
105106  1  0  0  0  0
103107  1  0  0  0  0
 99108  2  0  0  0  0
108109  1  0  0  0  0
 98110  1  0  0  0  0
110111  2  0  0  0  0
111112  1  0  0  0  0
111113  1  0  0  0  0
113114  2  0  0  0  0
114115  1  0  0  0  0
115116  2  0  0  0  0
116117  1  0  0  0  0
117118  2  0  0  0  0
118119  1  0  0  0  0
119120  2  0  0  0  0
120121  1  0  0  0  0
121122  1  0  0  0  0
122123  1  0  0  0  0
120124  1  0  0  0  0
116125  1  0  0  0  0
125126  2  0  0  0  0
126127  1  0  0  0  0
127128  1  0  0  0  0
128129  2  0  0  0  0
129130  1  0  0  0  0
130131  2  0  0  0  0
131132  1  0  0  0  0
132133  1  0  0  0  0
133134  1  0  0  0  0
131135  1  0  0  0  0
127136  2  0  0  0  0
136137  1  0  0  0  0
126138  1  0  0  0  0
138139  2  0  0  0  0
139140  1  0  0  0  0
139141  1  0  0  0  0
141142  2  0  0  0  0
142143  1  0  0  0  0
143144  2  0  0  0  0
144145  1  0  0  0  0
145146  2  0  0  0  0
146147  1  0  0  0  0
147148  2  0  0  0  0
148149  1  0  0  0  0
149150  1  0  0  0  0
150151  1  0  0  0  0
148152  1  0  0  0  0
144153  1  0  0  0  0
153154  2  0  0  0  0
154155  1  0  0  0  0
155156  1  0  0  0  0
156157  2  0  0  0  0
157158  1  0  0  0  0
158159  2  0  0  0  0
159160  1  0  0  0  0
160161  1  0  0  0  0
161162  1  0  0  0  0
159163  1  0  0  0  0
155164  2  0  0  0  0
164165  1  0  0  0  0
154166  1  0  0  0  0
166167  2  0  0  0  0
167168  1  0  0  0  0
 25  1  1  0  0  0  0
 53 29  1  0  0  0  0
 81 57  1  0  0  0  0
109 85  1  0  0  0  0
137113  1  0  0  0  0
165141  1  0  0  0  0
 24  3  1  0  0  0  0
 52 31  1  0  0  0  0
 80 59  1  0  0  0  0
108 87  1  0  0  0  0
136115  1  0  0  0  0
164143  1  0  0  0  0
 12  5  1  0  0  0  0
 28 13  1  0  0  0  0
 40 33  1  0  0  0  0
 56 41  1  0  0  0  0
 68 61  1  0  0  0  0
 84 69  1  0  0  0  0
 96 89  1  0  0  0  0
112 97  1  0  0  0  0
124117  1  0  0  0  0
140125  1  0  0  0  0
152145  1  0  0  0  0
168153  1  0  0  0  0
 23 16  1  0  0  0  0
 51 44  1  0  0  0  0
 79 72  1  0  0  0  0
107100  1  0  0  0  0
135128  1  0  0  0  0
163156  1  0  0  0  0
  1169  1  0  0  0  0
  2170  1  0  0  0  0
  6171  1  0  0  0  0
  7172  1  0  0  0  0
 10173  1  0  0  0  0
 10174  1  0  0  0  0
 11175  1  0  0  0  0
 11176  1  0  0  0  0
 11177  1  0  0  0  0
 17178  1  0  0  0  0
 18179  1  0  0  0  0
 21180  1  0  0  0  0
 21181  1  0  0  0  0
 22182  1  0  0  0  0
 22183  1  0  0  0  0
 22184  1  0  0  0  0
 26185  1  0  0  0  0
 30186  1  0  0  0  0
 34187  1  0  0  0  0
 35188  1  0  0  0  0
 38189  1  0  0  0  0
 38190  1  0  0  0  0
 39191  1  0  0  0  0
 39192  1  0  0  0  0
 39193  1  0  0  0  0
 45194  1  0  0  0  0
 46195  1  0  0  0  0
 49196  1  0  0  0  0
 49197  1  0  0  0  0
 50198  1  0  0  0  0
 50199  1  0  0  0  0
 50200  1  0  0  0  0
 54201  1  0  0  0  0
 58202  1  0  0  0  0
 62203  1  0  0  0  0
 63204  1  0  0  0  0
 66205  1  0  0  0  0
 66206  1  0  0  0  0
 67207  1  0  0  0  0
 67208  1  0  0  0  0
 67209  1  0  0  0  0
 73210  1  0  0  0  0
 74211  1  0  0  0  0
 77212  1  0  0  0  0
 77213  1  0  0  0  0
 78214  1  0  0  0  0
 78215  1  0  0  0  0
 78216  1  0  0  0  0
 82217  1  0  0  0  0
 86218  1  0  0  0  0
 90219  1  0  0  0  0
 91220  1  0  0  0  0
 94221  1  0  0  0  0
 94222  1  0  0  0  0
 95223  1  0  0  0  0
 95224  1  0  0  0  0
 95225  1  0  0  0  0
101226  1  0  0  0  0
102227  1  0  0  0  0
105228  1  0  0  0  0
105229  1  0  0  0  0
106230  1  0  0  0  0
106231  1  0  0  0  0
106232  1  0  0  0  0
110233  1  0  0  0  0
114234  1  0  0  0  0
118235  1  0  0  0  0
119236  1  0  0  0  0
122237  1  0  0  0  0
122238  1  0  0  0  0
123239  1  0  0  0  0
123240  1  0  0  0  0
123241  1  0  0  0  0
129242  1  0  0  0  0
130243  1  0  0  0  0
133244  1  0  0  0  0
133245  1  0  0  0  0
134246  1  0  0  0  0
134247  1  0  0  0  0
134248  1  0  0  0  0
138249  1  0  0  0  0
142250  1  0  0  0  0
146251  1  0  0  0  0
147252  1  0  0  0  0
150253  1  0  0  0  0
150254  1  0  0  0  0
151255  1  0  0  0  0
151256  1  0  0  0  0
151257  1  0  0  0  0
157258  1  0  0  0  0
158259  1  0  0  0  0
161260  1  0  0  0  0
161261  1  0  0  0  0
162262  1  0  0  0  0
162263  1  0  0  0  0
162264  1  0  0  0  0
166265  1  0  0  0  0
167266  1  0  0  0  0
M  END
