
  xtb     03082206453D
 energy: -268.175138159205 gnorm: 0.000593954159 xtb: 6.4.1 (unknown)
162179  0     0  0            999 V2000
   -3.0075    1.9478   15.4845 C   0  0  0  0  0  0  0  0  0  0  0  0
   -1.7466    2.1559   14.9157 C   0  0  0  0  0  0  0  0  0  0  0  0
   -0.5837    2.5957   15.4287 N   0  0  0  0  0  0  0  0  0  0  0  0
    0.2376    2.5849   14.4168 N   0  0  0  0  0  0  0  0  0  0  0  0
    1.6067    2.9982   14.5496 C   0  0  0  0  0  0  0  0  0  0  0  0
    2.5404    1.9188   14.0177 C   0  0  0  0  0  0  0  0  0  0  0  0
   -0.2399    2.1856   13.2711 N   0  0  0  0  0  0  0  0  0  0  0  0
   -1.5194    1.8905   13.5328 C   0  0  0  0  0  0  0  0  0  0  0  0
   -2.5405    1.4065   12.6890 C   0  0  0  0  0  0  0  0  0  0  0  0
   -3.7726    1.2176   13.2909 C   0  0  0  0  0  0  0  0  0  0  0  0
   -3.9939    1.4835   14.6508 C   0  0  0  0  0  0  0  0  0  0  0  0
   -2.2641    1.1382   11.3013 C   0  0  0  0  0  0  0  0  0  0  0  0
   -3.1266    0.7476   10.3194 C   0  0  0  0  0  0  0  0  0  0  0  0
   -2.5155    0.5742    9.0531 C   0  0  0  0  0  0  0  0  0  0  0  0
   -3.1193    0.1469    7.8491 C   0  0  0  0  0  0  0  0  0  0  0  0
   -4.5488   -0.0339    7.7395 C   0  0  0  0  0  0  0  0  0  0  0  0
   -5.5295    0.7356    8.3031 C   0  0  0  0  0  0  0  0  0  0  0  0
   -6.8557    0.3319    8.0574 C   0  0  0  0  0  0  0  0  0  0  0  0
   -6.9853   -0.7853    7.2819 C   0  0  0  0  0  0  0  0  0  0  0  0
   -8.5322   -1.4310    6.7800 S   0  0  0  0  0  0  0  0  0  0  0  0
   -8.0547   -3.0378    6.0556 C   0  0  0  0  0  0  0  0  0  0  0  0
   -7.7097   -4.0654    7.1142 C   0  0  0  0  0  0  0  0  0  0  0  0
   -5.3032   -1.4412    6.7374 Se  0  0  0  0  0  2  0  0  0  0  0  0
   -2.2588   -0.0694    6.7790 C   0  0  0  0  0  0  0  0  0  0  0  0
   -0.8654    0.1679    6.8367 C   0  0  0  0  0  0  0  0  0  0  0  0
   -0.2646    0.6197    8.0290 C   0  0  0  0  0  0  0  0  0  0  0  0
    1.1628    0.8290    8.1430 C   0  0  0  0  0  0  0  0  0  0  0  0
    1.8100    1.7958    8.8618 C   0  0  0  0  0  0  0  0  0  0  0  0
    3.2182    1.7587    8.8264 C   0  0  0  0  0  0  0  0  0  0  0  0
    3.7539    0.7372    8.0961 C   0  0  0  0  0  0  0  0  0  0  0  0
    5.4694    0.4336    7.9320 S   0  0  0  0  0  0  0  0  0  0  0  0
    5.5159   -0.5543    6.3931 C   0  0  0  0  0  0  0  0  0  0  0  0
    5.2077    0.2763    5.1649 C   0  0  0  0  0  0  0  0  0  0  0  0
    2.4098   -0.3547    7.3625 Se  0  0  0  0  0  2  0  0  0  0  0  0
   -1.1218    0.8184    9.1098 C   0  0  0  0  0  0  0  0  0  0  0  0
   -0.6310    1.3137   10.7061 S   0  0  0  0  0  0  0  0  0  0  0  0
   -0.2447   -0.0689    5.5874 C   0  0  0  0  0  0  0  0  0  0  0  0
   -1.0950   -0.5045    4.6164 C   0  0  0  0  0  0  0  0  0  0  0  0
   -2.7450   -0.6163    5.1925 S   0  0  0  0  0  0  0  0  0  0  0  0
   -0.7457   -0.8396    3.2795 C   0  0  0  0  0  0  0  0  0  0  0  0
   -1.5481   -1.2421    2.2549 C   0  0  0  0  0  0  0  0  0  0  0  0
   -0.8534   -1.4750    1.0412 C   0  0  0  0  0  0  0  0  0  0  0  0
   -1.3762   -1.8916   -0.2052 C   0  0  0  0  0  0  0  0  0  0  0  0
   -2.7181   -2.4008   -0.3169 C   0  0  0  0  0  0  0  0  0  0  0  0
   -3.4247   -3.0616    0.6557 C   0  0  0  0  0  0  0  0  0  0  0  0
   -4.7296   -3.4576    0.3224 C   0  0  0  0  0  0  0  0  0  0  0  0
   -5.1257   -3.1383   -0.9466 C   0  0  0  0  0  0  0  0  0  0  0  0
   -6.7125   -3.5496   -1.5601 S   0  0  0  0  0  0  0  0  0  0  0  0
   -6.5890   -3.0794   -3.3199 C   0  0  0  0  0  0  0  0  0  0  0  0
   -6.7842   -1.5924   -3.5392 C   0  0  0  0  0  0  0  0  0  0  0  0
   -3.7475   -2.2599   -1.8893 Se  0  0  0  0  0  2  0  0  0  0  0  0
   -0.5068   -1.7855   -1.2910 C   0  0  0  0  0  0  0  0  0  0  0  0
    0.8619   -1.4500   -1.1681 C   0  0  0  0  0  0  0  0  0  0  0  0
    1.4278   -1.2305    0.1076 C   0  0  0  0  0  0  0  0  0  0  0  0
    2.8504   -1.0641    0.2884 C   0  0  0  0  0  0  0  0  0  0  0  0
    3.8431   -1.6951   -0.4121 C   0  0  0  0  0  0  0  0  0  0  0  0
    5.1644   -1.3432   -0.0737 C   0  0  0  0  0  0  0  0  0  0  0  0
    5.2755   -0.4066    0.9113 C   0  0  0  0  0  0  0  0  0  0  0  0
    6.7957    0.1479    1.5795 S   0  0  0  0  0  0  0  0  0  0  0  0
    6.3762    1.8905    1.9456 C   0  0  0  0  0  0  0  0  0  0  0  0
    6.1680    2.6962    0.6804 C   0  0  0  0  0  0  0  0  0  0  0  0
    3.5820    0.0952    1.5832 Se  0  0  0  0  0  2  0  0  0  0  0  0
    0.5259   -1.1856    1.1656 C   0  0  0  0  0  0  0  0  0  0  0  0
    0.9388   -0.7498    2.8001 S   0  0  0  0  0  0  0  0  0  0  0  0
    1.4864   -1.3223   -2.4320 C   0  0  0  0  0  0  0  0  0  0  0  0
    0.6533   -1.5556   -3.4872 C   0  0  0  0  0  0  0  0  0  0  0  0
   -0.9572   -1.9935   -2.9586 S   0  0  0  0  0  0  0  0  0  0  0  0
    0.9321   -1.4554   -4.8914 C   0  0  0  0  0  0  0  0  0  0  0  0
   -0.1126   -1.5536   -5.8327 C   0  0  0  0  0  0  0  0  0  0  0  0
   -1.4193   -1.7570   -5.6293 N   0  0  0  0  0  0  0  0  0  0  0  0
   -1.9343   -1.7559   -6.8252 N   0  0  0  0  0  0  0  0  0  0  0  0
   -3.3452   -1.9197   -7.0412 C   0  0  0  0  0  0  0  0  0  0  0  0
   -3.9180   -2.9228   -6.0523 C   0  0  0  0  0  0  0  0  0  0  0  0
   -1.1084   -1.5669   -7.8174 N   0  0  0  0  0  0  0  0  0  0  0  0
    0.0966   -1.4260   -7.2377 C   0  0  0  0  0  0  0  0  0  0  0  0
    1.3931   -1.1888   -7.7592 C   0  0  0  0  0  0  0  0  0  0  0  0
    2.4019   -1.1125   -6.8063 C   0  0  0  0  0  0  0  0  0  0  0  0
    2.1893   -1.2386   -5.4339 C   0  0  0  0  0  0  0  0  0  0  0  0
    1.6520   -1.0177   -9.1759 C   0  0  0  0  0  0  0  0  0  0  0  0
    2.9427   -0.7664   -9.7034 C   0  0  0  0  0  0  0  0  0  0  0  0
    4.1359   -0.6453   -9.1004 N   0  0  0  0  0  0  0  0  0  0  0  0
    4.9734   -0.4084  -10.0708 N   0  0  0  0  0  0  0  0  0  0  0  0
    6.3803   -0.2594   -9.8316 C   0  0  0  0  0  0  0  0  0  0  0  0
    7.0768   -1.6162   -9.8817 C   0  0  0  0  0  0  0  0  0  0  0  0
    4.4748   -0.3582  -11.2731 N   0  0  0  0  0  0  0  0  0  0  0  0
    3.1612   -0.5814  -11.1068 C   0  0  0  0  0  0  0  0  0  0  0  0
    2.0985   -0.6349  -12.0416 C   0  0  0  0  0  0  0  0  0  0  0  0
    0.8533   -0.8888  -11.4886 C   0  0  0  0  0  0  0  0  0  0  0  0
    0.6402   -1.0730  -10.1225 C   0  0  0  0  0  0  0  0  0  0  0  0
    2.2853   -0.4365  -13.4705 C   0  0  0  0  0  0  0  0  0  0  0  0
    1.2023   -0.3966  -14.3840 C   0  0  0  0  0  0  0  0  0  0  0  0
   -0.1256   -0.5170  -14.2204 N   0  0  0  0  0  0  0  0  0  0  0  0
   -0.6180   -0.3896  -15.4226 N   0  0  0  0  0  0  0  0  0  0  0  0
   -2.0337   -0.4198  -15.6555 C   0  0  0  0  0  0  0  0  0  0  0  0
   -2.6545    0.9379  -15.3404 C   0  0  0  0  0  0  0  0  0  0  0  0
    0.2304   -0.1937  -16.3910 N   0  0  0  0  0  0  0  0  0  0  0  0
    1.4274   -0.1892  -15.7819 C   0  0  0  0  0  0  0  0  0  0  0  0
    2.7146   -0.0251  -16.3039 C   0  0  0  0  0  0  0  0  0  0  0  0
    3.7487   -0.0700  -15.4067 C   0  0  0  0  0  0  0  0  0  0  0  0
    3.5391   -0.2680  -14.0338 C   0  0  0  0  0  0  0  0  0  0  0  0
   -3.1812    2.1468   16.5293 H   0  0  0  0  0  0  0  0  0  0  0  0
    1.7463    3.9238   13.9820 H   0  0  0  0  0  0  0  0  0  0  0  0
    1.7737    3.1957   15.6098 H   0  0  0  0  0  0  0  0  0  0  0  0
    2.2927    1.6991   12.9824 H   0  0  0  0  0  0  0  0  0  0  0  0
    3.5703    2.2592   14.0730 H   0  0  0  0  0  0  0  0  0  0  0  0
    2.4410    1.0071   14.6015 H   0  0  0  0  0  0  0  0  0  0  0  0
   -4.5976    0.8468   12.7023 H   0  0  0  0  0  0  0  0  0  0  0  0
   -4.9833    1.3088   15.0475 H   0  0  0  0  0  0  0  0  0  0  0  0
   -4.1679    0.5543   10.4968 H   0  0  0  0  0  0  0  0  0  0  0  0
   -5.3038    1.6264    8.8652 H   0  0  0  0  0  0  0  0  0  0  0  0
   -7.7086    0.8627    8.4441 H   0  0  0  0  0  0  0  0  0  0  0  0
   -8.9203   -3.3459    5.4700 H   0  0  0  0  0  0  0  0  0  0  0  0
   -7.2127   -2.8492    5.3821 H   0  0  0  0  0  0  0  0  0  0  0  0
   -8.5530   -4.2185    7.7834 H   0  0  0  0  0  0  0  0  0  0  0  0
   -6.8533   -3.7364    7.7031 H   0  0  0  0  0  0  0  0  0  0  0  0
   -7.4586   -5.0123    6.6412 H   0  0  0  0  0  0  0  0  0  0  0  0
    1.2790    2.5802    9.3736 H   0  0  0  0  0  0  0  0  0  0  0  0
    3.8330    2.4907    9.3211 H   0  0  0  0  0  0  0  0  0  0  0  0
    4.8066   -1.3787    6.5149 H   0  0  0  0  0  0  0  0  0  0  0  0
    6.5279   -0.9560    6.3547 H   0  0  0  0  0  0  0  0  0  0  0  0
    5.2898   -0.3432    4.2724 H   0  0  0  0  0  0  0  0  0  0  0  0
    5.9082    1.1046    5.0856 H   0  0  0  0  0  0  0  0  0  0  0  0
    4.1944    0.6773    5.2125 H   0  0  0  0  0  0  0  0  0  0  0  0
    0.7976    0.1046    5.3790 H   0  0  0  0  0  0  0  0  0  0  0  0
   -2.6158   -1.3078    2.3624 H   0  0  0  0  0  0  0  0  0  0  0  0
   -2.9874   -3.3179    1.6054 H   0  0  0  0  0  0  0  0  0  0  0  0
   -5.3717   -3.9845    1.0072 H   0  0  0  0  0  0  0  0  0  0  0  0
   -5.6104   -3.4181   -3.6687 H   0  0  0  0  0  0  0  0  0  0  0  0
   -7.3700   -3.6562   -3.8150 H   0  0  0  0  0  0  0  0  0  0  0  0
   -7.7478   -1.2749   -3.1489 H   0  0  0  0  0  0  0  0  0  0  0  0
   -6.0011   -1.0249   -3.0352 H   0  0  0  0  0  0  0  0  0  0  0  0
   -6.7434   -1.3662   -4.6023 H   0  0  0  0  0  0  0  0  0  0  0  0
    3.6280   -2.4419   -1.1579 H   0  0  0  0  0  0  0  0  0  0  0  0
    6.0250   -1.7726   -0.5574 H   0  0  0  0  0  0  0  0  0  0  0  0
    7.2180    2.2652    2.5263 H   0  0  0  0  0  0  0  0  0  0  0  0
    5.4774    1.8802    2.5692 H   0  0  0  0  0  0  0  0  0  0  0  0
    5.3285    2.2972    0.1113 H   0  0  0  0  0  0  0  0  0  0  0  0
    5.9534    3.7327    0.9320 H   0  0  0  0  0  0  0  0  0  0  0  0
    7.0581    2.6624    0.0561 H   0  0  0  0  0  0  0  0  0  0  0  0
    2.5057   -1.0035   -2.5502 H   0  0  0  0  0  0  0  0  0  0  0  0
   -3.8339   -0.9469   -6.9136 H   0  0  0  0  0  0  0  0  0  0  0  0
   -3.4741   -2.2430   -8.0764 H   0  0  0  0  0  0  0  0  0  0  0  0
   -3.4579   -3.8981   -6.1883 H   0  0  0  0  0  0  0  0  0  0  0  0
   -4.9903   -3.0159   -6.1995 H   0  0  0  0  0  0  0  0  0  0  0  0
   -3.7173   -2.5854   -5.0366 H   0  0  0  0  0  0  0  0  0  0  0  0
    3.4080   -0.9386   -7.1519 H   0  0  0  0  0  0  0  0  0  0  0  0
    3.0422   -1.1619   -4.7768 H   0  0  0  0  0  0  0  0  0  0  0  0
    6.5013    0.1963   -8.8469 H   0  0  0  0  0  0  0  0  0  0  0  0
    6.7768    0.4034  -10.6032 H   0  0  0  0  0  0  0  0  0  0  0  0
    8.1408   -1.4934   -9.7000 H   0  0  0  0  0  0  0  0  0  0  0  0
    6.9375   -2.0732  -10.8585 H   0  0  0  0  0  0  0  0  0  0  0  0
    6.6642   -2.2770   -9.1230 H   0  0  0  0  0  0  0  0  0  0  0  0
    0.0037   -0.9424  -12.1498 H   0  0  0  0  0  0  0  0  0  0  0  0
   -0.3651   -1.2635   -9.7833 H   0  0  0  0  0  0  0  0  0  0  0  0
   -2.4639   -1.1913  -15.0126 H   0  0  0  0  0  0  0  0  0  0  0  0
   -2.1826   -0.6791  -16.7051 H   0  0  0  0  0  0  0  0  0  0  0  0
   -2.4689    1.1999  -14.3015 H   0  0  0  0  0  0  0  0  0  0  0  0
   -3.7270    0.9036  -15.5093 H   0  0  0  0  0  0  0  0  0  0  0  0
   -2.2229    1.7054  -15.9786 H   0  0  0  0  0  0  0  0  0  0  0  0
    2.8626    0.1293  -17.3604 H   0  0  0  0  0  0  0  0  0  0  0  0
    4.7639    0.0515  -15.7562 H   0  0  0  0  0  0  0  0  0  0  0  0
    4.3970   -0.2883  -13.3818 H   0  0  0  0  0  0  0  0  0  0  0  0
  1  2  1  0  0  0  0
  2  3  2  0  0  0  0
  3  4  1  0  0  0  0
  4  5  1  0  0  0  0
  5  6  1  0  0  0  0
  4  7  1  0  0  0  0
  7  8  2  0  0  0  0
  8  9  1  0  0  0  0
  9 10  2  0  0  0  0
 10 11  1  0  0  0  0
  9 12  1  0  0  0  0
 12 13  2  0  0  0  0
 13 14  1  0  0  0  0
 14 15  2  0  0  0  0
 15 16  1  0  0  0  0
 16 17  2  0  0  0  0
 17 18  1  0  0  0  0
 18 19  2  0  0  0  0
 19 20  1  0  0  0  0
 20 21  1  0  0  0  0
 21 22  1  0  0  0  0
 19 23  1  0  0  0  0
 15 24  1  0  0  0  0
 24 25  2  0  0  0  0
 25 26  1  0  0  0  0
 26 27  1  0  0  0  0
 27 28  2  0  0  0  0
 28 29  1  0  0  0  0
 29 30  2  0  0  0  0
 30 31  1  0  0  0  0
 31 32  1  0  0  0  0
 32 33  1  0  0  0  0
 30 34  1  0  0  0  0
 26 35  2  0  0  0  0
 35 36  1  0  0  0  0
 25 37  1  0  0  0  0
 37 38  2  0  0  0  0
 38 39  1  0  0  0  0
 38 40  1  0  0  0  0
 40 41  2  0  0  0  0
 41 42  1  0  0  0  0
 42 43  2  0  0  0  0
 43 44  1  0  0  0  0
 44 45  2  0  0  0  0
 45 46  1  0  0  0  0
 46 47  2  0  0  0  0
 47 48  1  0  0  0  0
 48 49  1  0  0  0  0
 49 50  1  0  0  0  0
 47 51  1  0  0  0  0
 43 52  1  0  0  0  0
 52 53  2  0  0  0  0
 53 54  1  0  0  0  0
 54 55  1  0  0  0  0
 55 56  2  0  0  0  0
 56 57  1  0  0  0  0
 57 58  2  0  0  0  0
 58 59  1  0  0  0  0
 59 60  1  0  0  0  0
 60 61  1  0  0  0  0
 58 62  1  0  0  0  0
 54 63  2  0  0  0  0
 63 64  1  0  0  0  0
 53 65  1  0  0  0  0
 65 66  2  0  0  0  0
 66 67  1  0  0  0  0
 66 68  1  0  0  0  0
 68 69  1  0  0  0  0
 69 70  2  0  0  0  0
 70 71  1  0  0  0  0
 71 72  1  0  0  0  0
 72 73  1  0  0  0  0
 71 74  1  0  0  0  0
 74 75  2  0  0  0  0
 75 76  1  0  0  0  0
 76 77  2  0  0  0  0
 77 78  1  0  0  0  0
 76 79  1  0  0  0  0
 79 80  1  0  0  0  0
 80 81  2  0  0  0  0
 81 82  1  0  0  0  0
 82 83  1  0  0  0  0
 83 84  1  0  0  0  0
 82 85  1  0  0  0  0
 85 86  2  0  0  0  0
 86 87  1  0  0  0  0
 87 88  2  0  0  0  0
 88 89  1  0  0  0  0
 87 90  1  0  0  0  0
 90 91  1  0  0  0  0
 91 92  2  0  0  0  0
 92 93  1  0  0  0  0
 93 94  1  0  0  0  0
 94 95  1  0  0  0  0
 93 96  1  0  0  0  0
 96 97  2  0  0  0  0
 97 98  1  0  0  0  0
 98 99  2  0  0  0  0
 99100  1  0  0  0  0
 11  1  2  0  0  0  0
 36 12  1  0  0  0  0
 64 40  1  0  0  0  0
 78 68  2  0  0  0  0
 89 79  2  0  0  0  0
100 90  2  0  0  0  0
  8  2  1  0  0  0  0
 35 14  1  0  0  0  0
 63 42  1  0  0  0  0
 75 69  1  0  0  0  0
 86 80  1  0  0  0  0
 97 91  1  0  0  0  0
 23 16  1  0  0  0  0
 39 24  1  0  0  0  0
 51 44  1  0  0  0  0
 67 52  1  0  0  0  0
 34 27  1  0  0  0  0
 62 55  1  0  0  0  0
  1101  1  0  0  0  0
  5102  1  0  0  0  0
  5103  1  0  0  0  0
  6104  1  0  0  0  0
  6105  1  0  0  0  0
  6106  1  0  0  0  0
 10107  1  0  0  0  0
 11108  1  0  0  0  0
 13109  1  0  0  0  0
 17110  1  0  0  0  0
 18111  1  0  0  0  0
 21112  1  0  0  0  0
 21113  1  0  0  0  0
 22114  1  0  0  0  0
 22115  1  0  0  0  0
 22116  1  0  0  0  0
 28117  1  0  0  0  0
 29118  1  0  0  0  0
 32119  1  0  0  0  0
 32120  1  0  0  0  0
 33121  1  0  0  0  0
 33122  1  0  0  0  0
 33123  1  0  0  0  0
 37124  1  0  0  0  0
 41125  1  0  0  0  0
 45126  1  0  0  0  0
 46127  1  0  0  0  0
 49128  1  0  0  0  0
 49129  1  0  0  0  0
 50130  1  0  0  0  0
 50131  1  0  0  0  0
 50132  1  0  0  0  0
 56133  1  0  0  0  0
 57134  1  0  0  0  0
 60135  1  0  0  0  0
 60136  1  0  0  0  0
 61137  1  0  0  0  0
 61138  1  0  0  0  0
 61139  1  0  0  0  0
 65140  1  0  0  0  0
 72141  1  0  0  0  0
 72142  1  0  0  0  0
 73143  1  0  0  0  0
 73144  1  0  0  0  0
 73145  1  0  0  0  0
 77146  1  0  0  0  0
 78147  1  0  0  0  0
 83148  1  0  0  0  0
 83149  1  0  0  0  0
 84150  1  0  0  0  0
 84151  1  0  0  0  0
 84152  1  0  0  0  0
 88153  1  0  0  0  0
 89154  1  0  0  0  0
 94155  1  0  0  0  0
 94156  1  0  0  0  0
 95157  1  0  0  0  0
 95158  1  0  0  0  0
 95159  1  0  0  0  0
 98160  1  0  0  0  0
 99161  1  0  0  0  0
100162  1  0  0  0  0
M  END
