251

C          8.00370       -2.08410        0.35590
C          8.56140       -1.32860       -0.84760
C          7.42030       -0.73020       -1.69410
C          6.20730       -1.61450       -1.73040
C          5.83710       -2.27170       -2.82490
O          5.46910       -1.77640       -0.59060
C          5.71480       -0.92360        0.51140
C          7.10320       -1.17060        1.18500
C          7.79450        0.13640        1.43880
C          8.84170        0.56320        0.75130
C          9.48650       -0.19920       -0.37120
C         10.86450       -0.70860        0.06330
C          4.59480       -1.14760        1.53270
C          3.17760       -1.01430        0.97480
C          2.89120        0.29910        0.23800
C          3.24470        1.52630        1.01340
C          2.37530        2.36570        1.55210
C          2.79070        3.63520        2.23870
C          2.83700        4.78780        1.21610
C          3.41570        6.07870        1.82620
C          2.55840        6.85780        2.78760
C          2.17320        8.10810        2.53450
O          2.23730        6.35730        4.01170
C          2.55560        5.02620        4.34140
C          1.85890        3.99990        3.40470
C          0.55700        4.53820        2.88690
C          0.38620        4.97410        1.65040
C          1.44480        4.95090        0.59150
C          1.32800        6.17070       -0.31890
C          2.26550        4.83580        5.84000
C          0.87030        5.20400        6.34620
C          0.61360        6.71940        6.38250
C         -0.56170        7.02750        7.25650
C         -1.84080        6.94740        6.90020
C         -2.32680        6.57330        5.58260
C         -3.18850        5.56210        5.31200
C         -3.41330        5.34910        3.92430
C         -4.15340        4.32100        3.31010
C         -4.87070        3.31670        4.06730
C         -4.46930        2.64250        5.18500
C         -5.39300        1.72350        5.72140
C         -6.57690        1.63610        5.04640
S         -7.89640        0.59160        5.51950
C         -9.07470        0.91310        4.15600
C        -10.32960        0.08580        4.34160
Se        -6.60780        2.78740        3.55490
C         -4.09630        4.27770        1.92010
C         -3.42660        5.24240        1.13830
C         -2.82800        6.36660        1.74840
C         -2.37310        7.48220        0.95620
C         -2.97820        7.92670       -0.19210
C         -2.42540        9.07850       -0.77410
C         -1.34550        9.59610       -0.11530
S         -0.62090       11.12730       -0.55950
C          1.07970       10.93170        0.07480
C          1.92080       10.07700       -0.85170
Se        -0.92890        8.58980        1.42590
C         -2.75430        6.32330        3.13890
S         -1.82900        7.41520        4.12810
C         -3.28960        4.82210       -0.20840
C         -3.83310        3.59910       -0.45800
S         -4.65840        2.94460        0.94270
C         -3.53110        2.77110       -1.58850
C         -2.29920        2.73590       -2.16650
C         -2.14270        1.69880       -3.11700
C         -0.94390        1.29450       -3.73490
C          0.29450        2.00490       -3.50240
C          0.48850        3.35580       -3.44280
C          1.78530        3.77700       -3.08670
C          2.66360        2.76820       -2.82540
S          4.30630        3.01190       -2.27120
C          5.16600        1.70590       -3.22100
C          5.08480        1.93780       -4.71490
Se         1.86660        1.07290       -3.04640
C         -1.00460        0.10830       -4.45120
C         -2.17740       -0.66070       -4.60810
C         -3.38800       -0.23460       -4.02930
C         -4.63610       -0.96280       -4.14580
C         -5.87650       -0.39820       -4.24600
C         -6.97700       -1.28060       -4.26770
C         -6.64760       -2.59750       -4.17390
S         -7.67190       -4.01610       -4.13330
C         -9.29070       -3.37460       -4.68220
C         -9.30170       -3.02790       -6.15800
Se        -4.79600       -2.84590       -4.05000
C         -3.32340        0.93750       -3.27240
S         -4.60000        1.55650       -2.24790
C         -1.90700       -1.87520       -5.30180
C         -0.60330       -2.05870       -5.60870
S          0.36120       -0.65800       -5.20260
C          0.07700       -3.25370       -6.19440
C         -0.75750       -4.53650       -6.09740
C         -0.78630       -5.10200       -4.66460
C         -0.82950       -4.06430       -3.58220
C         -1.88040       -3.89460       -2.78400
O          0.22070       -3.21230       -3.41240
C          1.48630       -3.40440       -4.01330
C          1.46870       -3.50270       -5.57880
C          2.02950       -4.77930       -6.13840
C          1.32660       -5.68550       -6.79910
C         -0.15440       -5.60350       -7.02330
C         -0.46060       -5.36090       -8.50460
C          2.28570       -4.50760       -3.30370
C          2.49330       -4.16060       -1.83000
C          3.30740       -5.24360       -1.10800
C          3.84340       -4.73550        0.18880
C          3.30880       -4.85530        1.40720
C          2.07170       -5.45990        1.81930
C          1.66750       -5.57520        3.11650
C          0.37390       -6.13230        3.28080
C         -0.30010       -6.40430        4.48720
C          0.25040       -6.01650        5.76780
C          0.87200       -4.83900        6.07670
C          1.30910       -4.69970        7.40900
C          1.05970       -5.77340        8.21330
S          1.58720       -5.88480        9.87750
C          0.40430       -7.10860       10.54280
C         -0.99900       -6.54820       10.64720
Se         0.19040       -7.15700        7.26690
C         -1.53030       -7.04300        4.36920
C         -2.13230       -7.36970        3.13300
C         -1.47340       -7.07520        1.92160
C         -2.03030       -7.37730        0.61880
C         -1.81090       -6.67160       -0.53360
C         -2.37660       -7.19700       -1.70950
C         -3.08790       -8.34640       -1.54540
S         -3.99200       -9.23300       -2.75380
C         -4.37970       -7.92140       -3.97390
C         -5.23370       -6.81130       -3.39640
Se        -3.08900       -8.90840        0.24170
C         -0.22320       -6.46160        2.04150
S          0.84110       -6.04790        0.72360
C         -3.42190       -7.95020        3.32840
C         -3.76150       -8.07380        4.62620
S         -2.55330       -7.48080        5.71150
H          8.82740       -2.42890        0.98240
H          7.44980       -2.96620        0.03000
H          9.12930       -2.02720       -1.47060
H          7.76810       -0.57040       -2.71540
H          7.15300        0.24330       -1.27660
H          4.97050       -2.90510       -2.83090
H          6.40430       -2.19910       -3.73280
H          5.66930        0.12050        0.17120
H          6.91930       -1.65780        2.14930
H          7.37430        0.74510        2.22870
H          9.30120        1.51190        0.99450
H          9.64650        0.49220       -1.20880
H         11.34920       -1.23560       -0.75570
H         11.49620        0.12620        0.35830
H         10.78050       -1.38450        0.91050
H          4.74080       -0.43250        2.34440
H          4.69820       -2.15490        1.94100
H          2.48050       -1.10870        1.81050
H          2.99090       -1.84200        0.28950
H          3.45560        0.30170       -0.70160
H          1.82770        0.32130       -0.01510
H          4.30290        1.73860        1.10480
H          1.31220        2.18170        1.47690
H          3.80670        3.48500        2.62630
H          3.52880        4.48820        0.41830
H          4.35190        5.81550        2.33090
H          3.67410        6.75380        1.01010
H          2.44890        8.60580        1.62520
H          1.60980        8.66590        3.26250
H          3.64430        4.87440        4.23550
H          1.66500        3.09490        3.99220
H         -0.26190        4.57820        3.59140
H         -0.57930        5.34470        1.33550
H          1.27490        4.06100       -0.03340
H          2.16420        6.20740       -1.01380
H          0.40230        6.12170       -0.89070
H          1.31430        7.07980        0.27620
H          2.99140        5.44130        6.38870
H          2.46560        3.78780        6.07550
H          0.77930        4.81320        7.36420
H          0.10270        4.71950        5.74290
H          1.49860        7.21770        6.78070
H          0.45680        7.07760        5.36750
H         -0.33300        7.26870        8.28620
H         -2.61590        7.10870        7.64020
H         -3.63300        4.95950        6.08280
H         -3.48460        2.76320        5.60500
H         -5.18450        1.12700        6.59280
H         -9.29750        1.98420        4.16930
H         -8.56320        0.66030        3.22300
H        -10.08750       -0.97440        4.34760
H        -11.02470        0.28210        3.52830
H        -10.81300        0.33470        5.28340
H         -3.85480        7.44880       -0.59700
H         -2.82450        9.53370       -1.66440
H          1.47470       11.94430        0.15030
H          0.99980       10.49750        1.07560
H          1.48390        9.08500       -0.95280
H          1.97590       10.53260       -1.83790
H          2.93070        9.97820       -0.45740
H         -2.73850        5.37500       -0.94760
H         -1.49580        3.37340       -1.84710
H         -0.28510        4.05640       -3.71070
H          2.06850        4.81360       -3.03460
H          6.19640        1.74470       -2.87150
H          4.72190        0.74590       -2.94050
H          5.50260        2.90810       -4.97390
H          5.64150        1.16240       -5.23680
H          4.04870        1.90360       -5.05120
H         -6.01620        0.66580       -4.33990
H         -7.98700       -0.91750       -4.34680
H         -9.54290       -2.52180       -4.05310
H         -9.98170       -4.18900       -4.46500
H         -8.57060       -2.25320       -6.37970
H        -10.28790       -2.66870       -6.44550
H         -9.06290       -3.90630       -6.75320
H         -2.67270       -2.60170       -5.51150
H          0.24600       -3.04460       -7.25950
H         -1.78030       -4.32400       -6.41910
H          0.09570       -5.73030       -4.52510
H         -1.66730       -5.73710       -4.56700
H         -1.87280       -3.13970       -2.01870
H         -2.76170       -4.50110       -2.87310
H          1.98410       -2.45650       -3.76040
H          2.12800       -2.69760       -5.92780
H          3.09660       -4.90970       -6.02500
H          1.81890       -6.55130       -7.22020
H         -0.59750       -6.57260       -6.75980
H         -0.05930       -6.17420       -9.10470
H         -0.01390       -4.43340       -8.85440
H         -1.53520       -5.31080       -8.66550
H          1.78030       -5.47100       -3.37990
H          3.25870       -4.59680       -3.78900
H          3.02250       -3.20720       -1.75720
H          1.52700       -4.04040       -1.33890
H          4.15480       -5.52220       -1.74050
H          2.68730       -6.12900       -0.96160
H          4.76660       -4.17870        0.10180
H          3.85380       -4.43220        2.24380
H          2.29360       -5.29330        3.94350
H          0.96190       -4.03720        5.36270
H          1.78890       -3.80860        7.77570
H          0.80230       -7.37490       11.52140
H          0.44380       -7.98400        9.88700
H         -1.00830       -5.66240       11.27820
H         -1.66370       -7.29440       11.07720
H         -1.37750       -6.27730        9.66150
H         -1.28370       -5.73400       -0.55850
H         -2.23990       -6.71440       -2.65900
H         -3.43640       -7.54980       -4.37370
H         -4.90810       -8.45560       -4.76300
H         -4.74240       -6.34130       -2.54670
H         -5.41260       -6.04690       -4.15280
H         -6.19360       -7.19970       -3.06580
H         -4.07970       -8.24270        2.52760
H         -4.66620       -8.47480        5.03880
