
  xtb     03072214263D
 energy: -486.876294470307 gnorm: 0.000190937438 xtb: 6.4.1 (unknown)
284313  0     0  0            999 V2000
   -8.4415  -20.9430    0.3407 C   0  0  0  0  0  0  0  0  0  0  0  0
   -7.6875  -20.4005   -0.6364 C   0  0  0  0  0  0  0  0  0  0  0  0
   -7.8927  -18.9958   -0.7838 C   0  0  0  0  0  0  0  0  0  0  0  0
   -7.2449  -18.1147   -1.6639 C   0  0  0  0  0  0  0  0  0  0  0  0
   -6.2579  -18.5899   -2.6418 C   0  0  0  0  0  0  0  0  0  0  0  0
   -6.5536  -19.6365   -3.5145 C   0  0  0  0  0  0  0  0  0  0  0  0
   -5.6169  -20.0784   -4.4225 C   0  0  0  0  0  0  0  0  0  0  0  0
   -4.3504  -19.4977   -4.5050 C   0  0  0  0  0  0  0  0  0  0  0  0
   -3.2596  -20.1466   -5.7303 S   0  0  0  0  0  0  0  0  0  0  0  0
   -1.5762  -19.8411   -5.0592 C   0  0  0  0  0  0  0  0  0  0  0  0
   -0.6056  -20.7920   -5.7316 C   0  0  0  0  0  0  0  0  0  0  0  0
   -4.0817  -18.4335   -3.6497 C   0  0  0  0  0  0  0  0  0  0  0  0
   -2.8934  -17.7883   -3.6900 F   0  0  0  0  0  0  0  0  0  0  0  0
   -5.0074  -17.9888   -2.7275 C   0  0  0  0  0  0  0  0  0  0  0  0
   -7.5815  -16.7726   -1.5613 C   0  0  0  0  0  0  0  0  0  0  0  0
   -8.5354  -16.2927   -0.6322 C   0  0  0  0  0  0  0  0  0  0  0  0
   -9.1681  -17.1684    0.2656 C   0  0  0  0  0  0  0  0  0  0  0  0
  -10.1062  -16.6338    1.2587 C   0  0  0  0  0  0  0  0  0  0  0  0
   -9.7509  -15.5246    2.0266 C   0  0  0  0  0  0  0  0  0  0  0  0
  -10.6538  -14.9296    2.8826 C   0  0  0  0  0  0  0  0  0  0  0  0
  -11.9491  -15.4223    3.0006 C   0  0  0  0  0  0  0  0  0  0  0  0
  -13.1912  -14.6772    4.0076 S   0  0  0  0  0  0  0  0  0  0  0  0
  -12.7579  -12.9021    3.9236 C   0  0  0  0  0  0  0  0  0  0  0  0
  -12.7895  -12.3703    2.5044 C   0  0  0  0  0  0  0  0  0  0  0  0
  -12.2691  -16.5753    2.2848 C   0  0  0  0  0  0  0  0  0  0  0  0
  -11.3760  -17.1790    1.4251 C   0  0  0  0  0  0  0  0  0  0  0  0
  -13.5019  -17.1047    2.4046 F   0  0  0  0  0  0  0  0  0  0  0  0
   -8.8389  -18.5104    0.1528 C   0  0  0  0  0  0  0  0  0  0  0  0
   -9.4510  -19.7990    1.1568 S   0  0  0  0  0  0  0  0  0  0  0  0
   -8.7403  -14.8984   -0.7583 C   0  0  0  0  0  0  0  0  0  0  0  0
   -7.9586  -14.3100   -1.7083 C   0  0  0  0  0  0  0  0  0  0  0  0
   -6.9474  -15.4724   -2.5409 S   0  0  0  0  0  0  0  0  0  0  0  0
   -7.8698  -12.9051   -1.9468 C   0  0  0  0  0  0  0  0  0  0  0  0
   -8.4322  -11.9369   -1.1645 C   0  0  0  0  0  0  0  0  0  0  0  0
   -8.0858  -10.6186   -1.5356 C   0  0  0  0  0  0  0  0  0  0  0  0
   -8.4648   -9.4193   -0.8916 C   0  0  0  0  0  0  0  0  0  0  0  0
   -9.2455   -9.3884    0.3271 C   0  0  0  0  0  0  0  0  0  0  0  0
  -10.0918   -8.3917    0.7295 C   0  0  0  0  0  0  0  0  0  0  0  0
  -10.6220   -8.4945    2.0326 C   0  0  0  0  0  0  0  0  0  0  0  0
  -10.1976   -9.5829    2.7342 C   0  0  0  0  0  0  0  0  0  0  0  0
  -10.5662  -10.0743    4.3701 S   0  0  0  0  0  0  0  0  0  0  0  0
  -11.8734   -8.8839    4.8476 C   0  0  0  0  0  0  0  0  0  0  0  0
  -12.4015   -9.2495    6.2206 C   0  0  0  0  0  0  0  0  0  0  0  0
   -9.0549  -10.6662    1.7208 Se  0  0  0  0  0  2  0  0  0  0  0  0
   -7.9660   -8.2478   -1.4597 C   0  0  0  0  0  0  0  0  0  0  0  0
   -7.1447   -8.2389   -2.6123 C   0  0  0  0  0  0  0  0  0  0  0  0
   -6.7982   -9.4347   -3.2771 C   0  0  0  0  0  0  0  0  0  0  0  0
   -6.0159   -9.4308   -4.4935 C   0  0  0  0  0  0  0  0  0  0  0  0
   -5.0534  -10.3181   -4.8880 C   0  0  0  0  0  0  0  0  0  0  0  0
   -4.4859  -10.0964   -6.1579 C   0  0  0  0  0  0  0  0  0  0  0  0
   -5.0008   -9.0357   -6.8494 C   0  0  0  0  0  0  0  0  0  0  0  0
   -4.4916   -8.5859   -8.4620 S   0  0  0  0  0  0  0  0  0  0  0  0
   -5.4701   -7.0737   -8.7769 C   0  0  0  0  0  0  0  0  0  0  0  0
   -4.8908   -5.8444   -8.1069 C   0  0  0  0  0  0  0  0  0  0  0  0
   -6.3385   -8.1641   -5.8574 Se  0  0  0  0  0  2  0  0  0  0  0  0
   -7.2589  -10.6062   -2.6862 C   0  0  0  0  0  0  0  0  0  0  0  0
   -6.9147  -12.2245   -3.2391 S   0  0  0  0  0  0  0  0  0  0  0  0
   -6.6525   -6.9461   -2.8976 C   0  0  0  0  0  0  0  0  0  0  0  0
   -7.0775   -5.9813   -2.0307 C   0  0  0  0  0  0  0  0  0  0  0  0
   -8.1474   -6.6343   -0.8134 S   0  0  0  0  0  0  0  0  0  0  0  0
   -6.6417   -4.6227   -2.0462 C   0  0  0  0  0  0  0  0  0  0  0  0
   -5.7737   -4.0898   -2.9553 C   0  0  0  0  0  0  0  0  0  0  0  0
   -5.3855   -2.7634   -2.6623 C   0  0  0  0  0  0  0  0  0  0  0  0
   -4.4298   -1.9909   -3.3399 C   0  0  0  0  0  0  0  0  0  0  0  0
   -3.6788   -2.5535   -4.4704 C   0  0  0  0  0  0  0  0  0  0  0  0
   -2.9961   -3.7573   -4.3207 C   0  0  0  0  0  0  0  0  0  0  0  0
   -2.2940   -4.3196   -5.3686 C   0  0  0  0  0  0  0  0  0  0  0  0
   -2.2578   -3.6993   -6.6117 C   0  0  0  0  0  0  0  0  0  0  0  0
   -1.4242   -4.3119   -8.0381 S   0  0  0  0  0  0  0  0  0  0  0  0
   -0.4989   -5.7719   -7.4441 C   0  0  0  0  0  0  0  0  0  0  0  0
   -1.3406   -7.0325   -7.3760 C   0  0  0  0  0  0  0  0  0  0  0  0
   -2.9391   -2.4873   -6.7441 C   0  0  0  0  0  0  0  0  0  0  0  0
   -2.9260   -1.8601   -7.9376 F   0  0  0  0  0  0  0  0  0  0  0  0
   -3.6305   -1.9086   -5.7031 C   0  0  0  0  0  0  0  0  0  0  0  0
   -4.1835   -0.7285   -2.8315 C   0  0  0  0  0  0  0  0  0  0  0  0
   -4.8270   -0.2185   -1.6741 C   0  0  0  0  0  0  0  0  0  0  0  0
   -5.7815   -0.9969   -0.9959 C   0  0  0  0  0  0  0  0  0  0  0  0
   -6.4317   -0.5274    0.2340 C   0  0  0  0  0  0  0  0  0  0  0  0
   -5.6843   -0.0460    1.3078 C   0  0  0  0  0  0  0  0  0  0  0  0
   -6.3079    0.3876    2.4577 C   0  0  0  0  0  0  0  0  0  0  0  0
   -7.6948    0.3520    2.5894 C   0  0  0  0  0  0  0  0  0  0  0  0
   -8.3751    0.8947    4.1299 S   0  0  0  0  0  0  0  0  0  0  0  0
   -9.8831    1.8173    3.6518 C   0  0  0  0  0  0  0  0  0  0  0  0
   -9.5727    2.9611    2.7076 C   0  0  0  0  0  0  0  0  0  0  0  0
   -8.4253   -0.1638    1.5236 C   0  0  0  0  0  0  0  0  0  0  0  0
   -7.8155   -0.5867    0.3599 C   0  0  0  0  0  0  0  0  0  0  0  0
   -9.7709   -0.2673    1.5912 F   0  0  0  0  0  0  0  0  0  0  0  0
   -6.0416   -2.2571   -1.5143 C   0  0  0  0  0  0  0  0  0  0  0  0
   -7.0880   -3.4662   -0.8088 S   0  0  0  0  0  0  0  0  0  0  0  0
   -4.3257    1.0606   -1.3214 C   0  0  0  0  0  0  0  0  0  0  0  0
   -3.3158    1.4936   -2.1289 C   0  0  0  0  0  0  0  0  0  0  0  0
   -2.9743    0.3715   -3.4334 S   0  0  0  0  0  0  0  0  0  0  0  0
   -2.4657    2.6220   -1.9446 C   0  0  0  0  0  0  0  0  0  0  0  0
   -1.3628    2.9416   -2.6791 C   0  0  0  0  0  0  0  0  0  0  0  0
   -0.5909    3.9920   -2.1279 C   0  0  0  0  0  0  0  0  0  0  0  0
    0.6662    4.4570   -2.5652 C   0  0  0  0  0  0  0  0  0  0  0  0
    1.3474    3.9341   -3.7323 C   0  0  0  0  0  0  0  0  0  0  0  0
    2.1196    4.6557   -4.6019 C   0  0  0  0  0  0  0  0  0  0  0  0
    2.7874    3.9235   -5.6033 C   0  0  0  0  0  0  0  0  0  0  0  0
    2.5833    2.5760   -5.5566 C   0  0  0  0  0  0  0  0  0  0  0  0
    3.2401    1.3173   -6.5771 S   0  0  0  0  0  0  0  0  0  0  0  0
    3.5735    2.2062   -8.1400 C   0  0  0  0  0  0  0  0  0  0  0  0
    2.3014    2.6961   -8.8018 C   0  0  0  0  0  0  0  0  0  0  0  0
    1.4230    2.0910   -4.1684 Se  0  0  0  0  0  2  0  0  0  0  0  0
    1.2708    5.4184   -1.7605 C   0  0  0  0  0  0  0  0  0  0  0  0
    0.6816    5.9472   -0.5863 C   0  0  0  0  0  0  0  0  0  0  0  0
   -0.5913    5.5053   -0.1683 C   0  0  0  0  0  0  0  0  0  0  0  0
   -1.2358    5.9698    1.0413 C   0  0  0  0  0  0  0  0  0  0  0  0
   -2.5764    6.1702    1.2246 C   0  0  0  0  0  0  0  0  0  0  0  0
   -2.9827    6.5215    2.5263 C   0  0  0  0  0  0  0  0  0  0  0  0
   -1.9779    6.5959    3.4466 C   0  0  0  0  0  0  0  0  0  0  0  0
   -2.2085    7.1101    5.1016 S   0  0  0  0  0  0  0  0  0  0  0  0
   -0.7188    6.4183    5.9036 C   0  0  0  0  0  0  0  0  0  0  0  0
   -0.7794    4.9092    6.0192 C   0  0  0  0  0  0  0  0  0  0  0  0
   -0.3037    6.2419    2.6592 Se  0  0  0  0  0  2  0  0  0  0  0  0
   -1.1835    4.5211   -0.9562 C   0  0  0  0  0  0  0  0  0  0  0  0
   -2.6638    3.6818   -0.5650 S   0  0  0  0  0  0  0  0  0  0  0  0
    1.5524    6.8470    0.0754 C   0  0  0  0  0  0  0  0  0  0  0  0
    2.7772    6.9628   -0.5120 C   0  0  0  0  0  0  0  0  0  0  0  0
    2.8913    6.0237   -1.9844 S   0  0  0  0  0  0  0  0  0  0  0  0
    3.9166    7.6534   -0.0102 C   0  0  0  0  0  0  0  0  0  0  0  0
    5.1805    7.6537   -0.5194 C   0  0  0  0  0  0  0  0  0  0  0  0
    6.1265    8.3185    0.2982 C   0  0  0  0  0  0  0  0  0  0  0  0
    7.5048    8.4930    0.0510 C   0  0  0  0  0  0  0  0  0  0  0  0
    8.1545    7.8885   -1.0891 C   0  0  0  0  0  0  0  0  0  0  0  0
    7.9225    6.6483   -1.6205 C   0  0  0  0  0  0  0  0  0  0  0  0
    8.6763    6.3072   -2.7577 C   0  0  0  0  0  0  0  0  0  0  0  0
    9.5421    7.2747   -3.1858 C   0  0  0  0  0  0  0  0  0  0  0  0
   10.5753    7.1088   -4.5835 S   0  0  0  0  0  0  0  0  0  0  0  0
   11.4725    8.7029   -4.5181 C   0  0  0  0  0  0  0  0  0  0  0  0
   12.4689    8.7902   -5.6555 C   0  0  0  0  0  0  0  0  0  0  0  0
    9.4810    8.7964   -2.0759 Se  0  0  0  0  0  2  0  0  0  0  0  0
    8.1939    9.2693    0.9763 C   0  0  0  0  0  0  0  0  0  0  0  0
    7.5979    9.8333    2.1288 C   0  0  0  0  0  0  0  0  0  0  0  0
    6.2226    9.6462    2.3901 C   0  0  0  0  0  0  0  0  0  0  0  0
    5.5416   10.2514    3.5156 C   0  0  0  0  0  0  0  0  0  0  0  0
    4.4554    9.7520    4.1807 C   0  0  0  0  0  0  0  0  0  0  0  0
    3.8519   10.5952    5.1365 C   0  0  0  0  0  0  0  0  0  0  0  0
    4.4352   11.8197    5.2654 C   0  0  0  0  0  0  0  0  0  0  0  0
    3.9914   13.1813    6.2717 S   0  0  0  0  0  0  0  0  0  0  0  0
    2.6697   12.5051    7.3352 C   0  0  0  0  0  0  0  0  0  0  0  0
    3.1995   11.5796    8.4132 C   0  0  0  0  0  0  0  0  0  0  0  0
    5.9256   12.0032    4.1436 Se  0  0  0  0  0  2  0  0  0  0  0  0
    5.5299    8.8754    1.4564 C   0  0  0  0  0  0  0  0  0  0  0  0
    3.8234    8.5146    1.5107 S   0  0  0  0  0  0  0  0  0  0  0  0
    8.5468   10.5244    2.9184 C   0  0  0  0  0  0  0  0  0  0  0  0
    9.8092   10.5226    2.3982 C   0  0  0  0  0  0  0  0  0  0  0  0
    9.8959    9.6328    0.8971 S   0  0  0  0  0  0  0  0  0  0  0  0
   10.9602   11.1618    2.9484 C   0  0  0  0  0  0  0  0  0  0  0  0
   10.9972   11.9206    4.0806 C   0  0  0  0  0  0  0  0  0  0  0  0
   12.2726   12.4717    4.3572 C   0  0  0  0  0  0  0  0  0  0  0  0
   12.6392   13.2768    5.4485 C   0  0  0  0  0  0  0  0  0  0  0  0
   11.6264   13.6714    6.4335 C   0  0  0  0  0  0  0  0  0  0  0  0
   10.4066   14.2013    6.0130 C   0  0  0  0  0  0  0  0  0  0  0  0
    9.3921   14.4468    6.9138 C   0  0  0  0  0  0  0  0  0  0  0  0
    9.5597   14.1683    8.2658 C   0  0  0  0  0  0  0  0  0  0  0  0
    8.2533   14.3514    9.4426 S   0  0  0  0  0  0  0  0  0  0  0  0
    6.8421   13.6571    8.5047 C   0  0  0  0  0  0  0  0  0  0  0  0
    7.1006   12.2279    8.0717 C   0  0  0  0  0  0  0  0  0  0  0  0
   10.8095   13.7188    8.6855 C   0  0  0  0  0  0  0  0  0  0  0  0
   11.0239   13.4778    9.9921 F   0  0  0  0  0  0  0  0  0  0  0  0
   11.8326   13.4676    7.7946 C   0  0  0  0  0  0  0  0  0  0  0  0
   13.9753   13.6376    5.5309 C   0  0  0  0  0  0  0  0  0  0  0  0
   14.9440   13.2359    4.5782 C   0  0  0  0  0  0  0  0  0  0  0  0
   14.5786   12.4235    3.4933 C   0  0  0  0  0  0  0  0  0  0  0  0
   15.5663   11.9290    2.5270 C   0  0  0  0  0  0  0  0  0  0  0  0
   15.3471   12.0241    1.1565 C   0  0  0  0  0  0  0  0  0  0  0  0
   16.2596   11.5232    0.2477 C   0  0  0  0  0  0  0  0  0  0  0  0
   17.4241   10.8988    0.6803 C   0  0  0  0  0  0  0  0  0  0  0  0
   18.6600   10.2082   -0.3631 S   0  0  0  0  0  0  0  0  0  0  0  0
   17.8869   10.2567   -2.0234 C   0  0  0  0  0  0  0  0  0  0  0  0
   18.7795    9.5069   -2.9944 C   0  0  0  0  0  0  0  0  0  0  0  0
   17.6354   10.8177    2.0587 C   0  0  0  0  0  0  0  0  0  0  0  0
   16.7368   11.3160    2.9731 C   0  0  0  0  0  0  0  0  0  0  0  0
   18.7566   10.2216    2.5135 F   0  0  0  0  0  0  0  0  0  0  0  0
   13.2379   12.0769    3.3996 C   0  0  0  0  0  0  0  0  0  0  0  0
   12.5244   11.0671    2.1666 S   0  0  0  0  0  0  0  0  0  0  0  0
   16.2237   13.7970    4.8681 C   0  0  0  0  0  0  0  0  0  0  0  0
   16.2231   14.5636    5.9772 C   0  0  0  0  0  0  0  0  0  0  0  0
   14.6796   14.6646    6.7524 S   0  0  0  0  0  0  0  0  0  0  0  0
   -8.4778  -21.9689    0.6517 H   0  0  0  0  0  0  0  0  0  0  0  0
   -6.9902  -20.9608   -1.2322 H   0  0  0  0  0  0  0  0  0  0  0  0
   -7.5307  -20.0942   -3.4871 H   0  0  0  0  0  0  0  0  0  0  0  0
   -5.8481  -20.8901   -5.0948 H   0  0  0  0  0  0  0  0  0  0  0  0
   -1.6189  -20.0164   -3.9853 H   0  0  0  0  0  0  0  0  0  0  0  0
   -1.3097  -18.8037   -5.2548 H   0  0  0  0  0  0  0  0  0  0  0  0
    0.3971  -20.6275   -5.3429 H   0  0  0  0  0  0  0  0  0  0  0  0
   -0.5941  -20.6279   -6.8068 H   0  0  0  0  0  0  0  0  0  0  0  0
   -0.8895  -21.8250   -5.5438 H   0  0  0  0  0  0  0  0  0  0  0  0
   -4.7342  -17.1731   -2.0764 H   0  0  0  0  0  0  0  0  0  0  0  0
   -8.7483  -15.1293    1.9600 H   0  0  0  0  0  0  0  0  0  0  0  0
  -10.3464  -14.0701    3.4579 H   0  0  0  0  0  0  0  0  0  0  0  0
  -11.7905  -12.7435    4.3982 H   0  0  0  0  0  0  0  0  0  0  0  0
  -13.5281  -12.4302    4.5337 H   0  0  0  0  0  0  0  0  0  0  0  0
  -12.0236  -12.8464    1.8947 H   0  0  0  0  0  0  0  0  0  0  0  0
  -12.6052  -11.2979    2.5050 H   0  0  0  0  0  0  0  0  0  0  0  0
  -13.7600  -12.5568    2.0501 H   0  0  0  0  0  0  0  0  0  0  0  0
  -11.6912  -18.0444    0.8641 H   0  0  0  0  0  0  0  0  0  0  0  0
   -9.4577  -14.3567   -0.1716 H   0  0  0  0  0  0  0  0  0  0  0  0
   -9.0858  -12.1724   -0.3434 H   0  0  0  0  0  0  0  0  0  0  0  0
  -10.3750   -7.5795    0.0819 H   0  0  0  0  0  0  0  0  0  0  0  0
  -11.2942   -7.7534    2.4281 H   0  0  0  0  0  0  0  0  0  0  0  0
  -12.6582   -8.9406    4.0929 H   0  0  0  0  0  0  0  0  0  0  0  0
  -11.4274   -7.8893    4.8489 H   0  0  0  0  0  0  0  0  0  0  0  0
  -13.1775   -8.5464    6.5149 H   0  0  0  0  0  0  0  0  0  0  0  0
  -11.6023   -9.2155    6.9575 H   0  0  0  0  0  0  0  0  0  0  0  0
  -12.8220  -10.2525    6.2143 H   0  0  0  0  0  0  0  0  0  0  0  0
   -4.7102  -11.1139   -4.2489 H   0  0  0  0  0  0  0  0  0  0  0  0
   -3.7036  -10.7154   -6.5616 H   0  0  0  0  0  0  0  0  0  0  0  0
   -6.4910   -7.2778   -8.4400 H   0  0  0  0  0  0  0  0  0  0  0  0
   -5.4676   -6.9662   -9.8611 H   0  0  0  0  0  0  0  0  0  0  0  0
   -3.8934   -5.6366   -8.4848 H   0  0  0  0  0  0  0  0  0  0  0  0
   -4.8360   -5.9805   -7.0257 H   0  0  0  0  0  0  0  0  0  0  0  0
   -5.5238   -4.9833   -8.3096 H   0  0  0  0  0  0  0  0  0  0  0  0
   -5.9448   -6.7419   -3.6806 H   0  0  0  0  0  0  0  0  0  0  0  0
   -5.4081   -4.6250   -3.8113 H   0  0  0  0  0  0  0  0  0  0  0  0
   -2.9984   -4.2532   -3.3615 H   0  0  0  0  0  0  0  0  0  0  0  0
   -1.7735   -5.2484   -5.2037 H   0  0  0  0  0  0  0  0  0  0  0  0
   -0.0480   -5.5153   -6.4864 H   0  0  0  0  0  0  0  0  0  0  0  0
    0.2956   -5.8853   -8.1820 H   0  0  0  0  0  0  0  0  0  0  0  0
   -0.7257   -7.8652   -7.0400 H   0  0  0  0  0  0  0  0  0  0  0  0
   -1.7406   -7.2770   -8.3568 H   0  0  0  0  0  0  0  0  0  0  0  0
   -2.1749   -6.9221   -6.6874 H   0  0  0  0  0  0  0  0  0  0  0  0
   -4.1403   -0.9718   -5.8636 H   0  0  0  0  0  0  0  0  0  0  0  0
   -4.6071   -0.0287    1.2443 H   0  0  0  0  0  0  0  0  0  0  0  0
   -5.7268    0.7632    3.2857 H   0  0  0  0  0  0  0  0  0  0  0  0
  -10.6055    1.1228    3.2290 H   0  0  0  0  0  0  0  0  0  0  0  0
  -10.2608    2.1861    4.6055 H   0  0  0  0  0  0  0  0  0  0  0  0
  -10.4781    3.5335    2.5160 H   0  0  0  0  0  0  0  0  0  0  0  0
   -9.1949    2.5884    1.7571 H   0  0  0  0  0  0  0  0  0  0  0  0
   -8.8253    3.6223    3.1412 H   0  0  0  0  0  0  0  0  0  0  0  0
   -8.4332   -0.9589   -0.4426 H   0  0  0  0  0  0  0  0  0  0  0  0
   -4.6808    1.6342   -0.4839 H   0  0  0  0  0  0  0  0  0  0  0  0
   -1.1102    2.4126   -3.5829 H   0  0  0  0  0  0  0  0  0  0  0  0
    2.1924    5.7292   -4.5523 H   0  0  0  0  0  0  0  0  0  0  0  0
    3.4168    4.4041   -6.3322 H   0  0  0  0  0  0  0  0  0  0  0  0
    4.2684    3.0174   -7.9266 H   0  0  0  0  0  0  0  0  0  0  0  0
    4.0779    1.4627   -8.7568 H   0  0  0  0  0  0  0  0  0  0  0  0
    1.6321    1.8618   -8.9988 H   0  0  0  0  0  0  0  0  0  0  0  0
    2.5409    3.1824   -9.7454 H   0  0  0  0  0  0  0  0  0  0  0  0
    1.7842    3.4104   -8.1642 H   0  0  0  0  0  0  0  0  0  0  0  0
   -3.2828    6.0930    0.4156 H   0  0  0  0  0  0  0  0  0  0  0  0
   -4.0101    6.7106    2.7849 H   0  0  0  0  0  0  0  0  0  0  0  0
   -0.6877    6.8916    6.8845 H   0  0  0  0  0  0  0  0  0  0  0  0
    0.1456    6.7466    5.3173 H   0  0  0  0  0  0  0  0  0  0  0  0
   -1.6579    4.6071    6.5845 H   0  0  0  0  0  0  0  0  0  0  0  0
    0.1097    4.5411    6.5269 H   0  0  0  0  0  0  0  0  0  0  0  0
   -0.8274    4.4501    5.0321 H   0  0  0  0  0  0  0  0  0  0  0  0
    1.3039    7.3981    0.9672 H   0  0  0  0  0  0  0  0  0  0  0  0
    5.4151    7.2001   -1.4649 H   0  0  0  0  0  0  0  0  0  0  0  0
    7.2418    5.9490   -1.1647 H   0  0  0  0  0  0  0  0  0  0  0  0
    8.5866    5.3567   -3.2544 H   0  0  0  0  0  0  0  0  0  0  0  0
   11.9697    8.7521   -3.5449 H   0  0  0  0  0  0  0  0  0  0  0  0
   10.7226    9.4971   -4.5822 H   0  0  0  0  0  0  0  0  0  0  0  0
   11.9596    8.7128   -6.6132 H   0  0  0  0  0  0  0  0  0  0  0  0
   13.1961    7.9847   -5.5861 H   0  0  0  0  0  0  0  0  0  0  0  0
   12.9940    9.7419   -5.6145 H   0  0  0  0  0  0  0  0  0  0  0  0
    4.0887    8.7530    4.0190 H   0  0  0  0  0  0  0  0  0  0  0  0
    2.9876   10.2804    5.6945 H   0  0  0  0  0  0  0  0  0  0  0  0
    1.9429   12.0161    6.6880 H   0  0  0  0  0  0  0  0  0  0  0  0
    2.2106   13.3911    7.7734 H   0  0  0  0  0  0  0  0  0  0  0  0
    3.8990   12.1080    9.0565 H   0  0  0  0  0  0  0  0  0  0  0  0
    3.7109   10.7236    7.9782 H   0  0  0  0  0  0  0  0  0  0  0  0
    2.3737   11.2173    9.0223 H   0  0  0  0  0  0  0  0  0  0  0  0
    8.3132   10.9860    3.8621 H   0  0  0  0  0  0  0  0  0  0  0  0
   10.1410   12.0724    4.7105 H   0  0  0  0  0  0  0  0  0  0  0  0
   10.2567   14.4302    4.9687 H   0  0  0  0  0  0  0  0  0  0  0  0
    8.4539   14.8470    6.5619 H   0  0  0  0  0  0  0  0  0  0  0  0
    6.0159   13.7128    9.2127 H   0  0  0  0  0  0  0  0  0  0  0  0
    6.6161   14.3023    7.6570 H   0  0  0  0  0  0  0  0  0  0  0  0
    7.9449   12.1803    7.3859 H   0  0  0  0  0  0  0  0  0  0  0  0
    7.3187   11.6014    8.9336 H   0  0  0  0  0  0  0  0  0  0  0  0
    6.2255   11.8315    7.5614 H   0  0  0  0  0  0  0  0  0  0  0  0
   12.7654   13.0734    8.1655 H   0  0  0  0  0  0  0  0  0  0  0  0
   14.4582   12.5144    0.7904 H   0  0  0  0  0  0  0  0  0  0  0  0
   16.0559   11.6266   -0.8053 H   0  0  0  0  0  0  0  0  0  0  0  0
   17.7800   11.3003   -2.3204 H   0  0  0  0  0  0  0  0  0  0  0  0
   16.9079    9.7835   -1.9472 H   0  0  0  0  0  0  0  0  0  0  0  0
   18.3384    9.5199   -3.9890 H   0  0  0  0  0  0  0  0  0  0  0  0
   19.7627    9.9690   -3.0421 H   0  0  0  0  0  0  0  0  0  0  0  0
   18.9005    8.4734   -2.6786 H   0  0  0  0  0  0  0  0  0  0  0  0
   16.9374   11.1971    4.0263 H   0  0  0  0  0  0  0  0  0  0  0  0
   17.0908   13.6417    4.2526 H   0  0  0  0  0  0  0  0  0  0  0  0
   17.0475   15.0959    6.4101 H   0  0  0  0  0  0  0  0  0  0  0  0
  1  2  2  0  0  0  0
  2  3  1  0  0  0  0
  3  4  2  0  0  0  0
  4  5  1  0  0  0  0
  5  6  2  0  0  0  0
  6  7  1  0  0  0  0
  7  8  2  0  0  0  0
  8  9  1  0  0  0  0
  9 10  1  0  0  0  0
 10 11  1  0  0  0  0
  8 12  1  0  0  0  0
 12 13  1  0  0  0  0
 12 14  2  0  0  0  0
  4 15  1  0  0  0  0
 15 16  2  0  0  0  0
 16 17  1  0  0  0  0
 17 18  1  0  0  0  0
 18 19  2  0  0  0  0
 19 20  1  0  0  0  0
 20 21  2  0  0  0  0
 21 22  1  0  0  0  0
 22 23  1  0  0  0  0
 23 24  1  0  0  0  0
 21 25  1  0  0  0  0
 25 26  2  0  0  0  0
 25 27  1  0  0  0  0
 17 28  2  0  0  0  0
 28 29  1  0  0  0  0
 16 30  1  0  0  0  0
 30 31  2  0  0  0  0
 31 32  1  0  0  0  0
 31 33  1  0  0  0  0
 33 34  2  0  0  0  0
 34 35  1  0  0  0  0
 35 36  2  0  0  0  0
 36 37  1  0  0  0  0
 37 38  2  0  0  0  0
 38 39  1  0  0  0  0
 39 40  2  0  0  0  0
 40 41  1  0  0  0  0
 41 42  1  0  0  0  0
 42 43  1  0  0  0  0
 40 44  1  0  0  0  0
 36 45  1  0  0  0  0
 45 46  2  0  0  0  0
 46 47  1  0  0  0  0
 47 48  1  0  0  0  0
 48 49  2  0  0  0  0
 49 50  1  0  0  0  0
 50 51  2  0  0  0  0
 51 52  1  0  0  0  0
 52 53  1  0  0  0  0
 53 54  1  0  0  0  0
 51 55  1  0  0  0  0
 47 56  2  0  0  0  0
 56 57  1  0  0  0  0
 46 58  1  0  0  0  0
 58 59  2  0  0  0  0
 59 60  1  0  0  0  0
 59 61  1  0  0  0  0
 61 62  2  0  0  0  0
 62 63  1  0  0  0  0
 63 64  2  0  0  0  0
 64 65  1  0  0  0  0
 65 66  2  0  0  0  0
 66 67  1  0  0  0  0
 67 68  2  0  0  0  0
 68 69  1  0  0  0  0
 69 70  1  0  0  0  0
 70 71  1  0  0  0  0
 68 72  1  0  0  0  0
 72 73  1  0  0  0  0
 72 74  2  0  0  0  0
 64 75  1  0  0  0  0
 75 76  2  0  0  0  0
 76 77  1  0  0  0  0
 77 78  1  0  0  0  0
 78 79  2  0  0  0  0
 79 80  1  0  0  0  0
 80 81  2  0  0  0  0
 81 82  1  0  0  0  0
 82 83  1  0  0  0  0
 83 84  1  0  0  0  0
 81 85  1  0  0  0  0
 85 86  2  0  0  0  0
 85 87  1  0  0  0  0
 77 88  2  0  0  0  0
 88 89  1  0  0  0  0
 76 90  1  0  0  0  0
 90 91  2  0  0  0  0
 91 92  1  0  0  0  0
 91 93  1  0  0  0  0
 93 94  2  0  0  0  0
 94 95  1  0  0  0  0
 95 96  2  0  0  0  0
 96 97  1  0  0  0  0
 97 98  2  0  0  0  0
 98 99  1  0  0  0  0
 99100  2  0  0  0  0
100101  1  0  0  0  0
101102  1  0  0  0  0
102103  1  0  0  0  0
100104  1  0  0  0  0
 96105  1  0  0  0  0
105106  2  0  0  0  0
106107  1  0  0  0  0
107108  1  0  0  0  0
108109  2  0  0  0  0
109110  1  0  0  0  0
110111  2  0  0  0  0
111112  1  0  0  0  0
112113  1  0  0  0  0
113114  1  0  0  0  0
111115  1  0  0  0  0
107116  2  0  0  0  0
116117  1  0  0  0  0
106118  1  0  0  0  0
118119  2  0  0  0  0
119120  1  0  0  0  0
119121  1  0  0  0  0
121122  2  0  0  0  0
122123  1  0  0  0  0
123124  2  0  0  0  0
124125  1  0  0  0  0
125126  2  0  0  0  0
126127  1  0  0  0  0
127128  2  0  0  0  0
128129  1  0  0  0  0
129130  1  0  0  0  0
130131  1  0  0  0  0
128132  1  0  0  0  0
124133  1  0  0  0  0
133134  2  0  0  0  0
134135  1  0  0  0  0
135136  1  0  0  0  0
136137  2  0  0  0  0
137138  1  0  0  0  0
138139  2  0  0  0  0
139140  1  0  0  0  0
140141  1  0  0  0  0
141142  1  0  0  0  0
139143  1  0  0  0  0
135144  2  0  0  0  0
144145  1  0  0  0  0
134146  1  0  0  0  0
146147  2  0  0  0  0
147148  1  0  0  0  0
147149  1  0  0  0  0
149150  2  0  0  0  0
150151  1  0  0  0  0
151152  2  0  0  0  0
152153  1  0  0  0  0
153154  2  0  0  0  0
154155  1  0  0  0  0
155156  2  0  0  0  0
156157  1  0  0  0  0
157158  1  0  0  0  0
158159  1  0  0  0  0
156160  1  0  0  0  0
160161  1  0  0  0  0
160162  2  0  0  0  0
152163  1  0  0  0  0
163164  2  0  0  0  0
164165  1  0  0  0  0
165166  1  0  0  0  0
166167  2  0  0  0  0
167168  1  0  0  0  0
168169  2  0  0  0  0
169170  1  0  0  0  0
170171  1  0  0  0  0
171172  1  0  0  0  0
169173  1  0  0  0  0
173174  2  0  0  0  0
173175  1  0  0  0  0
165176  2  0  0  0  0
176177  1  0  0  0  0
164178  1  0  0  0  0
178179  2  0  0  0  0
179180  1  0  0  0  0
 29  1  1  0  0  0  0
 57 33  1  0  0  0  0
 89 61  1  0  0  0  0
117 93  1  0  0  0  0
145121  1  0  0  0  0
177149  1  0  0  0  0
 28  3  1  0  0  0  0
 56 35  1  0  0  0  0
 88 63  1  0  0  0  0
116 95  1  0  0  0  0
144123  1  0  0  0  0
176151  1  0  0  0  0
 14  5  1  0  0  0  0
 32 15  1  0  0  0  0
 44 37  1  0  0  0  0
 60 45  1  0  0  0  0
 74 65  1  0  0  0  0
 92 75  1  0  0  0  0
104 97  1  0  0  0  0
120105  1  0  0  0  0
132125  1  0  0  0  0
148133  1  0  0  0  0
162153  1  0  0  0  0
180163  1  0  0  0  0
 26 18  1  0  0  0  0
 55 48  1  0  0  0  0
 86 78  1  0  0  0  0
115108  1  0  0  0  0
143136  1  0  0  0  0
174166  1  0  0  0  0
  1181  1  0  0  0  0
  2182  1  0  0  0  0
  6183  1  0  0  0  0
  7184  1  0  0  0  0
 10185  1  0  0  0  0
 10186  1  0  0  0  0
 11187  1  0  0  0  0
 11188  1  0  0  0  0
 11189  1  0  0  0  0
 14190  1  0  0  0  0
 19191  1  0  0  0  0
 20192  1  0  0  0  0
 23193  1  0  0  0  0
 23194  1  0  0  0  0
 24195  1  0  0  0  0
 24196  1  0  0  0  0
 24197  1  0  0  0  0
 26198  1  0  0  0  0
 30199  1  0  0  0  0
 34200  1  0  0  0  0
 38201  1  0  0  0  0
 39202  1  0  0  0  0
 42203  1  0  0  0  0
 42204  1  0  0  0  0
 43205  1  0  0  0  0
 43206  1  0  0  0  0
 43207  1  0  0  0  0
 49208  1  0  0  0  0
 50209  1  0  0  0  0
 53210  1  0  0  0  0
 53211  1  0  0  0  0
 54212  1  0  0  0  0
 54213  1  0  0  0  0
 54214  1  0  0  0  0
 58215  1  0  0  0  0
 62216  1  0  0  0  0
 66217  1  0  0  0  0
 67218  1  0  0  0  0
 70219  1  0  0  0  0
 70220  1  0  0  0  0
 71221  1  0  0  0  0
 71222  1  0  0  0  0
 71223  1  0  0  0  0
 74224  1  0  0  0  0
 79225  1  0  0  0  0
 80226  1  0  0  0  0
 83227  1  0  0  0  0
 83228  1  0  0  0  0
 84229  1  0  0  0  0
 84230  1  0  0  0  0
 84231  1  0  0  0  0
 86232  1  0  0  0  0
 90233  1  0  0  0  0
 94234  1  0  0  0  0
 98235  1  0  0  0  0
 99236  1  0  0  0  0
102237  1  0  0  0  0
102238  1  0  0  0  0
103239  1  0  0  0  0
103240  1  0  0  0  0
103241  1  0  0  0  0
109242  1  0  0  0  0
110243  1  0  0  0  0
113244  1  0  0  0  0
113245  1  0  0  0  0
114246  1  0  0  0  0
114247  1  0  0  0  0
114248  1  0  0  0  0
118249  1  0  0  0  0
122250  1  0  0  0  0
126251  1  0  0  0  0
127252  1  0  0  0  0
130253  1  0  0  0  0
130254  1  0  0  0  0
131255  1  0  0  0  0
131256  1  0  0  0  0
131257  1  0  0  0  0
137258  1  0  0  0  0
138259  1  0  0  0  0
141260  1  0  0  0  0
141261  1  0  0  0  0
142262  1  0  0  0  0
142263  1  0  0  0  0
142264  1  0  0  0  0
146265  1  0  0  0  0
150266  1  0  0  0  0
154267  1  0  0  0  0
155268  1  0  0  0  0
158269  1  0  0  0  0
158270  1  0  0  0  0
159271  1  0  0  0  0
159272  1  0  0  0  0
159273  1  0  0  0  0
162274  1  0  0  0  0
167275  1  0  0  0  0
168276  1  0  0  0  0
171277  1  0  0  0  0
171278  1  0  0  0  0
172279  1  0  0  0  0
172280  1  0  0  0  0
172281  1  0  0  0  0
174282  1  0  0  0  0
178283  1  0  0  0  0
179284  1  0  0  0  0
M  END
