158

C         -3.07720       -8.39550       14.38900
C         -3.61610       -9.36790       13.61230
C         -3.51180       -8.98520       12.22710
C         -2.90060       -7.76820       12.13800
C         -2.61150       -7.33850       13.53370
S         -1.94770       -5.93440       14.04940
C         -2.61080       -7.04450       10.95320
C         -1.92900       -5.86570       10.80170
C         -1.84990       -5.41230        9.46890
C         -1.22000       -4.23990        8.98380
C         -0.67270       -3.25390        9.88020
C         -1.15760       -2.87980       11.10750
C         -0.41570       -1.90890       11.79930
C          0.70320       -1.46160       11.15030
S          1.73630       -0.20540       11.78410
C          3.15950       -0.27010       10.64140
C          4.06140       -1.45630       10.91540
Se         0.88940       -2.28080        9.46310
C         -1.19590       -4.09150        7.59960
C         -1.79880       -5.00090        6.69930
C         -2.44110       -6.16290        7.18550
C         -3.03200       -7.12680        6.28270
C         -2.51930       -7.55710        5.08890
C         -3.29650       -8.49360        4.37920
C         -4.47290       -8.83030        4.98330
S         -5.70590       -9.95070        4.44910
C         -5.49620       -9.93060        2.63170
C         -5.82200       -8.57780        2.03200
Se        -4.70420       -7.94500        6.62170
C         -2.45790       -6.31980        8.56500
S         -3.15910       -7.67390        9.40510
C         -1.71750       -4.55040        5.36140
C         -1.05550       -3.36590        5.21720
S         -0.50430       -2.73150        6.75350
C         -0.82880       -2.63640        4.01750
C         -0.19180       -1.43870        3.87490
C         -0.18340       -0.94810        2.54730
C          0.40550        0.24280        2.06570
C          1.02930        1.19590        2.95310
C          0.63090        1.56050        4.21110
C          1.44870        2.49200        4.87580
C          2.54220        2.91070        4.16960
S          3.66570        4.10930        4.76650
C          4.97750        4.07160        3.49640
C          5.88300        2.86510        3.63920
Se         2.60200        2.11480        2.46300
C          0.34190        0.44160        0.69020
C         -0.28770       -0.45770       -0.20200
C         -0.87050       -1.65130        0.27490
C         -1.44970       -2.63970       -0.60950
C         -2.54870       -3.41910       -0.37930
C         -2.82980       -4.40100       -1.35070
C         -1.94720       -4.45900       -2.38780
S         -2.10170       -5.52790       -3.76380
C         -0.33850       -5.87640       -4.10930
C          0.30250       -6.69580       -3.00890
Se        -0.62060       -3.12580       -2.23700
C         -0.81490       -1.84670        1.65150
S         -1.43740       -3.24280        2.49140
C         -0.27880        0.02650       -1.52850
C          0.34950        1.23170       -1.67450
S          0.96270        1.83630       -0.15350
C          0.50520        1.95300       -2.89150
C         -0.06800        1.62930       -4.09130
C          0.27920        2.49390       -5.14850
C         -0.17600        2.43520       -6.49070
C         -0.97580        1.33920       -6.98300
C         -1.93860        1.37150       -7.95720
C         -2.51740        0.13910       -8.30680
C         -2.02760       -0.94790       -7.63650
S         -2.65610       -2.56650       -7.82590
C         -1.50800       -3.54970       -6.80170
C         -0.18240       -3.78800       -7.49640
Se        -0.69900       -0.44180       -6.40950
C          0.21810        3.48670       -7.30880
C          1.05610        4.54500       -6.87150
C          1.53000        4.59140       -5.53470
C          2.33950        5.66920       -5.02670
C          3.31110        5.59290       -4.06030
C          3.87690        6.80840       -3.64590
C          3.36150        7.92400       -4.25020
S          3.88970        9.54910       -3.91010
C          2.77700       10.49840       -5.01190
C          3.04640       11.98220       -4.87620
Se         2.04390        7.47210       -5.51110
C          1.12610        3.54090       -4.71340
S          1.49950        3.38050       -3.01410
C          1.36180        5.42990       -7.91900
C          0.77270        5.11090       -9.12440
S         -0.18580        3.65830       -9.00120
C          0.88800        5.83890      -10.32980
C          1.58490        7.02790      -10.53730
C          1.43050        7.44810      -11.86420
C          0.61500        6.55250      -12.55200
C          0.24870        5.50060      -11.58450
S         -0.75230        4.22390      -11.81780
C          0.20970        6.60370      -13.89180
C         -0.28990        5.59390      -14.69110
C         -0.56720        6.11330      -15.98350
C         -0.24370        7.44490      -16.02930
C          0.23770        7.83110      -14.74950
S          0.60630        9.36350      -14.28800
H         -2.99980       -8.36850       15.45870
H         -4.05780      -10.28810       13.94990
H         -3.85980       -9.57670       11.40020
H         -1.46700       -5.36390       11.63040
H         -2.08000       -3.26900       11.50280
H         -0.70080       -1.54010       12.76920
H          3.68410        0.67170       10.79880
H          2.75560       -0.29240        9.62410
H          4.90650       -1.44270       10.23060
H          3.51890       -2.39160       10.77550
H          4.43490       -1.42160       11.93610
H         -1.54940       -7.24870        4.73540
H         -2.96710       -8.91180        3.44360
H         -4.48010      -10.24950        2.40380
H         -6.19150      -10.69380        2.28320
H         -6.84380       -8.29430        2.27310
H         -5.15110       -7.81280        2.41750
H         -5.71710       -8.61940        0.94970
H         -2.16340       -5.06110        4.52740
H          0.28020       -0.94400        4.70380
H         -0.28220        1.19690        4.65160
H          1.23240        2.85640        5.86510
H          4.48230        4.09560        2.52050
H          5.52910        4.99990        3.64130
H          5.31630        1.94210        3.51350
H          6.66140        2.89680        2.87990
H          6.34950        2.85480        4.62140
H         -3.17910       -3.28130        0.48250
H         -3.66980       -5.06980       -1.27680
H          0.16120       -4.91130       -4.23780
H         -0.34030       -6.41260       -5.05750
H          0.28050       -6.15180       -2.06520
H         -0.22690       -7.63690       -2.87880
H          1.33940       -6.90770       -3.26120
H         -0.74670       -0.48110       -2.35370
H         -0.77010        0.81980       -4.18190
H         -2.27310        2.29160       -8.40420
H         -3.29450        0.05090       -9.04590
H         -2.03620       -4.48450       -6.61590
H         -1.38260       -3.01830       -5.85170
H          0.32050       -2.84300       -7.70220
H         -0.33750       -4.30850       -8.43840
H          0.46720       -4.39050       -6.86490
H          3.65860        4.65110       -3.67110
H          4.65490        6.86850       -2.90490
H          1.75100       10.25180       -4.72530
H          2.96260       10.15130       -6.03290
H          2.38210       12.53810       -5.53390
H          4.07530       12.20900       -5.14550
H          2.87720       12.30730       -3.85230
H          2.03510        6.26480       -7.82640
H          2.16880        7.54540       -9.79790
H          1.90090        8.31370      -12.28930
H         -0.40460        4.56570      -14.40770
H         -0.96050        5.53160      -16.79830
H         -0.35480        8.11830      -16.85740
