226

C          2.96820      -10.64200        4.53420
C          3.17020       -9.35420        4.87150
C          1.97780       -8.68700        5.28190
C          1.81240       -7.33800        5.64220
C          2.88280       -6.36360        5.61920
C          2.78630       -5.07810        5.16550
C          3.94550       -4.28780        5.27890
C          5.01560       -4.91100        5.85160
S          6.59380       -4.17570        6.01700
C          7.34040       -5.21000        7.32470
C          6.72260       -4.95080        8.68320
Se         4.61100       -6.69990        6.28380
C          0.51830       -6.95160        5.98810
C         -0.60520       -7.80200        5.90240
C         -0.44910       -9.13230        5.47200
C         -1.57350      -10.01800        5.25890
C         -1.65930      -11.34920        5.55090
C         -2.85060      -11.99190        5.15910
C         -3.75220      -11.19840        4.51160
S         -5.25370      -11.78700        3.83450
C         -6.22330      -10.24350        3.70700
C         -6.65600       -9.72540        5.06320
Se        -3.10880       -9.43620        4.32890
C          0.85710       -9.54600        5.21900
S          1.32010      -11.14200        4.68510
C         -1.79120       -7.16010        6.35810
C         -1.60360       -5.87950        6.76120
S          0.08290       -5.39810        6.64630
C         -2.55830       -4.99670        7.39410
C         -3.04820       -3.76890        7.02670
C         -3.86710       -3.17500        8.06030
C         -4.10120       -4.06180        9.14200
S         -3.18700       -5.54030        8.92710
C         -4.91450       -3.72430       10.21370
O         -5.24910       -4.46950       11.30130
C         -4.87080       -5.82150       11.38710
C         -5.46180       -2.43110       10.19900
C         -5.14120       -1.50270        9.18530
C         -4.31970       -1.84350        8.11510
O         -3.83980       -1.00830        7.15860
C         -4.45120        0.23500        6.91010
S         -5.91160        0.03500        9.52500
C         -6.63850       -0.59390       10.96210
C         -6.32090       -1.88030       11.19570
C         -2.92800       -3.27100        5.67420
C         -1.94470       -3.51480        4.76420
C         -2.19640       -2.98270        3.47680
C         -1.34870       -3.04450        2.35320
C         -0.21910       -3.94880        2.30460
C          0.98230       -3.78500        1.67270
C          1.79940       -4.93110        1.60350
C          1.26460       -6.05990        2.14880
S          2.04160       -7.63120        2.15650
C          0.88260       -8.56700        1.07770
C         -0.30190       -9.13460        1.82930
Se        -0.40820       -5.71450        2.94270
C         -1.73090       -2.27670        1.25920
C         -2.93190       -1.52610        1.22300
C         -3.81200       -1.51880        2.32520
C         -5.01770       -0.72090        2.35750
C         -6.20050       -1.02560        2.97310
C         -7.20560       -0.04010        2.91050
C         -6.85330        1.10820        2.26400
S         -7.88280        2.50760        2.08130
C         -7.20600        3.22980        0.54190
C         -7.48740        2.36100       -0.66630
Se        -5.07300        1.03660        1.66560
C         -3.41890       -2.27810        3.42590
S         -4.26210       -2.40390        4.93900
C         -3.09440       -0.86450       -0.01770
C         -2.05800       -1.04390       -0.88350
S         -0.83340       -2.11360       -0.22930
C         -1.85710       -0.35130       -2.11140
C         -0.71090       -0.27290       -2.84840
C         -0.77960        0.66700       -3.90490
C          0.24520        1.04970       -4.79850
C          1.62670        0.67890       -4.60270
C          2.61730        0.57050       -5.54110
C          3.92260        0.37550       -5.05220
C          4.02940        0.33650       -3.69120
S          5.52140        0.06990       -2.82740
C          4.86600       -0.23660       -1.14600
C          5.99290       -0.60060       -0.20270
Se         2.36090        0.58780       -2.86420
C         -0.11640        1.97450       -5.77730
C         -1.38010        2.61090       -5.82940
C         -2.37560        2.27830       -4.89300
C         -3.65250        2.95880       -4.82800
C         -4.26650        3.43500       -3.70530
C         -5.53520        4.01690       -3.90030
C         -5.98830        4.00680       -5.18750
S         -7.49210        4.74610       -5.69160
C         -7.78910        3.91310       -7.29020
C         -8.20260        2.46640       -7.11410
Se        -4.72110        3.23770       -6.35390
C         -2.04830        1.29030       -3.96920
S         -3.11300        0.70100       -2.72480
C         -1.39070        3.69410       -6.75160
C         -0.19860        3.89320       -7.36660
S          0.97260        2.65370       -6.95010
C          0.24720        5.02310       -8.13830
C          1.39320        5.72880       -7.86580
C          1.60740        6.79900       -8.79090
C          0.58350        6.86170       -9.74960
S         -0.62600        5.63260       -9.51720
C          0.52860        7.80100      -10.77460
O         -0.55480        7.65030      -11.58750
C         -0.93940        8.63150      -12.51590
C          1.57520        8.73040      -10.82980
C          2.60200        8.68920       -9.83530
C          2.64490        7.75160       -8.81210
O          3.54910        7.63410       -7.80570
C          4.75990        8.34950       -7.81010
S          3.76850        9.97410      -10.10680
C          2.91760       10.50810      -11.50600
C          1.81210        9.78740      -11.76710
C          2.20910        5.39460       -6.70970
C          3.50820        5.01860       -6.65850
C          3.93480        4.60610       -5.36520
C          5.21030        4.17270       -4.96030
C          6.29100        4.01870       -5.90930
C          6.22100        3.47710       -7.16140
C          7.41820        3.47920       -7.90470
C          8.49240        4.03140       -7.26840
S         10.10140        4.07710       -7.95540
C         10.93080        5.29430       -6.87530
C         10.47380        6.71210       -7.15180
Se         8.04100        4.60090       -5.52650
C          5.36560        3.88700       -3.60610
C          4.30580        3.92110       -2.67220
C          3.02270        4.32940       -3.08100
C          1.88990        4.31560       -2.17550
C          1.84150        4.71250       -0.86780
C          0.62850        4.46350       -0.19310
C         -0.32170        3.83980       -0.94610
S         -1.87830        3.23620       -0.40250
C         -1.37330        2.24240        1.05540
C         -0.17020        1.36260        0.78890
Se         0.25340        3.54390       -2.70500
C          2.88890        4.68460       -4.41950
S          1.43240        5.30680       -5.13590
C          4.73300        3.48150       -1.38360
C          6.04560        3.17750       -1.33910
S          6.85180        3.37340       -2.85520
H          3.69080      -11.35820        4.19550
H          4.13350       -8.87860        4.80750
H          1.88530       -4.69310        4.71590
H          3.98790       -3.26520        4.94640
H          7.22190       -6.25400        7.01690
H          8.39850       -4.95090        7.31200
H          7.21140       -5.56680        9.43490
H          6.83520       -3.90450        8.95780
H          5.66060       -5.19490        8.67450
H         -0.88920      -11.86710        6.09710
H         -3.04560      -13.03110        5.35940
H         -7.08110      -10.50590        3.08890
H         -5.60470       -9.51530        3.17280
H         -7.25210      -10.47220        5.58230
H         -5.78720       -9.48700        5.67700
H         -7.24990       -8.82200        4.94160
H         -2.75470       -7.64000        6.40290
H         -5.23540       -6.39970       10.53380
H         -5.33960       -6.19190       12.29820
H         -3.78670       -5.93740       11.46980
H         -5.53100        0.13610        6.77640
H         -4.01010        0.58880        5.97830
H         -4.24180        0.95580        7.70430
H         -7.26150        0.05740       11.54270
H         -6.66400       -2.45280       12.03680
H         -1.01050       -3.97730        5.01810
H          1.29110       -2.83970        1.25930
H          2.76670       -4.93260        1.13100
H          1.49280       -9.36030        0.64790
H          0.57300       -7.88110        0.28940
H         -0.99940       -9.59270        1.13030
H          0.02000       -9.88810        2.54360
H         -0.83050       -8.34670        2.37300
H         -6.38160       -1.98940        3.41780
H         -8.18990       -0.18440        3.32120
H         -7.69100        4.20150        0.45740
H         -6.13180        3.37660        0.69430
H         -7.02040        1.38210       -0.55380
H         -8.55840        2.22130       -0.79430
H         -7.08230        2.82700       -1.56160
H         -3.94780       -0.26460       -0.28640
H          0.14740       -0.88920       -2.63310
H          2.40820        0.56780       -6.59760
H          4.77600        0.25140       -5.69650
H          4.13690       -1.04770       -1.22890
H          4.35640        0.67910       -0.82900
H          6.72590        0.20130       -0.15850
H          6.49370       -1.50420       -0.54180
H          5.59940       -0.77260        0.79670
H         -3.79760        3.39660       -2.73560
H         -6.10980        4.44710       -3.09790
H         -6.86940        4.00450       -7.87680
H         -8.57630        4.49760       -7.76520
H         -8.39270        2.01590       -8.08590
H         -9.10630        2.40070       -6.51270
H         -7.41430        1.89980       -6.61920
H         -2.22130        4.36720       -6.87940
H         -0.28010        8.64060      -13.38950
H         -1.94050        8.34230      -12.83640
H         -0.98160        9.62570      -12.06250
H          4.60480        9.42160       -7.66250
H          5.32270        7.95100       -6.96580
H          5.32700        8.18440       -8.72990
H          3.30520       11.34280      -12.05600
H          1.19080       10.00140      -12.61440
H          4.14760        5.02900       -7.52080
H          5.31230        3.04130       -7.54240
H          7.48810        3.07690       -8.90070
H         11.99300        5.17120       -7.08380
H         10.72910        4.99700       -5.84130
H          9.40640        6.81440       -6.95560
H         11.01040        7.40560       -6.50790
H         10.66340        6.97640       -8.18950
H          2.66350        5.22050       -0.39060
H          0.47020        4.73500        0.83750
H         -1.19730        2.92670        1.88530
H         -2.26150        1.64260        1.26910
H          0.73900        1.95620        0.71530
H         -0.29100        0.81520       -0.14360
H         -0.05400        0.64800        1.60160
H          4.07270        3.39270       -0.53990
H          6.61650        2.83830       -0.49680
