182

C          6.13220       -3.42790        5.37400
S          4.74720       -3.76010        6.33270
C          4.12050       -2.14860        6.09190
C          4.96700       -1.43300        5.27880
C          6.11230       -2.16580        4.87640
C          7.13560       -1.43260        4.07870
S          8.67670       -2.41620        3.91820
C          7.40320       -0.11310        4.80420
C          6.13410        0.74800        4.90970
C          4.82240       -0.03980        4.74510
O          4.54100       -0.07510        3.34960
C          2.94330       -1.65520        6.74520
C          2.21730       -2.27080        7.68570
C          2.40840       -3.64880        8.12430
S          1.55120       -4.88000        7.23780
C          2.22840       -6.15290        8.22000
C          3.04800       -5.61660        9.18090
C          3.14690       -4.19890        9.12840
C          4.08810       -3.56990       10.10280
S          4.45010       -1.79590        9.79610
C          5.39300       -4.36200       10.02200
C          5.19150       -5.80610       10.49310
C          3.76570       -6.34590       10.27810
O          3.07220       -6.16030       11.50790
C          1.85640       -7.53400        8.04910
C          1.32900       -8.09640        6.95090
C          1.18180       -7.40580        5.68780
C          2.14200       -6.72280        5.01260
C          1.66480       -6.02470        3.87340
C          2.41520       -5.20960        2.99610
C          3.85970       -5.21080        2.97900
C          4.70340       -4.23640        2.51300
C          6.07090       -4.56550        2.43930
C          6.37640       -5.83400        2.83650
S          7.92290       -6.63880        2.94600
C          9.01600       -5.57950        1.93890
C          8.68980       -5.66040        0.46090
Se         4.85800       -6.77410        3.39360
C          1.66100       -4.46290        2.09050
C          0.25830       -4.59590        1.95780
C         -0.46640       -5.53390        2.72400
C         -1.86430       -5.79810        2.47300
C         -2.83660       -6.17020        3.36150
C         -4.11490       -6.41600        2.82530
C         -4.21680       -6.26840        1.47040
S         -5.71960       -6.41240        0.58560
C         -5.17750       -6.20430       -1.14740
C         -4.54680       -7.46110       -1.70980
Se        -2.57060       -5.76670        0.71880
C          0.26910       -6.18920        3.71070
S         -0.37360       -7.29290        4.89830
C         -0.26910       -3.69040        1.00660
C          0.67340       -2.92610        0.38760
S          2.28040       -3.27270        0.97180
C          0.40670       -1.91610       -0.58130
C         -0.73440       -1.79960       -1.31850
C         -0.77820       -0.63810       -2.12550
C         -1.82310       -0.20980       -2.97220
C         -3.08480       -0.91220       -3.05690
C         -3.90550       -1.02800       -4.14540
C         -5.13320       -1.68670       -3.93970
C         -5.35800       -2.10590       -2.65990
S         -6.76840       -2.99390       -2.13460
C         -6.61570       -2.80130       -0.31800
C         -7.81750       -3.40160        0.37920
Se        -3.89990       -1.70190       -1.54350
C         -1.58380        0.96790       -3.67920
C         -0.39300        1.72510       -3.55950
C          0.64610        1.29840       -2.70700
C          1.87550        2.04090       -2.54380
C          2.61050        2.70300       -3.48860
C          3.78710        3.32940       -3.03380
C          4.02760        3.20500       -1.69450
S          5.39240        3.91650       -0.86530
C          5.32790        3.04590        0.74320
C          5.78640        1.60520        0.64980
Se         2.67360        2.21110       -0.84520
C          0.40780        0.12160       -2.00530
S          1.52770       -0.61470       -0.89000
C         -0.44710        2.93110       -4.30080
C         -1.61200        3.10740       -4.98550
S         -2.71760        1.76370       -4.73640
C         -2.01950        4.18170       -5.83440
S         -3.71710        4.49640       -6.02500
C         -3.41050        5.80330       -7.14440
C         -2.05450        5.94240       -7.36240
C         -1.26460        5.04450       -6.60780
C          0.22310        5.06630       -6.64700
S          0.85460        5.96000       -5.14360
C          0.82090        5.71240       -7.90750
C         -0.22440        6.01980       -8.97080
C         -1.38160        6.83580       -8.37330
O         -2.22840        7.33570       -9.37590
C         -4.48320        6.57870       -7.66550
C         -5.78320        6.35350       -7.37770
C         -6.86570        7.12670       -7.87820
S         -6.60770        8.46540       -8.95980
C         -8.31830        8.80600       -9.06480
C         -9.03450        7.90630       -8.31670
C         -8.21640        6.97090       -7.63290
C         -8.82560        5.89230       -6.81700
S         -9.30960        4.49600       -7.96270
C        -10.07890        6.33050       -6.04780
C        -10.75140        7.57890       -6.62420
C        -10.51250        7.70770       -8.14020
O        -11.27990        8.73960       -8.70590
C         -8.67070        9.94730       -9.88110
C         -9.62000       10.83720       -9.62260
H          6.88040       -4.18490        5.24740
H          6.76360       -1.24610        3.06660
H          9.33710       -1.49630        3.21640
H          7.77130       -0.35450        5.80430
H          8.18420        0.44770        4.28690
H          6.12200        1.25140        5.87600
H          6.13230        1.50940        4.12840
H          4.01480        0.50220        5.25820
H          3.74560       -0.59750        3.19660
H          2.67370       -0.64170        6.47910
H          1.37100       -1.75050        8.11830
H          3.68220       -3.63500       11.11670
H          3.28580       -1.33470       10.24520
H          5.73120       -4.34760        8.98310
H          6.15690       -3.87740       10.63110
H          5.37430       -5.87460       11.56640
H          5.90400       -6.45260        9.98200
H          3.81670       -7.42180       10.05350
H          2.15290       -6.42540       11.39450
H          1.99330       -8.15470        8.92550
H          0.97860       -9.11880        6.99190
H          3.15370       -6.65930        5.37730
H          4.36790       -3.24660        2.25550
H          6.80630       -3.85690        2.10270
H         10.01280       -5.96980        2.14360
H          8.94970       -4.56510        2.32930
H          7.67600       -5.31650        0.26750
H          9.38200       -5.03700       -0.10170
H          8.77860       -6.68560        0.10850
H         -2.65470       -6.22700        4.42080
H         -4.95800       -6.69130        3.43510
H         -4.48250       -5.35780       -1.17240
H         -6.08260       -5.93630       -1.69230
H         -3.65210       -7.72940       -1.14730
H         -5.24760       -8.29140       -1.66350
H         -4.26410       -7.29630       -2.74730
H         -1.32000       -3.52940        0.83950
H         -1.49250       -2.56400       -1.30950
H         -3.62130       -0.66450       -5.11840
H         -5.85000       -1.84160       -4.72730
H         -6.53190       -1.73060       -0.11850
H         -5.69100       -3.30150       -0.01280
H         -7.88940       -4.46600        0.16930
H         -8.73200       -2.91640        0.04640
H         -7.71940       -3.26950        1.45410
H          2.34800        2.69010       -4.53320
H          4.45580        3.85750       -3.69120
H          5.97240        3.62960        1.39970
H          4.29570        3.11680        1.10100
H          5.62680        1.10790        1.60440
H          6.83970        1.55620        0.38340
H          5.21220        1.06830       -0.10600
H          0.32480        3.67300       -4.24290
H          0.60700        4.05310       -6.50510
H          0.13430        7.06290       -5.33000
H          1.58270        5.05200       -8.32410
H          1.31730        6.64490       -7.63100
H         -0.62820        5.09170       -9.38660
H          0.23360        6.58810       -9.78180
H         -0.98290        7.73250       -7.87930
H         -2.57980        6.59610       -9.88570
H         -4.21230        7.40440       -8.30880
H         -6.03690        5.52970       -6.72150
H         -8.10340        5.44750       -6.13130
H         -8.08220        4.26630       -8.42120
H        -10.78470        5.49700       -6.04900
H         -9.80210        6.52100       -5.00940
H        -11.82490        7.54330       -6.42540
H        -10.35420        8.47910       -6.14970
H        -10.77420        6.74840       -8.62190
H        -12.21110        8.50950       -8.61800
H         -8.01440       10.09280      -10.73180
H        -10.26300       10.75100       -8.76690
H         -9.78950       11.67100      -10.28210
