191

C          2.35730       -9.60470        6.57520
C          3.20110       -9.01710        5.70320
C          2.71340       -7.77500        5.19890
C          3.33710       -6.90380        4.28300
C          4.66890       -7.12980        3.75880
C          5.13040       -6.83560        2.50570
C          6.50030       -7.06640        2.27490
C          7.20080       -7.52850        3.35120
S          8.92900       -7.79190        3.34380
C          9.13380       -8.91000        4.77430
C          8.60770      -10.30220        4.49170
Se         6.08660       -7.72290        4.85630
C          2.61160       -5.76720        3.93400
C          1.35110       -5.44630        4.49180
C          0.71980       -6.32290        5.39380
C         -0.61480       -6.08850        5.90850
C         -1.59040       -7.04010        6.04090
C         -2.83810       -6.59470        6.51880
C         -2.89420       -5.26440        6.81320
S         -4.27040       -4.34050        7.38690
C         -5.05820       -5.51900        8.54290
C         -4.14310       -5.88540        9.69280
Se        -1.25670       -4.40770        6.49390
C          1.43190       -7.47620        5.71620
S          0.90340       -8.70880        6.83180
C          0.85380       -4.22110        3.99060
C          1.66510       -3.62560        3.07490
S          3.12650       -4.54570        2.79490
C          1.37210       -2.42860        2.36360
C          2.02040       -1.85700        1.31270
C          1.38860       -0.68260        0.83330
C          1.80140        0.14560       -0.22750
C          2.95990       -0.14400       -1.04260
C          3.36720       -1.35120       -1.53850
C          4.53600       -1.33450       -2.32410
C          5.11620       -0.10570       -2.46990
S          6.58170        0.17260       -3.38340
C          6.85140        1.96350       -3.14100
C          6.00970        2.80990       -4.07440
Se         4.13440        1.22650       -1.57430
C          0.99580        1.24740       -0.48360
C         -0.19300        1.55470        0.21920
C         -0.55840        0.78010        1.34870
C         -1.64920        1.14330        2.21450
C         -2.19520        2.38980        2.41980
C         -3.23200        2.47190        3.36260
C         -3.56480        1.28500        3.96340
S         -4.83970        1.10010        5.14110
C         -4.54980       -0.61170        5.71200
C         -3.35330       -0.72670        6.63270
Se        -2.48520       -0.11370        3.33810
C          0.23730       -0.34420        1.58310
S         -0.04260       -1.50990        2.84210
C         -0.91510        2.59610       -0.41150
C         -0.28960        3.11220       -1.51140
S          1.26170        2.34980       -1.79930
C         -0.68930        4.10550       -2.44400
S          0.40400        4.44570       -3.75370
C         -0.64150        5.66490       -4.41540
C         -1.79790        5.75130       -3.64940
C         -1.83470        4.87630       -2.54430
S         -3.19480        4.65340       -1.44730
C         -3.81150        6.35610       -1.12060
C         -2.71800        7.35020       -1.39450
O         -1.77910        7.52310       -0.66420
C         -2.86090        8.07400       -2.70980
S         -3.11690        6.85650       -4.05310
C         -0.35870        6.50400       -5.52430
C          0.63500        6.55170       -6.44730
C          1.73650        5.71910       -6.78470
S          2.21650        4.22720       -6.01210
C          3.41630        3.89150       -7.22480
C          3.49440        4.93200       -8.12510
C          2.54360        5.94650       -7.89480
S          2.37740        7.36670       -8.92610
C          1.82890        6.56650      -10.49070
C          3.01520        6.06700      -11.28060
O          3.52570        6.72650      -12.14710
C          3.55500        4.71900      -10.87380
S          4.67750        4.94860       -9.43720
C          4.23410        2.71400       -7.20390
C          3.90050        1.52330       -6.67960
C          2.60460        1.17400       -6.14880
S          2.49370        0.38580       -4.60520
C          0.75950        0.34960       -4.67840
C          0.31360        0.84750       -5.88350
C          1.35910        1.30770       -6.72180
S          1.18560        1.75210       -8.42270
C         -0.01190        3.14690       -8.45930
C         -1.43620        2.75210       -8.15540
O         -2.25950        2.61290       -9.02090
C         -1.73730        2.51720       -6.70020
S         -1.37550        0.74050       -6.38050
C          0.01630       -0.12130       -3.54790
C         -1.16910        0.40180       -3.18620
C         -1.95630        0.02240       -2.06400
C         -3.03530        0.71440       -1.59970
C         -3.67200        0.10810       -0.49330
C         -4.78430        0.59080        0.21370
C         -5.38980        1.87360       -0.08220
C         -5.82640        2.34400       -1.28510
C         -6.41370        3.62600       -1.26700
C         -6.45350        4.22030       -0.04060
S         -7.02770        5.85210        0.23830
C         -7.42670        5.78550        2.01960
C         -8.63980        4.92530        2.30380
Se        -5.66200        3.13440        1.28420
C         -5.29810       -0.25010        1.19280
C         -4.74730       -1.51160        1.51240
C         -3.51790       -1.91500        0.92680
C         -2.80870       -3.07460        1.40550
C         -2.91750       -3.65420        2.64700
C         -2.15790       -4.81220        2.86750
C         -1.36540       -5.19220        1.82050
S         -0.35920       -6.61710        1.84070
C          0.71540       -6.26770        0.40070
C          1.75200       -7.36110        0.25300
Se        -1.53700       -4.00760        0.36590
C         -3.04710       -1.10190       -0.10680
S         -1.64920       -1.41630       -1.10530
C         -5.60110       -2.21790        2.41130
C         -6.68870       -1.50930        2.78320
S         -6.76920        0.06030        2.07110
H          2.48420      -10.53700        7.08950
H          4.13480       -9.46320        5.40540
H          4.48190       -6.49660        1.71630
H          6.96650       -6.89570        1.32020
H          8.62280       -8.44690        5.62450
H         10.20630       -8.92140        4.96530
H          7.53860      -10.27210        4.27990
H          8.76990      -10.94200        5.35650
H          9.11810      -10.73360        3.63380
H         -1.44050       -8.06100        5.73390
H         -3.68000       -7.25790        6.62090
H         -5.37070       -6.39290        7.97270
H         -5.94300       -4.98740        8.89210
H         -4.66320       -6.55040       10.37910
H         -3.83820       -4.99260       10.23440
H         -3.25110       -6.39200        9.32840
H         -0.09550       -3.79100        4.25860
H          2.93200       -2.25640        0.90620
H          2.80000       -2.25430       -1.38290
H          4.94470       -2.21900       -2.78120
H          6.63380        2.17850       -2.09020
H          7.91490        2.11340       -3.32470
H          6.19340        3.86440       -3.88030
H          4.94730        2.61230       -3.92540
H          6.25900        2.59550       -5.11040
H         -1.80930        3.27440        1.94370
H         -3.70630        3.40270        3.63010
H         -4.43120       -1.22740        4.81390
H         -5.46890       -0.89980        6.22050
H         -2.44150       -0.40530        6.12650
H         -3.49370       -0.11450        7.51990
H         -3.22870       -1.76590        6.93490
H         -1.89510        2.90710       -0.10660
H         -4.70200        6.52140       -1.72420
H         -4.06450        6.34540       -0.06060
H         -3.75320        8.70000       -2.71020
H         -1.97610        8.67490       -2.92280
H         -1.11380        7.27480       -5.63630
H          0.56630        7.38580       -7.13770
H          1.33330        7.36500      -11.04180
H          1.12320        5.77920      -10.23190
H          2.78860        4.00040      -10.58940
H          4.19000        4.31860      -11.66280
H          5.20340        2.83130       -7.66890
H          4.65020        0.74510       -6.62590
H          0.33650        3.91670       -7.77370
H          0.04740        3.49130       -9.49240
H         -1.13670        3.11950       -6.02150
H         -2.80140        2.63950       -6.50490
H          0.49110       -0.87210       -2.92980
H         -1.58920        1.21490       -3.76260
H         -3.36240        1.64340       -2.03100
H         -5.78080        1.74850       -2.18180
H         -6.81830        4.09430       -2.14760
H         -6.53520        5.40840        2.53240
H         -7.59460        6.82330        2.30530
H         -8.45840        3.89430        1.99950
H         -8.85460        4.93460        3.37000
H         -9.50710        5.30040        1.76540
H         -3.49950       -3.21930        3.44220
H         -2.19110       -5.36500        3.79140
H          1.17910       -5.29390        0.57950
H          0.06780       -6.20500       -0.47960
H          1.27170       -8.31720        0.05930
H          2.41950       -7.13020       -0.57430
H          2.33750       -7.45150        1.16560
H         -5.44210       -3.23420        2.72000
H         -7.47690       -1.81590        3.44250
