284

C        -14.49800      -18.45240        1.65580
C        -13.27730      -18.59960        1.10410
C        -12.68750      -17.36060        0.71560
C        -11.44570      -17.15580        0.08310
C        -10.61750      -18.25560       -0.36080
C        -11.02340      -19.42210       -0.94790
C        -10.00240      -20.32460       -1.30400
C         -8.73580      -19.91390       -1.00000
S         -7.30850      -20.88830       -1.26530
C         -5.98680      -19.62790       -1.19180
C         -5.98160      -18.72570       -2.40860
Se        -8.74200      -18.22070       -0.17010
C        -11.07300      -15.82980       -0.11160
C        -11.88980      -14.72850        0.23370
C        -13.16560      -14.93180        0.80060
C        -14.06930      -13.83930        1.08410
C        -14.96990      -13.74410        2.11070
C        -15.79260      -12.60320        2.12010
C        -15.60040      -11.73930        1.07840
S        -16.49180      -10.25610        0.85240
C        -15.63890       -9.57080       -0.61620
C        -16.28350       -8.26490       -1.02930
Se       -14.24570      -12.35080       -0.07120
C        -13.51430      -16.26120        1.04580
S        -15.01270      -16.80560        1.75550
C        -11.25340      -13.49740       -0.05760
C        -10.02730      -13.63300       -0.63930
S         -9.57820      -15.31030       -0.84080
C         -9.16970      -12.57970       -1.07530
C         -9.49090      -11.25710       -1.17060
C         -8.43350      -10.45040       -1.65530
C         -8.42980       -9.05700       -1.83350
C         -9.64380       -8.26490       -1.60480
C        -10.85600       -8.63500       -2.18710
C        -11.99580       -7.89240       -1.96890
C        -11.98050       -6.76090       -1.15470
S        -13.51900       -5.92600       -0.90320
C        -13.07900       -4.15020       -0.88480
C        -12.37200       -3.72570       -2.15580
C        -10.76810       -6.41400       -0.56630
F        -10.68150       -5.35530        0.26790
C         -9.61350       -7.13490       -0.79530
C         -7.23070       -8.48630       -2.22920
C         -6.05580       -9.24170       -2.47410
C         -6.06450      -10.63790       -2.30980
C         -4.85410      -11.44310       -2.50990
C         -3.65100      -11.09010       -1.89810
C         -2.51640      -11.84730       -2.08900
C         -2.53210      -12.99150       -2.88700
S         -1.02090      -13.88980       -3.03190
C         -1.09680      -14.61830       -4.71800
C          0.31690      -14.87190       -5.20320
C         -3.74830      -13.35360       -3.45860
C         -4.88820      -12.59410       -3.28960
F         -3.85690      -14.47660       -4.20460
C         -7.26400      -11.20890       -1.91250
S         -7.52690      -12.90190       -1.58370
C         -4.98040       -8.42060       -2.89540
C         -5.29360       -7.09350       -2.95140
S         -6.96260       -6.78840       -2.51840
C         -4.41320       -6.00550       -3.23420
C         -3.05620       -6.05650       -3.37170
C         -2.45370       -4.78440       -3.53150
C         -1.08180       -4.49160       -3.63220
C         -0.08430       -5.56410       -3.72060
C         -0.23360       -6.59670       -4.64650
C          0.71100       -7.59490       -4.74520
C          1.83410       -7.61590       -3.91960
S          2.94860       -8.97630       -4.10550
C          4.60840       -8.22840       -3.91050
C          4.84840       -7.10890       -4.90320
C          1.95490       -6.59410       -2.98360
F          2.99410       -6.56850       -2.11710
C          1.03040       -5.57420       -2.88910
C         -0.73300       -3.15040       -3.63220
C         -1.69210       -2.10750       -3.61250
C         -3.06600       -2.39930       -3.57400
C         -4.04750       -1.30850       -3.57620
C         -5.06030       -1.23270       -2.62240
C         -5.90870       -0.14620       -2.58660
C         -5.79380        0.89500       -3.50470
S         -6.91230        2.25750       -3.35730
C         -5.83950        3.71750       -3.63510
C         -4.66710        3.75790       -2.67540
C         -4.82250        0.77230       -4.49400
C         -3.95040       -0.29550       -4.52670
F         -4.69550        1.70910       -5.45930
C         -3.41120       -3.73900       -3.49620
S         -5.02780       -4.36900       -3.33240
C         -1.08200       -0.83140       -3.54950
C          0.27960       -0.87270       -3.53450
S          0.89340       -2.51130       -3.64000
C          1.15620        0.23040       -3.33040
C          2.50250        0.21420       -3.12070
C          3.04270        1.47830       -2.77590
C          4.35920        1.76920       -2.35900
C          5.39230        0.76450       -2.23460
C          6.72750        0.93000       -2.48350
C          7.55470       -0.17320       -2.20270
C          6.91400       -1.26250       -1.68380
S          7.73760       -2.71790       -1.17500
C          6.34650       -3.87930       -0.94080
C          5.77890       -4.37600       -2.25410
Se         5.06780       -0.94930       -1.51350
C          4.60340        3.09050       -1.99200
C          3.61910        4.10610       -2.04110
C          2.29730        3.81620       -2.43960
C          1.22720        4.78810       -2.37940
C          0.13750        4.87270       -3.20450
C         -0.83930        5.82350       -2.85630
C         -0.58240        6.52420       -1.71090
S         -1.62180        7.76190       -1.04860
C         -0.72320        8.16220        0.49430
C         -1.50810        9.16470        1.31180
Se         1.06470        6.02570       -0.95830
C          2.05450        2.49310       -2.79710
S          0.48840        1.84330       -3.19830
C          4.11330        5.33790       -1.56000
C          5.39030        5.27470       -1.07960
S          6.08800        3.68780       -1.29230
C          6.04710        6.32530       -0.37410
C          5.56420        7.59270       -0.21590
C          6.30150        8.38140        0.69570
C          6.00650        9.68820        1.13890
C          4.80770       10.38890        0.72100
C          4.69390       11.72430        0.44450
C          3.40630       12.17500        0.09190
C          2.44100       11.21540        0.08590
S          0.75890       11.45560       -0.36760
C          0.91810       11.30360       -2.19100
C          1.14990        9.87470       -2.63530
Se         3.12960        9.53790        0.58750
C          6.92040       10.25160        2.02550
C          8.05800        9.55610        2.50320
C          8.30920        8.22270        2.11780
C          9.40790        7.47630        2.68810
C          9.83360        7.49610        3.98830
C         10.95960        6.70550        4.28350
C         11.48540        6.02920        3.21900
S         12.95110        5.08120        3.31340
C         12.82810        4.06020        1.80450
C         11.76440        2.98840        1.92210
Se        10.50230        6.35470        1.64130
C          7.42630        7.68120        1.19260
S          7.50120        6.05890        0.55950
C          8.83800       10.35240        3.37090
C          8.31560       11.59040        3.60840
S          6.82420       11.84630        2.73060
C          8.89000       12.57230        4.47150
C          9.98650       12.37770        5.25900
C         10.35360       13.51370        6.01830
C         11.42900       13.62180        6.91280
C         12.26630       12.44430        7.18220
C         11.67710       11.25560        7.61170
C         12.43320       10.11420        7.77270
C         13.79960       10.11470        7.50880
S         14.69380        8.59640        7.71760
C         15.57560        8.45170        6.11890
C         14.61370        8.29920        4.95730
C         14.38430       11.32100        7.13660
F         15.71240       11.39550        6.91030
C         13.63910       12.47170        6.96670
C         11.62860       14.86370        7.49200
C         10.77340       15.96890        7.25480
C          9.67480       15.84710        6.38920
C          8.74260       16.95890        6.16530
C          8.39790       17.35900        4.87810
C          7.50910       18.39470        4.66470
C          6.92030       19.05990        5.73380
S          5.78470       20.40050        5.60560
C          5.21280       20.33580        3.87260
C          4.34260       19.12430        3.59800
C          7.27930       18.65100        7.01980
C          8.16980       17.62650        7.24650
F          6.73360       19.27680        8.08220
C          9.50590       14.61830        5.76680
S          8.24610       14.19350        4.63200
C         11.21080       17.12490        7.96860
C         12.31030       16.89830        8.71520
S         12.90240       15.27520        8.60950
H        -15.14870      -19.21590        2.03520
H        -12.78560      -19.54850        0.99480
H        -12.05650      -19.61170       -1.18760
H        -10.19770      -21.26280       -1.79380
H         -5.06380      -20.20210       -1.11760
H         -6.13310      -19.06140       -0.26660
H         -5.86010      -19.31230       -3.31620
H         -6.91500      -18.16660       -2.47760
H         -5.16220      -18.01380       -2.33670
H        -15.01770      -14.47360        2.90080
H        -16.52060      -12.41630        2.89010
H        -15.71250      -10.32150       -1.40930
H        -14.58920       -9.42680       -0.34460
H        -17.33340       -8.41680       -1.26780
H        -16.20820       -7.53560       -0.22700
H        -15.77700       -7.86250       -1.90300
H        -11.66040      -12.53490        0.19880
H        -10.45160      -10.86490       -0.89280
H        -10.89480       -9.49440       -2.83880
H        -12.92830       -8.17700       -2.43130
H        -12.48580       -3.94130        0.00260
H        -14.04710       -3.65790       -0.78910
H        -12.20300       -2.65100       -2.13730
H        -11.40770       -4.22160       -2.25040
H        -12.97390       -3.97020       -3.02880
H         -8.70470       -6.82310       -0.30490
H         -3.61350      -10.22460       -1.25420
H         -1.58640      -11.56770       -1.61870
H         -1.60840      -13.89990       -5.35650
H         -1.66980      -15.54300       -4.66930
H          0.88380      -13.94400       -5.22950
H          0.29010      -15.29620       -6.20460
H          0.82780      -15.56890       -4.54280
H         -5.79640      -12.91240       -3.77700
H         -4.01340       -8.80730       -3.15870
H         -2.49300       -6.96970       -3.31370
H         -1.08210       -6.59460       -5.31360
H          0.59860       -8.38400       -5.47230
H          5.27920       -9.06760       -4.09500
H          4.73120       -7.89790       -2.88150
H          5.87500       -6.75880       -4.81890
H          4.18280       -6.26880       -4.71350
H          4.68190       -7.45910       -5.91970
H          1.17480       -4.81380       -2.13790
H         -5.15660       -2.00810       -1.87880
H         -6.67340       -0.07640       -1.82900
H         -5.51770        3.72800       -4.67430
H         -6.51500        4.55570       -3.46430
H         -3.97830        2.93610       -2.86340
H         -5.01310        3.68960       -1.64610
H         -4.12440        4.69320       -2.79730
H         -3.21350       -0.34100       -5.31400
H         -1.62930        0.09020       -3.46530
H          3.07730       -0.69280       -3.20900
H          7.12110        1.83220       -2.92040
H          8.61580       -0.16680       -2.38210
H          5.59060       -3.36350       -0.34070
H          6.76680       -4.69770       -0.35720
H          6.55100       -4.87340       -2.83640
H          4.97390       -5.07930       -2.05910
H          5.38010       -3.54790       -2.84090
H          0.04500        4.27490       -4.09540
H         -1.72690        5.98750       -3.44230
H         -0.58550        7.22250        1.03700
H          0.25620        8.56700        0.21150
H         -2.49240        8.77190        1.55680
H         -0.97410        9.37980        2.23430
H         -1.62660       10.09340        0.75910
H          3.54360        6.25050       -1.55600
H          4.70970        7.95210       -0.76110
H          5.54340       12.38590        0.45050
H          3.19730       13.19980       -0.16460
H         -0.02320       11.69010       -2.57820
H          1.73380       11.96010       -2.49310
H          0.29260        9.25370       -2.38610
H          1.29870        9.84210       -3.71300
H          2.03680        9.45770       -2.15420
H          9.30120        8.03330        4.75550
H         11.37350        6.62800        5.27400
H         12.62910        4.74170        0.97120
H         13.82000        3.62600        1.68380
H         11.74080        2.39110        1.01330
H         11.97420        2.33570        2.76640
H         10.78040        3.43590        2.06390
H          9.77530       10.02480        3.77790
H         10.53190       11.45340        5.29720
H         10.61770       11.23260        7.81880
H         11.97450        9.19240        8.09530
H         16.18780        7.55880        6.24090
H         16.22630        9.31540        6.00080
H         15.17220        8.20020        4.02890
H         13.99700        7.41160        5.08160
H         13.96160        9.16800        4.87700
H         14.13620       13.37640        6.65280
H          8.84760       16.86900        4.02820
H          7.28510       18.68490        3.65120
H          4.64140       21.25740        3.76120
H          6.08000       20.38560        3.21520
H          3.99590       19.14450        2.56660
H          3.47690       19.12820        4.25610
H          4.89330       18.20030        3.76180
H          8.39060       17.33570        8.26160
H         10.72320       18.08030        7.90210
H         12.83700       17.59410        9.33870
