
  xtb     03082208093D
 energy: -311.818540111975 gnorm: 0.000244809277 xtb: 6.4.1 (unknown)
179199  0     0  0            999 V2000
    9.6844  -13.4941   -3.8510 C   0  0  0  0  0  0  0  0  0  0  0  0
    8.6466  -12.9913   -4.5494 C   0  0  0  0  0  0  0  0  0  0  0  0
    8.1345  -11.7792   -3.9985 C   0  0  0  0  0  0  0  0  0  0  0  0
    7.0443  -11.0114   -4.4530 C   0  0  0  0  0  0  0  0  0  0  0  0
    6.1994  -11.4170   -5.5570 C   0  0  0  0  0  0  0  0  0  0  0  0
    5.6366  -10.6105   -6.5060 C   0  0  0  0  0  0  0  0  0  0  0  0
    4.7540  -11.2350   -7.4090 C   0  0  0  0  0  0  0  0  0  0  0  0
    4.5609  -12.5699   -7.2021 C   0  0  0  0  0  0  0  0  0  0  0  0
    3.5935  -13.5854   -8.2463 S   0  0  0  0  0  0  0  0  0  0  0  0
    3.2351  -15.0000   -7.1467 C   0  0  0  0  0  0  0  0  0  0  0  0
    2.2550  -14.6397   -6.0494 C   0  0  0  0  0  0  0  0  0  0  0  0
    5.5977  -13.1946   -5.7581 Se  0  0  0  0  0  2  0  0  0  0  0  0
    6.7823   -9.8402   -3.7456 C   0  0  0  0  0  0  0  0  0  0  0  0
    7.5217   -9.4412   -2.6072 C   0  0  0  0  0  0  0  0  0  0  0  0
    8.5831  -10.2314   -2.1235 C   0  0  0  0  0  0  0  0  0  0  0  0
    9.3117   -9.8899   -0.9200 C   0  0  0  0  0  0  0  0  0  0  0  0
   10.6527  -10.0270   -0.6905 C   0  0  0  0  0  0  0  0  0  0  0  0
   11.1100   -9.6195    0.5785 C   0  0  0  0  0  0  0  0  0  0  0  0
   10.1417   -9.1643    1.4259 C   0  0  0  0  0  0  0  0  0  0  0  0
   10.4292   -8.6410    3.0696 S   0  0  0  0  0  0  0  0  0  0  0  0
    9.0262   -7.4932    3.3222 C   0  0  0  0  0  0  0  0  0  0  0  0
    9.1589   -6.2314    2.4946 C   0  0  0  0  0  0  0  0  0  0  0  0
    8.4386   -9.2584    0.6306 Se  0  0  0  0  0  2  0  0  0  0  0  0
    8.8715  -11.3786   -2.8596 C   0  0  0  0  0  0  0  0  0  0  0  0
   10.1262  -12.5310   -2.4862 S   0  0  0  0  0  0  0  0  0  0  0  0
    7.0362   -8.2254   -2.0689 C   0  0  0  0  0  0  0  0  0  0  0  0
    5.9490   -7.7256   -2.7196 C   0  0  0  0  0  0  0  0  0  0  0  0
    5.4846   -8.7193   -4.0824 S   0  0  0  0  0  0  0  0  0  0  0  0
    5.2133   -6.5638   -2.3469 C   0  0  0  0  0  0  0  0  0  0  0  0
    4.2032   -5.9326   -3.0079 C   0  0  0  0  0  0  0  0  0  0  0  0
    3.6532   -4.8341   -2.2993 C   0  0  0  0  0  0  0  0  0  0  0  0
    2.6275   -3.9553   -2.7104 C   0  0  0  0  0  0  0  0  0  0  0  0
    1.9290   -4.0924   -3.9716 C   0  0  0  0  0  0  0  0  0  0  0  0
    1.4637   -3.0715   -4.7553 C   0  0  0  0  0  0  0  0  0  0  0  0
    0.7076   -3.4420   -5.8849 C   0  0  0  0  0  0  0  0  0  0  0  0
    0.5278   -4.7855   -6.0349 C   0  0  0  0  0  0  0  0  0  0  0  0
   -0.3588   -5.6602   -7.2618 S   0  0  0  0  0  0  0  0  0  0  0  0
   -0.3896   -4.4764   -8.6547 C   0  0  0  0  0  0  0  0  0  0  0  0
    0.9907   -4.2365   -9.2330 C   0  0  0  0  0  0  0  0  0  0  0  0
    1.3845   -5.7621   -4.6852 Se  0  0  0  0  0  2  0  0  0  0  0  0
    2.2909   -2.9450   -1.8108 C   0  0  0  0  0  0  0  0  0  0  0  0
    2.9145   -2.7834   -0.5508 C   0  0  0  0  0  0  0  0  0  0  0  0
    3.9651   -3.6354   -0.1564 C   0  0  0  0  0  0  0  0  0  0  0  0
    4.6635   -3.4756    1.1013 C   0  0  0  0  0  0  0  0  0  0  0  0
    5.0950   -4.4587    1.9468 C   0  0  0  0  0  0  0  0  0  0  0  0
    5.7846   -4.0273    3.0974 C   0  0  0  0  0  0  0  0  0  0  0  0
    5.9563   -2.6766    3.1988 C   0  0  0  0  0  0  0  0  0  0  0  0
    6.8454   -1.9033    4.4924 S   0  0  0  0  0  0  0  0  0  0  0  0
    6.2685   -0.1752    4.3535 C   0  0  0  0  0  0  0  0  0  0  0  0
    4.8422    0.0011    4.8343 C   0  0  0  0  0  0  0  0  0  0  0  0
    5.2072   -1.7797    1.7224 Se  0  0  0  0  0  2  0  0  0  0  0  0
    4.2947   -4.6473   -1.0503 C   0  0  0  0  0  0  0  0  0  0  0  0
    5.5558   -5.8203   -0.7985 S   0  0  0  0  0  0  0  0  0  0  0  0
    2.3017   -1.7663    0.2170 C   0  0  0  0  0  0  0  0  0  0  0  0
    1.2659   -1.1445   -0.4146 C   0  0  0  0  0  0  0  0  0  0  0  0
    1.0012   -1.7849   -2.0219 S   0  0  0  0  0  0  0  0  0  0  0  0
    0.4418   -0.1193    0.1299 C   0  0  0  0  0  0  0  0  0  0  0  0
   -0.6048    0.5382   -0.4450 C   0  0  0  0  0  0  0  0  0  0  0  0
   -1.2398    1.4662    0.4181 C   0  0  0  0  0  0  0  0  0  0  0  0
   -2.3837    2.2536    0.1572 C   0  0  0  0  0  0  0  0  0  0  0  0
   -2.9335    2.3680   -1.1711 C   0  0  0  0  0  0  0  0  0  0  0  0
   -2.2412    2.3763   -2.3545 C   0  0  0  0  0  0  0  0  0  0  0  0
   -3.0112    2.5095   -3.5228 C   0  0  0  0  0  0  0  0  0  0  0  0
   -4.3604    2.6014   -3.3181 C   0  0  0  0  0  0  0  0  0  0  0  0
   -5.5288    2.6954   -4.6137 S   0  0  0  0  0  0  0  0  0  0  0  0
   -7.0252    3.2467   -3.7214 C   0  0  0  0  0  0  0  0  0  0  0  0
   -6.9462    4.7012   -3.3057 C   0  0  0  0  0  0  0  0  0  0  0  0
   -4.7846    2.5319   -1.4830 Se  0  0  0  0  0  2  0  0  0  0  0  0
   -2.9407    2.9017    1.2579 C   0  0  0  0  0  0  0  0  0  0  0  0
   -2.3780    2.8670    2.5570 C   0  0  0  0  0  0  0  0  0  0  0  0
   -1.1755    2.1660    2.7964 C   0  0  0  0  0  0  0  0  0  0  0  0
   -0.5314    2.0925    4.0905 C   0  0  0  0  0  0  0  0  0  0  0  0
    0.8161    2.0359    4.3195 C   0  0  0  0  0  0  0  0  0  0  0  0
    1.2228    1.8469    5.6560 C   0  0  0  0  0  0  0  0  0  0  0  0
    0.2009    1.7208    6.5496 C   0  0  0  0  0  0  0  0  0  0  0  0
    0.2578    1.4676    8.2758 S   0  0  0  0  0  0  0  0  0  0  0  0
    2.0456    1.1816    8.5578 C   0  0  0  0  0  0  0  0  0  0  0  0
    2.2659    0.8050   10.0097 C   0  0  0  0  0  0  0  0  0  0  0  0
   -1.4737    1.8696    5.7232 Se  0  0  0  0  0  2  0  0  0  0  0  0
   -0.6521    1.4749    1.7065 C   0  0  0  0  0  0  0  0  0  0  0  0
    0.7217    0.4043    1.7781 S   0  0  0  0  0  0  0  0  0  0  0  0
   -3.1615    3.5903    3.4838 C   0  0  0  0  0  0  0  0  0  0  0  0
   -4.2905    4.1413    2.9445 C   0  0  0  0  0  0  0  0  0  0  0  0
   -4.4041    3.8461    1.2253 S   0  0  0  0  0  0  0  0  0  0  0  0
   -5.3430    4.8375    3.6238 C   0  0  0  0  0  0  0  0  0  0  0  0
   -6.3899    5.4686    2.9003 C   0  0  0  0  0  0  0  0  0  0  0  0
   -6.5927    5.5749    1.6036 N   0  0  0  0  0  0  0  0  0  0  0  0
   -7.7360    6.2413    1.4585 O   0  0  0  0  0  0  0  0  0  0  0  0
   -8.2928    6.5789    2.6204 N   0  0  0  0  0  0  0  0  0  0  0  0
   -7.4914    6.1239    3.5640 C   0  0  0  0  0  0  0  0  0  0  0  0
   -7.5877    6.1390    4.9824 C   0  0  0  0  0  0  0  0  0  0  0  0
   -6.5567    5.4951    5.6425 C   0  0  0  0  0  0  0  0  0  0  0  0
   -5.4693    4.8891    5.0002 C   0  0  0  0  0  0  0  0  0  0  0  0
   -8.7274    6.6554    5.7041 C   0  0  0  0  0  0  0  0  0  0  0  0
   -9.5474    7.6665    5.3670 C   0  0  0  0  0  0  0  0  0  0  0  0
   -9.3664    8.6498    4.3302 C   0  0  0  0  0  0  0  0  0  0  0  0
  -10.5036    9.2758    3.7565 C   0  0  0  0  0  0  0  0  0  0  0  0
  -11.7937    9.0855    3.9522 N   0  0  0  0  0  0  0  0  0  0  0  0
  -12.4217    9.9378    3.1447 O   0  0  0  0  0  0  0  0  0  0  0  0
  -11.5873   10.6855    2.4236 N   0  0  0  0  0  0  0  0  0  0  0  0
  -10.3699   10.3132    2.7662 C   0  0  0  0  0  0  0  0  0  0  0  0
   -9.0957   10.7845    2.3444 C   0  0  0  0  0  0  0  0  0  0  0  0
   -8.0166   10.1554    2.9416 C   0  0  0  0  0  0  0  0  0  0  0  0
   -8.1483    9.1343    3.8926 C   0  0  0  0  0  0  0  0  0  0  0  0
   -9.0410   11.8656    1.4029 C   0  0  0  0  0  0  0  0  0  0  0  0
   -7.9225   12.4960    0.9878 C   0  0  0  0  0  0  0  0  0  0  0  0
   -7.8798   13.6125    0.0870 C   0  0  0  0  0  0  0  0  0  0  0  0
   -6.6227   14.2148   -0.1988 C   0  0  0  0  0  0  0  0  0  0  0  0
   -5.4131   13.9059    0.2230 N   0  0  0  0  0  0  0  0  0  0  0  0
   -4.5868   14.7862   -0.3368 O   0  0  0  0  0  0  0  0  0  0  0  0
   -5.2143   15.6676   -1.1147 N   0  0  0  0  0  0  0  0  0  0  0  0
   -6.4963   15.3600   -1.0687 C   0  0  0  0  0  0  0  0  0  0  0  0
   -7.6400   15.9358   -1.6866 C   0  0  0  0  0  0  0  0  0  0  0  0
   -8.8378   15.3129   -1.3916 C   0  0  0  0  0  0  0  0  0  0  0  0
   -8.9601   14.2025   -0.5438 C   0  0  0  0  0  0  0  0  0  0  0  0
   -7.5806   17.0876   -2.5576 C   0  0  0  0  0  0  0  0  0  0  0  0
   -6.4686   17.7461   -2.8765 C   0  0  0  0  0  0  0  0  0  0  0  0
   10.2472  -14.3838   -4.0550 H   0  0  0  0  0  0  0  0  0  0  0  0
    8.2689  -13.4506   -5.4471 H   0  0  0  0  0  0  0  0  0  0  0  0
    5.8716   -9.5624   -6.5808 H   0  0  0  0  0  0  0  0  0  0  0  0
    4.2563  -10.7022   -8.2004 H   0  0  0  0  0  0  0  0  0  0  0  0
    4.1917  -15.3444   -6.7405 H   0  0  0  0  0  0  0  0  0  0  0  0
    2.8304  -15.7668   -7.8064 H   0  0  0  0  0  0  0  0  0  0  0  0
    1.3213  -14.2822   -6.4771 H   0  0  0  0  0  0  0  0  0  0  0  0
    2.6642  -13.8584   -5.4094 H   0  0  0  0  0  0  0  0  0  0  0  0
    2.0493  -15.5145   -5.4361 H   0  0  0  0  0  0  0  0  0  0  0  0
   11.3342  -10.3597   -1.4549 H   0  0  0  0  0  0  0  0  0  0  0  0
   12.1491   -9.6424    0.8578 H   0  0  0  0  0  0  0  0  0  0  0  0
    8.1112   -8.0428    3.0798 H   0  0  0  0  0  0  0  0  0  0  0  0
    9.0400   -7.2733    4.3890 H   0  0  0  0  0  0  0  0  0  0  0  0
    9.1658   -6.4690    1.4306 H   0  0  0  0  0  0  0  0  0  0  0  0
    8.3195   -5.5672    2.6896 H   0  0  0  0  0  0  0  0  0  0  0  0
   10.0821   -5.7117    2.7398 H   0  0  0  0  0  0  0  0  0  0  0  0
    7.4822   -7.7035   -1.2394 H   0  0  0  0  0  0  0  0  0  0  0  0
    3.8841   -6.2474   -3.9875 H   0  0  0  0  0  0  0  0  0  0  0  0
    1.6878   -2.0384   -4.5493 H   0  0  0  0  0  0  0  0  0  0  0  0
    0.3001   -2.7079   -6.5581 H   0  0  0  0  0  0  0  0  0  0  0  0
   -0.8587   -3.5571   -8.3067 H   0  0  0  0  0  0  0  0  0  0  0  0
   -1.0449   -4.9521   -9.3840 H   0  0  0  0  0  0  0  0  0  0  0  0
    1.6529   -3.8027   -8.4865 H   0  0  0  0  0  0  0  0  0  0  0  0
    1.4243   -5.1732   -9.5757 H   0  0  0  0  0  0  0  0  0  0  0  0
    0.9230   -3.5532  -10.0772 H   0  0  0  0  0  0  0  0  0  0  0  0
    4.8709   -5.4984    1.7794 H   0  0  0  0  0  0  0  0  0  0  0  0
    6.1350   -4.7061    3.8561 H   0  0  0  0  0  0  0  0  0  0  0  0
    6.3814    0.1206    3.3058 H   0  0  0  0  0  0  0  0  0  0  0  0
    6.9663    0.3978    4.9633 H   0  0  0  0  0  0  0  0  0  0  0  0
    4.1546   -0.5939    4.2328 H   0  0  0  0  0  0  0  0  0  0  0  0
    4.5543    1.0468    4.7480 H   0  0  0  0  0  0  0  0  0  0  0  0
    4.7520   -0.3088    5.8732 H   0  0  0  0  0  0  0  0  0  0  0  0
    2.5769   -1.5189    1.2285 H   0  0  0  0  0  0  0  0  0  0  0  0
   -0.9402    0.3167   -1.4418 H   0  0  0  0  0  0  0  0  0  0  0  0
   -1.1649    2.3513   -2.3877 H   0  0  0  0  0  0  0  0  0  0  0  0
   -2.5773    2.5493   -4.5069 H   0  0  0  0  0  0  0  0  0  0  0  0
   -7.1477    2.5836   -2.8590 H   0  0  0  0  0  0  0  0  0  0  0  0
   -7.8418    3.0769   -4.4226 H   0  0  0  0  0  0  0  0  0  0  0  0
   -6.7965    5.3373   -4.1751 H   0  0  0  0  0  0  0  0  0  0  0  0
   -6.1217    4.8603   -2.6104 H   0  0  0  0  0  0  0  0  0  0  0  0
   -7.8693    4.9927   -2.8099 H   0  0  0  0  0  0  0  0  0  0  0  0
    1.5387    2.1732    3.5330 H   0  0  0  0  0  0  0  0  0  0  0  0
    2.2618    1.8070    5.9312 H   0  0  0  0  0  0  0  0  0  0  0  0
    2.5720    2.1024    8.3052 H   0  0  0  0  0  0  0  0  0  0  0  0
    2.3538    0.3780    7.8889 H   0  0  0  0  0  0  0  0  0  0  0  0
    1.7148   -0.0996   10.2559 H   0  0  0  0  0  0  0  0  0  0  0  0
    3.3245    0.6293   10.1884 H   0  0  0  0  0  0  0  0  0  0  0  0
    1.9286    1.6038   10.6662 H   0  0  0  0  0  0  0  0  0  0  0  0
   -2.8892    3.7138    4.5179 H   0  0  0  0  0  0  0  0  0  0  0  0
   -6.5868    5.4578    6.7221 H   0  0  0  0  0  0  0  0  0  0  0  0
   -4.7199    4.4143    5.6142 H   0  0  0  0  0  0  0  0  0  0  0  0
   -8.9502    6.1122    6.6148 H   0  0  0  0  0  0  0  0  0  0  0  0
  -10.4515    7.8032    5.9466 H   0  0  0  0  0  0  0  0  0  0  0  0
   -7.0173   10.4656    2.6768 H   0  0  0  0  0  0  0  0  0  0  0  0
   -7.2461    8.7339    4.3316 H   0  0  0  0  0  0  0  0  0  0  0  0
  -10.0109   12.1845    1.0477 H   0  0  0  0  0  0  0  0  0  0  0  0
   -6.9525   12.1877    1.3519 H   0  0  0  0  0  0  0  0  0  0  0  0
   -9.7409   15.7062   -1.8367 H   0  0  0  0  0  0  0  0  0  0  0  0
   -9.9485   13.8011   -0.3833 H   0  0  0  0  0  0  0  0  0  0  0  0
   -8.5367   17.4055   -2.9548 H   0  0  0  0  0  0  0  0  0  0  0  0
   -6.4944   18.6006   -3.5307 H   0  0  0  0  0  0  0  0  0  0  0  0
   -5.5101   17.4455   -2.4907 H   0  0  0  0  0  0  0  0  0  0  0  0
  1  2  2  0  0  0  0
  2  3  1  0  0  0  0
  3  4  2  0  0  0  0
  4  5  1  0  0  0  0
  5  6  2  0  0  0  0
  6  7  1  0  0  0  0
  7  8  2  0  0  0  0
  8  9  1  0  0  0  0
  9 10  1  0  0  0  0
 10 11  1  0  0  0  0
  8 12  1  0  0  0  0
  4 13  1  0  0  0  0
 13 14  2  0  0  0  0
 14 15  1  0  0  0  0
 15 16  1  0  0  0  0
 16 17  2  0  0  0  0
 17 18  1  0  0  0  0
 18 19  2  0  0  0  0
 19 20  1  0  0  0  0
 20 21  1  0  0  0  0
 21 22  1  0  0  0  0
 19 23  1  0  0  0  0
 15 24  2  0  0  0  0
 24 25  1  0  0  0  0
 14 26  1  0  0  0  0
 26 27  2  0  0  0  0
 27 28  1  0  0  0  0
 27 29  1  0  0  0  0
 29 30  2  0  0  0  0
 30 31  1  0  0  0  0
 31 32  2  0  0  0  0
 32 33  1  0  0  0  0
 33 34  2  0  0  0  0
 34 35  1  0  0  0  0
 35 36  2  0  0  0  0
 36 37  1  0  0  0  0
 37 38  1  0  0  0  0
 38 39  1  0  0  0  0
 36 40  1  0  0  0  0
 32 41  1  0  0  0  0
 41 42  2  0  0  0  0
 42 43  1  0  0  0  0
 43 44  1  0  0  0  0
 44 45  2  0  0  0  0
 45 46  1  0  0  0  0
 46 47  2  0  0  0  0
 47 48  1  0  0  0  0
 48 49  1  0  0  0  0
 49 50  1  0  0  0  0
 47 51  1  0  0  0  0
 43 52  2  0  0  0  0
 52 53  1  0  0  0  0
 42 54  1  0  0  0  0
 54 55  2  0  0  0  0
 55 56  1  0  0  0  0
 55 57  1  0  0  0  0
 57 58  2  0  0  0  0
 58 59  1  0  0  0  0
 59 60  2  0  0  0  0
 60 61  1  0  0  0  0
 61 62  2  0  0  0  0
 62 63  1  0  0  0  0
 63 64  2  0  0  0  0
 64 65  1  0  0  0  0
 65 66  1  0  0  0  0
 66 67  1  0  0  0  0
 64 68  1  0  0  0  0
 60 69  1  0  0  0  0
 69 70  2  0  0  0  0
 70 71  1  0  0  0  0
 71 72  1  0  0  0  0
 72 73  2  0  0  0  0
 73 74  1  0  0  0  0
 74 75  2  0  0  0  0
 75 76  1  0  0  0  0
 76 77  1  0  0  0  0
 77 78  1  0  0  0  0
 75 79  1  0  0  0  0
 71 80  2  0  0  0  0
 80 81  1  0  0  0  0
 70 82  1  0  0  0  0
 82 83  2  0  0  0  0
 83 84  1  0  0  0  0
 83 85  1  0  0  0  0
 85 86  1  0  0  0  0
 86 87  2  0  0  0  0
 87 88  1  0  0  0  0
 88 89  1  0  0  0  0
 89 90  2  0  0  0  0
 90 91  1  0  0  0  0
 91 92  2  0  0  0  0
 92 93  1  0  0  0  0
 91 94  1  0  0  0  0
 94 95  2  0  0  0  0
 95 96  1  0  0  0  0
 96 97  1  0  0  0  0
 97 98  2  0  0  0  0
 98 99  1  0  0  0  0
 99100  1  0  0  0  0
100101  2  0  0  0  0
101102  1  0  0  0  0
102103  2  0  0  0  0
103104  1  0  0  0  0
102105  1  0  0  0  0
105106  2  0  0  0  0
106107  1  0  0  0  0
107108  1  0  0  0  0
108109  2  0  0  0  0
109110  1  0  0  0  0
110111  1  0  0  0  0
111112  2  0  0  0  0
112113  1  0  0  0  0
113114  2  0  0  0  0
114115  1  0  0  0  0
113116  1  0  0  0  0
116117  2  0  0  0  0
 25  1  1  0  0  0  0
 53 29  1  0  0  0  0
 81 57  1  0  0  0  0
 93 85  2  0  0  0  0
104 96  2  0  0  0  0
115107  2  0  0  0  0
 24  3  1  0  0  0  0
 52 31  1  0  0  0  0
 80 59  1  0  0  0  0
 90 86  1  0  0  0  0
101 97  1  0  0  0  0
112108  1  0  0  0  0
 12  5  1  0  0  0  0
 28 13  1  0  0  0  0
 40 33  1  0  0  0  0
 56 41  1  0  0  0  0
 68 61  1  0  0  0  0
 84 69  1  0  0  0  0
 23 16  1  0  0  0  0
 51 44  1  0  0  0  0
 79 72  1  0  0  0  0
  1118  1  0  0  0  0
  2119  1  0  0  0  0
  6120  1  0  0  0  0
  7121  1  0  0  0  0
 10122  1  0  0  0  0
 10123  1  0  0  0  0
 11124  1  0  0  0  0
 11125  1  0  0  0  0
 11126  1  0  0  0  0
 17127  1  0  0  0  0
 18128  1  0  0  0  0
 21129  1  0  0  0  0
 21130  1  0  0  0  0
 22131  1  0  0  0  0
 22132  1  0  0  0  0
 22133  1  0  0  0  0
 26134  1  0  0  0  0
 30135  1  0  0  0  0
 34136  1  0  0  0  0
 35137  1  0  0  0  0
 38138  1  0  0  0  0
 38139  1  0  0  0  0
 39140  1  0  0  0  0
 39141  1  0  0  0  0
 39142  1  0  0  0  0
 45143  1  0  0  0  0
 46144  1  0  0  0  0
 49145  1  0  0  0  0
 49146  1  0  0  0  0
 50147  1  0  0  0  0
 50148  1  0  0  0  0
 50149  1  0  0  0  0
 54150  1  0  0  0  0
 58151  1  0  0  0  0
 62152  1  0  0  0  0
 63153  1  0  0  0  0
 66154  1  0  0  0  0
 66155  1  0  0  0  0
 67156  1  0  0  0  0
 67157  1  0  0  0  0
 67158  1  0  0  0  0
 73159  1  0  0  0  0
 74160  1  0  0  0  0
 77161  1  0  0  0  0
 77162  1  0  0  0  0
 78163  1  0  0  0  0
 78164  1  0  0  0  0
 78165  1  0  0  0  0
 82166  1  0  0  0  0
 92167  1  0  0  0  0
 93168  1  0  0  0  0
 94169  1  0  0  0  0
 95170  1  0  0  0  0
103171  1  0  0  0  0
104172  1  0  0  0  0
105173  1  0  0  0  0
106174  1  0  0  0  0
114175  1  0  0  0  0
115176  1  0  0  0  0
116177  1  0  0  0  0
117178  1  0  0  0  0
117179  1  0  0  0  0
M  END
