161

C          3.96290        2.43740        8.08790
S          2.38580        1.80940        8.21730
C          1.75370        3.28710        8.87080
C          2.77990        4.22940        8.99470
C          4.04210        3.74140        8.52710
C          5.17370        4.58690        8.56610
C          5.07120        5.85970        9.04720
C          6.27420        6.75150        9.08870
C          3.81210        6.34980        9.51260
C          3.71450        7.74960       10.03660
C          2.70270        5.55110        9.47750
C          0.42050        3.43380        9.35470
C         -0.70710        2.77180        9.01250
C         -0.93860        1.88880        7.90980
C         -1.91840        0.93880        7.83700
C         -1.96640        0.24100        6.60570
C         -2.82510       -0.81370        6.22690
C         -3.91600       -1.26920        7.06270
C         -4.34520       -2.55310        7.24500
C         -5.48530       -2.71820        8.05690
C         -6.02700       -1.56220        8.53760
S         -7.50260       -1.49750        9.47670
C         -7.32910        0.11850       10.31130
C         -6.25970        0.09600       11.38410
Se        -5.05900       -0.05620        7.94860
C         -2.58050       -1.38630        4.98390
C         -1.55590       -0.95230        4.10640
C         -0.73790        0.14610        4.45860
C          0.30000        0.63030        3.57560
C          0.26680        0.69600        2.21050
C          1.45520        1.10920        1.57170
C          2.48550        1.39150        2.41880
S          4.10910        1.91690        2.04030
C          4.09340        1.90470        0.20600
C          5.46420        2.29820       -0.30810
Se         2.00210        1.17310        4.21990
C         -0.96930        0.69700        5.71270
S         -0.07090        2.02220        6.39110
C         -1.49400       -1.74200        2.94260
C         -2.45240       -2.72290        2.86370
S         -3.47710       -2.71460        4.28820
C         -2.60450       -3.61860        1.78330
S         -1.56170       -3.39720        0.40820
C         -2.24530       -4.74220       -0.45880
C         -3.25930       -5.34220        0.31230
C         -3.46590       -4.70560        1.57180
C         -4.45800       -5.20740        2.43280
C         -5.21590       -6.29130        2.07490
C         -6.26920       -6.80740        3.00520
C         -5.00510       -6.92810        0.82140
C         -5.83400       -8.11490        0.43950
C         -4.04440       -6.45300       -0.03370
C         -1.78810       -5.07480       -1.73960
C         -0.80000       -4.36840       -2.37220
C         -0.29330       -4.57730       -3.65430
S         -0.83720       -5.84330       -4.71750
C          0.14850       -5.28740       -6.04670
C          0.96730       -4.22460       -5.62130
C          0.68450       -3.78920       -4.30030
C          1.33000       -2.64770       -3.80030
C          2.23730       -1.95950       -4.56630
C          2.85350       -0.69620       -4.05140
C          2.59520       -2.45220       -5.84800
C          3.61760       -1.73120       -6.66960
C          1.98330       -3.57430       -6.34560
C          0.01610       -5.90830       -7.30970
C          0.17770       -5.35100       -8.55170
C          0.24890       -3.98350       -8.88240
S         -0.32500       -2.74760       -7.81000
C          0.26530       -1.45280       -8.80710
C          0.77010       -1.97080      -10.01660
C          0.75420       -3.39480      -10.06110
C          1.27830       -4.04680      -11.18840
C          1.78620       -3.33040      -12.24280
C          2.32980       -4.04250      -13.44300
C          1.80100       -1.91100      -12.19720
C          2.36050       -1.13360      -13.34850
C          1.30370       -1.25560      -11.09900
C          0.29950       -0.14680       -8.30000
C          0.00850        0.12680       -6.99080
C          0.05900        1.36800       -6.34920
S          0.44310        2.85230       -7.16840
C          0.26870        3.80360       -5.72700
C         -0.07740        2.99170       -4.63960
C         -0.18940        1.61390       -4.98420
C         -0.51950        0.67780       -3.99040
C         -0.75620        1.07750       -2.70080
C         -1.10900        0.06370       -1.65580
C         -0.67000        2.45670       -2.35780
C         -0.97430        2.89880       -0.95930
C         -0.32870        3.38100       -3.30870
C          0.46440        5.21540       -5.73500
C          0.79280        5.94330       -6.80620
H          4.74740        1.82350        7.69230
H          6.11860        4.20580        8.20680
H          6.48350        7.06990       10.10940
H          6.11170        7.64610        8.48840
H          7.14770        6.23170        8.70340
H          4.37890        7.88880       10.88890
H          4.00340        8.46850        9.27060
H          2.69790        7.97140       10.35160
H          1.75240        5.93370        9.82050
H          0.32830        4.16650       10.14860
H         -1.58560        2.94040        9.62420
H         -2.54660        0.70700        8.68140
H         -3.81360       -3.39770        6.84060
H         -5.89930       -3.68370        8.29110
H         -7.11120        0.86090        9.53710
H         -8.31300        0.31990       10.73340
H         -5.28580       -0.12650       10.94800
H         -6.20530        1.06610       11.87350
H         -6.48630       -0.66260       12.12980
H         -0.63080        0.49100        1.65110
H          1.53170        1.18730        0.50060
H          3.33260        2.61270       -0.12330
H          3.82930        0.89600       -0.11200
H          5.46280        2.29920       -1.39600
H          6.21760        1.59610        0.04130
H          5.73070        3.29230        0.04270
H         -0.74040       -1.62930        2.18540
H         -4.62240       -4.72880        3.38570
H         -6.30750       -6.20640        3.91000
H         -6.06450       -7.84090        3.28300
H         -7.24890       -6.78020        2.52930
H         -5.54160       -8.48850       -0.53860
H         -5.71480       -8.91730        1.16690
H         -6.89080       -7.85150        0.40770
H         -3.88430       -6.93500       -0.98680
H         -2.24930       -5.91370       -2.24150
H         -0.36370       -3.53890       -1.82940
H          1.09750       -2.29580       -2.80620
H          2.46910       -0.45670       -3.06300
H          2.62330        0.13450       -4.71820
H          3.93770       -0.78690       -3.99310
H          3.77910       -2.24280       -7.61530
H          3.28280       -0.71590       -6.88150
H          4.56790       -1.66610       -6.14080
H          2.27290       -3.96310       -7.31050
H         -0.27760       -6.95140       -7.27880
H          0.21000       -6.03380       -9.39220
H          1.27320       -5.12640      -11.22480
H          1.79500       -3.74220      -14.34340
H          3.38290       -3.80300      -13.58820
H          2.23390       -5.11910      -13.32710
H          1.80160       -1.34100      -14.26050
H          2.31200       -0.06600      -13.14970
H          3.40020       -1.40550      -13.52840
H          1.31440       -0.17610      -11.06320
H          0.62090        0.65000       -8.95690
H         -0.27090       -0.70710       -6.35950
H         -0.58860       -0.36870       -4.24810
H         -2.05070        0.31700       -1.17070
H         -1.20740       -0.92470       -2.09800
H         -0.34160        0.02030       -0.88270
H         -2.00620        2.66000       -0.70220
H         -0.33260        2.39830       -0.23680
H         -0.83610        3.97220       -0.85660
H         -0.26140        4.42520       -3.04080
H          0.32610        5.70410       -4.77940
H          0.93710        5.48800       -7.77180
H          0.92430        7.00850       -6.74540
