284

C         -4.75350       -1.98090        7.82730
C         -4.60420       -1.13210        6.79080
C         -5.10870       -1.65520        5.56370
C         -5.11820       -1.05060        4.29780
C         -4.52850        0.27220        4.04760
C         -3.59340        0.43970        3.02400
C         -3.00820        1.66500        2.79620
C         -3.33510        2.78370        3.56550
S         -2.52170        4.28640        3.14430
C         -2.53830        5.28100        4.68860
C         -1.41080        6.29230        4.62420
C         -4.29690        2.61050        4.55730
F         -4.72060        3.65090        5.31110
C         -4.87490        1.38150        4.81010
C         -5.68040       -1.78870        3.26760
C         -6.20620       -3.09260        3.43360
C         -6.18590       -3.70060        4.69810
C         -6.73140       -5.04940        4.88770
C         -8.00570       -5.37020        4.42670
C         -8.51020       -6.64940        4.55060
C         -7.75160       -7.66030        5.12990
S         -8.26800       -9.33460        5.31840
C         -9.61830       -9.51480        4.10100
C         -9.12660       -9.41400        2.66920
C         -6.49130       -7.31580        5.62150
C         -5.97980       -6.04210        5.51200
F         -5.73680       -8.26450        6.20950
C         -5.63080       -2.96100        5.73320
S         -5.50590       -3.47770        7.39550
C         -6.67250       -3.63550        2.20640
C         -6.57130       -2.77400        1.15880
S         -5.86280       -1.23690        1.62470
C         -6.90060       -2.97930       -0.21230
C         -6.95900       -2.01990       -1.17580
C         -7.19510       -2.52750       -2.47470
C         -7.21840       -1.80330       -3.68070
C         -7.12410       -0.35720       -3.70650
C         -6.32920        0.40940       -4.51120
C         -6.43370        1.80390       -4.33890
C         -7.33110        2.20630       -3.39130
S         -7.54660        3.87130       -2.90340
C         -9.18330        3.80070       -2.09600
C        -10.30680        3.62610       -3.09680
Se        -8.16300        0.72910       -2.56660
C         -7.23930       -2.56360       -4.84230
C         -7.22350       -3.98110       -4.86760
C         -7.28000       -4.69980       -3.65330
C         -7.26240       -6.14650       -3.60020
C         -6.50240       -7.01660       -4.32950
C         -6.68660       -8.38540       -4.05240
C         -7.60650       -8.66250       -3.08160
S         -7.94430      -10.28350       -2.51620
C         -9.33280      -10.00950       -1.36200
C        -10.64860       -9.79520       -2.08260
Se        -8.35920       -7.08220       -2.38380
C         -7.27840       -3.93800       -2.48660
S         -7.17070       -4.58300       -0.86470
C         -7.04470       -4.47690       -6.18750
C         -6.91030       -3.50010       -7.12950
S         -7.15760       -1.89630       -6.44530
C         -6.22350       -3.51990       -8.38310
C         -5.99620       -2.41420       -9.15120
C         -4.73810       -2.41960       -9.79760
C         -4.08250       -1.24550      -10.25000
C         -4.81670       -0.11010      -10.71140
C         -6.07070       -0.13100      -11.28060
C         -6.59260        1.10620      -11.67930
C         -5.77240        2.18000      -11.44800
S         -6.18930        3.82450      -11.84900
C         -4.67010        4.68450      -11.29820
C         -4.78140        6.17140      -11.56220
Se        -4.14940        1.65290      -10.65290
C         -2.70940       -1.26340      -10.00340
C         -1.98620       -2.43960       -9.71070
C         -2.62900       -3.70800       -9.71770
C         -1.92540       -4.95360       -9.75040
C         -2.47200       -6.21460       -9.83330
C         -1.57390       -7.28340       -9.96360
C         -0.25170       -6.93240      -10.02170
S          1.04600       -8.07850      -10.23580
C          2.52510       -7.02660      -10.01660
C          2.79840       -6.70620       -8.56140
Se        -0.04490       -5.07300       -9.89580
C         -4.02210       -3.61360       -9.57100
S         -5.02230       -4.76710       -8.70520
C         -0.72230       -2.13650       -9.13870
C         -0.51080       -0.80400       -8.94830
S         -1.76590        0.16740       -9.68640
C          0.33240       -0.25450       -7.91940
C          1.62220       -0.51640       -7.59020
C          1.98100       -0.05500       -6.29120
C          3.22060       -0.16720       -5.64010
C          4.36510       -0.83660       -6.27210
C          5.61310       -0.22180       -6.34150
C          6.68440       -0.87190       -6.91650
C          6.55640       -2.15450       -7.44520
S          7.98550       -2.87390       -8.20220
C          7.95590       -4.61110       -7.62220
C          7.96460       -4.70420       -6.10980
C          5.30020       -2.74850       -7.38380
F          5.08820       -3.98210       -7.90130
C          4.22250       -2.11680       -6.79840
C          3.29560        0.33760       -4.34950
C          2.17630        0.87810       -3.67090
C          0.93910        1.00790       -4.32140
C         -0.22680        1.51590       -3.58500
C         -1.40410        0.77790       -3.50480
C         -2.45240        1.18160       -2.69780
C         -2.36310        2.34800       -1.94530
S         -3.57510        2.95070       -0.82400
C         -4.84510        1.63530       -0.78430
C         -5.94410        2.07920        0.16160
C         -1.19740        3.10810       -2.08070
C         -0.14490        2.71220       -2.87240
F         -1.08610        4.26200       -1.39260
C          0.88620        0.55750       -5.63040
S         -0.51780        0.62620       -6.65400
C          2.46900        1.16750       -2.31650
C          3.75950        0.91320       -1.96570
S          4.69770        0.27980       -3.30530
C          4.32050        1.12220       -0.67070
C          5.62440        1.16020       -0.28160
C          5.79500        1.44640        1.09910
C          6.99650        1.58140        1.81360
C          8.30680        1.35320        1.19340
C          8.57460        0.18680        0.47810
C          9.83210       -0.04710       -0.03490
C         10.86710        0.87320        0.12670
S         12.42910        0.46320       -0.59150
C         13.66420        1.11880        0.59110
C         13.47390        0.56310        1.98800
C         10.57120        2.05330        0.80200
F         11.50330        3.02080        0.95260
C          9.32470        2.28910        1.34380
C          6.88900        1.92940        3.15220
C          5.64630        2.09610        3.81100
C          4.44110        1.91850        3.11010
C          3.15050        1.99450        3.80500
C          2.07180        2.71970        3.30120
C          0.87200        2.76280        3.98050
C          0.70400        2.10640        5.19820
S         -0.84900        2.30090        6.02520
C         -1.17580        0.68130        6.80640
C         -1.22300       -0.44130        5.79110
C          1.79280        1.40190        5.69940
C          2.98560        1.32080        5.01280
F          1.72560        0.76700        6.89380
C          4.55270        1.63310        1.75810
S          3.21770        1.42000        0.66140
C          5.81390        2.46790        5.16640
C          7.11890        2.53970        5.55750
S          8.22270        2.16870        4.25290
C          7.58660        2.90320        6.85470
C          6.82210        3.04560        7.97460
C          7.53820        3.49780        9.10870
C          7.03750        3.77220       10.39930
C          5.63660        3.65170       10.73750
C          5.10610        3.29600       11.94870
C          3.70170        3.28700       12.04100
C          3.03970        3.65400       10.90430
S          1.29740        3.72520       10.76920
C          1.02880        3.47170        8.97550
C          1.08550        4.76000        8.18020
Se         4.24770        4.10490        9.53910
C          7.98080        4.21090       11.33140
C          9.35670        4.36570       11.04200
C          9.85870        4.04890        9.76380
C         11.26880        4.11780        9.45080
C         12.31820        3.75600       10.25040
C         13.60230        3.89110        9.68820
C         13.62670        4.38210        8.41370
S         15.09710        4.70970        7.52560
C         14.47150        4.84770        5.81360
C         14.07930        3.50590        5.22930
Se        11.88720        4.74080        7.78260
C          8.91430        3.65420        8.82170
S          9.26840        3.26420        7.15990
C         10.06700        4.92860       12.14310
C          9.28010        5.17270       13.20970
S          7.62920        4.72790       12.96090
H         -4.46350       -1.83070        8.84900
H         -4.15590       -0.16000        6.87510
H         -3.30040       -0.40920        2.42480
H         -2.27520        1.78470        2.01360
H         -2.39570        4.59250        5.51900
H         -3.50630        5.77300        4.76930
H         -0.44900        5.78830        4.55810
H         -1.52330        6.93790        3.75600
H         -1.42060        6.90770        5.52100
H         -5.62370        1.31240        5.58430
H         -8.61980       -4.60130        3.98240
H         -9.50680       -6.85290        4.19320
H        -10.39550       -8.78540        4.32580
H        -10.01000      -10.51100        4.30660
H         -9.95710       -9.56990        1.98270
H         -8.69190       -8.43610        2.47240
H         -8.36890      -10.17030        2.47830
H         -4.98860       -5.84140        5.88640
H         -7.05740       -4.63380        2.10020
H         -6.78530       -0.98010       -0.95490
H         -5.63920       -0.02150       -5.21680
H         -5.84820        2.50580       -4.90700
H         -9.15180        2.97980       -1.37160
H         -9.26980        4.74580       -1.56110
H        -10.30720        4.44420       -3.81350
H        -10.19440        2.68900       -3.64170
H        -11.26400        3.61090       -2.58000
H         -5.76260       -6.68080       -5.03640
H         -6.13660       -9.16050       -4.55750
H         -9.06590       -9.15150       -0.73690
H         -9.36010      -10.90820       -0.74650
H        -11.45060       -9.66530       -1.35900
H        -10.87910      -10.65060       -2.71300
H        -10.60200       -8.90410       -2.70900
H         -6.96130       -5.51960       -6.43160
H         -6.61500       -1.53570       -9.09210
H         -6.60320       -1.05260      -11.44590
H         -7.55950        1.21380      -12.13990
H         -3.83390        4.24250      -11.84860
H         -4.55140        4.47580      -10.23080
H         -5.62980        6.59050      -11.02620
H         -3.87530        6.67290      -11.22980
H         -4.91650        6.36020      -12.62460
H         -3.53440       -6.38480       -9.81440
H         -1.89480       -8.30900      -10.02520
H          3.34000       -7.60210      -10.45450
H          2.36840       -6.12020      -10.60960
H          1.95460       -6.17560       -8.11870
H          2.96730       -7.61920       -7.99540
H          3.67920       -6.07330       -8.48420
H         -0.06990       -2.86900       -8.69010
H          2.30260       -1.01710       -8.25460
H          5.74070        0.77500       -5.94870
H          7.64980       -0.39340       -6.96790
H          8.86740       -5.03080       -8.04770
H          7.09710       -5.11680       -8.05820
H          8.81760       -4.16780       -5.69970
H          8.02880       -5.74760       -5.80740
H          7.05510       -4.27930       -5.68880
H          3.27850       -2.63740       -6.74820
H         -1.49170       -0.14730       -4.05410
H         -3.33930        0.57060       -2.64810
H         -4.37620        0.71430       -0.43730
H         -5.23120        1.50800       -1.79650
H         -6.35670        3.03140       -0.16490
H         -6.74220        1.33800        0.18180
H         -5.55450        2.19400        1.17050
H          0.73070        3.33930       -2.93660
H          1.74300        1.54140       -1.61720
H          6.44020        1.01950       -0.96800
H          7.80120       -0.55670        0.35960
H         10.04220       -0.96070       -0.56890
H         13.62850        2.20580        0.57480
H         14.61110        0.78890        0.16310
H         13.47700       -0.52480        1.96990
H         14.28350        0.90450        2.63000
H         12.53220        0.89870        2.41820
H          9.15410        3.22290        1.85630
H          2.17410        3.26500        2.37640
H          0.03830        3.31520        3.57440
H         -2.14640        0.83080        7.28000
H         -0.43410        0.50140        7.58140
H         -1.93580       -0.21400        5.00070
H         -0.24440       -0.59520        5.34030
H         -1.52580       -1.36470        6.28110
H          3.78020        0.72150        5.42950
H          4.99550        2.71630        5.81640
H          5.77620        2.79500        7.98220
H          5.72060        2.97220       12.77120
H          3.17960        2.99080       12.93430
H          1.77820        2.75190        8.64150
H          0.03920        3.02100        8.90780
H          0.36310        5.47520        8.56600
H          2.07980        5.20730        8.23220
H          0.85190        4.55530        7.13710
H         12.17070        3.32790       11.22800
H         14.50050        3.61450       10.21280
H         15.29230        5.29880        5.25690
H         13.62660        5.54330        5.83450
H         13.26620        3.05920        5.80200
H         13.74330        3.63620        4.20270
H         14.92730        2.82500        5.24080
H         11.11330        5.16980       12.11150
H          9.55990        5.59410       14.15530
