
  xtb     03052210443D
 energy: -474.097649000742 gnorm: 0.000407953912 xtb: 6.4.1 (unknown)
278307  0     0  0            999 V2000
  -10.8151    3.4559   12.2509 C   0  0  0  0  0  0  0  0  0  0  0  0
  -10.2991    2.2133   12.3331 C   0  0  0  0  0  0  0  0  0  0  0  0
   -9.3847    1.9188   11.2790 C   0  0  0  0  0  0  0  0  0  0  0  0
   -8.6638    0.7298   11.0525 C   0  0  0  0  0  0  0  0  0  0  0  0
   -8.8708   -0.4602   11.8475 C   0  0  0  0  0  0  0  0  0  0  0  0
  -10.0535   -0.9386   12.3419 C   0  0  0  0  0  0  0  0  0  0  0  0
   -9.9806   -2.1391   13.0747 C   0  0  0  0  0  0  0  0  0  0  0  0
   -8.7252   -2.6613   13.2049 C   0  0  0  0  0  0  0  0  0  0  0  0
   -8.3583   -4.0997   14.1287 S   0  0  0  0  0  0  0  0  0  0  0  0
   -6.7180   -4.5540   13.4603 C   0  0  0  0  0  0  0  0  0  0  0  0
   -6.8019   -5.1030   12.0509 C   0  0  0  0  0  0  0  0  0  0  0  0
   -7.4403   -1.5846   12.3424 Se  0  0  0  0  0  2  0  0  0  0  0  0
   -7.7387    0.7678   10.0125 C   0  0  0  0  0  0  0  0  0  0  0  0
   -7.5481    1.8825    9.1629 C   0  0  0  0  0  0  0  0  0  0  0  0
   -8.3349    3.0397    9.3358 C   0  0  0  0  0  0  0  0  0  0  0  0
   -8.2105    4.1719    8.4435 C   0  0  0  0  0  0  0  0  0  0  0  0
   -8.0255    4.1308    7.0882 C   0  0  0  0  0  0  0  0  0  0  0  0
   -7.8501    5.3719    6.4437 C   0  0  0  0  0  0  0  0  0  0  0  0
   -7.8864    6.4531    7.2751 C   0  0  0  0  0  0  0  0  0  0  0  0
   -7.6665    8.1477    6.9000 S   0  0  0  0  0  0  0  0  0  0  0  0
   -8.1207    8.2276    5.1299 C   0  0  0  0  0  0  0  0  0  0  0  0
   -9.5904    7.9346    4.9043 C   0  0  0  0  0  0  0  0  0  0  0  0
   -8.2032    5.9625    9.0586 Se  0  0  0  0  0  2  0  0  0  0  0  0
   -9.2127    3.0264   10.4178 C   0  0  0  0  0  0  0  0  0  0  0  0
  -10.2371    4.3552   10.8903 S   0  0  0  0  0  0  0  0  0  0  0  0
   -6.4972    1.6652    8.2339 C   0  0  0  0  0  0  0  0  0  0  0  0
   -5.9242    0.4332    8.3371 C   0  0  0  0  0  0  0  0  0  0  0  0
   -6.6690   -0.5368    9.5900 S   0  0  0  0  0  0  0  0  0  0  0  0
   -4.8374   -0.1192    7.5940 C   0  0  0  0  0  0  0  0  0  0  0  0
   -4.2428    0.3551    6.4621 C   0  0  0  0  0  0  0  0  0  0  0  0
   -3.1808   -0.4624    5.9958 C   0  0  0  0  0  0  0  0  0  0  0  0
   -2.3473   -0.2513    4.8849 C   0  0  0  0  0  0  0  0  0  0  0  0
   -2.5559    0.8752    3.9643 C   0  0  0  0  0  0  0  0  0  0  0  0
   -3.7964    1.0829    3.3623 C   0  0  0  0  0  0  0  0  0  0  0  0
   -3.9741    2.1043    2.4530 C   0  0  0  0  0  0  0  0  0  0  0  0
   -2.9307    2.9683    2.1291 C   0  0  0  0  0  0  0  0  0  0  0  0
   -3.2391    4.2518    0.9509 S   0  0  0  0  0  0  0  0  0  0  0  0
   -1.7022    4.2478   -0.0577 C   0  0  0  0  0  0  0  0  0  0  0  0
   -2.0476    4.3568   -1.5295 C   0  0  0  0  0  0  0  0  0  0  0  0
   -1.7115    2.7811    2.7734 C   0  0  0  0  0  0  0  0  0  0  0  0
   -0.6832    3.6269    2.5527 F   0  0  0  0  0  0  0  0  0  0  0  0
   -1.5109    1.7402    3.6575 C   0  0  0  0  0  0  0  0  0  0  0  0
   -1.3314   -1.1735    4.6842 C   0  0  0  0  0  0  0  0  0  0  0  0
   -1.1190   -2.2902    5.5307 C   0  0  0  0  0  0  0  0  0  0  0  0
   -1.9509   -2.5027    6.6408 C   0  0  0  0  0  0  0  0  0  0  0  0
   -1.7271   -3.6314    7.5512 C   0  0  0  0  0  0  0  0  0  0  0  0
   -0.4593   -3.8825    8.0762 C   0  0  0  0  0  0  0  0  0  0  0  0
   -0.2522   -4.9370    8.9384 C   0  0  0  0  0  0  0  0  0  0  0  0
   -1.2914   -5.7916    9.3014 C   0  0  0  0  0  0  0  0  0  0  0  0
   -0.8902   -7.1485   10.3649 S   0  0  0  0  0  0  0  0  0  0  0  0
   -2.3229   -7.2725   11.4973 C   0  0  0  0  0  0  0  0  0  0  0  0
   -2.5829   -5.9739   12.2340 C   0  0  0  0  0  0  0  0  0  0  0  0
   -2.5468   -5.5384    8.7584 C   0  0  0  0  0  0  0  0  0  0  0  0
   -2.7743   -4.4715    7.9130 C   0  0  0  0  0  0  0  0  0  0  0  0
   -3.5968   -6.3419    9.0397 F   0  0  0  0  0  0  0  0  0  0  0  0
   -2.9722   -1.5864    6.8348 C   0  0  0  0  0  0  0  0  0  0  0  0
   -4.1113   -1.6127    8.1507 S   0  0  0  0  0  0  0  0  0  0  0  0
   -0.0612   -3.1116    5.0702 C   0  0  0  0  0  0  0  0  0  0  0  0
    0.5280   -2.6526    3.9303 C   0  0  0  0  0  0  0  0  0  0  0  0
   -0.1997   -1.1685    3.3572 S   0  0  0  0  0  0  0  0  0  0  0  0
    1.6329   -3.2452    3.2491 C   0  0  0  0  0  0  0  0  0  0  0  0
    2.5436   -4.1072    3.7822 C   0  0  0  0  0  0  0  0  0  0  0  0
    3.5646   -4.4963    2.8811 C   0  0  0  0  0  0  0  0  0  0  0  0
    4.6771   -5.3219    3.1654 C   0  0  0  0  0  0  0  0  0  0  0  0
    4.7874   -6.0445    4.4117 C   0  0  0  0  0  0  0  0  0  0  0  0
    5.9160   -6.3636    5.1168 C   0  0  0  0  0  0  0  0  0  0  0  0
    5.7283   -7.1190    6.2897 C   0  0  0  0  0  0  0  0  0  0  0  0
    4.4337   -7.4567    6.5669 C   0  0  0  0  0  0  0  0  0  0  0  0
    3.9438   -8.3750    7.9732 S   0  0  0  0  0  0  0  0  0  0  0  0
    2.1936   -7.8745    8.1763 C   0  0  0  0  0  0  0  0  0  0  0  0
    1.2388   -8.7302    7.3702 C   0  0  0  0  0  0  0  0  0  0  0  0
    3.2726   -6.8253    5.2316 Se  0  0  0  0  0  2  0  0  0  0  0  0
    5.6515   -5.3736    2.1698 C   0  0  0  0  0  0  0  0  0  0  0  0
    5.4757   -4.7828    0.8950 C   0  0  0  0  0  0  0  0  0  0  0  0
    4.3389   -4.0027    0.5855 C   0  0  0  0  0  0  0  0  0  0  0  0
    4.1999   -3.2760   -0.6596 C   0  0  0  0  0  0  0  0  0  0  0  0
    3.6338   -2.0372   -0.8171 C   0  0  0  0  0  0  0  0  0  0  0  0
    3.6721   -1.4815   -2.1082 C   0  0  0  0  0  0  0  0  0  0  0  0
    4.2689   -2.2584   -3.0571 C   0  0  0  0  0  0  0  0  0  0  0  0
    4.4710   -1.7764   -4.7279 S   0  0  0  0  0  0  0  0  0  0  0  0
    5.9647   -2.7201   -5.2117 C   0  0  0  0  0  0  0  0  0  0  0  0
    5.6348   -4.0935   -5.7581 C   0  0  0  0  0  0  0  0  0  0  0  0
    4.8103   -3.9076   -2.3317 Se  0  0  0  0  0  2  0  0  0  0  0  0
    3.4221   -3.8582    1.6258 C   0  0  0  0  0  0  0  0  0  0  0  0
    1.9874   -2.8697    1.5847 S   0  0  0  0  0  0  0  0  0  0  0  0
    6.6520   -4.8797    0.1192 C   0  0  0  0  0  0  0  0  0  0  0  0
    7.7228   -5.4274    0.7686 C   0  0  0  0  0  0  0  0  0  0  0  0
    7.2711   -6.0279    2.3399 S   0  0  0  0  0  0  0  0  0  0  0  0
    9.0069   -4.8818    0.3647 C   0  0  0  0  0  0  0  0  0  0  0  0
    9.4225   -4.6962   -0.9198 C   0  0  0  0  0  0  0  0  0  0  0  0
    9.7253   -3.3312   -1.2332 C   0  0  0  0  0  0  0  0  0  0  0  0
    9.7561   -2.7877   -2.5394 C   0  0  0  0  0  0  0  0  0  0  0  0
   10.2462   -3.5791   -3.6397 C   0  0  0  0  0  0  0  0  0  0  0  0
   10.0042   -3.4657   -4.9840 C   0  0  0  0  0  0  0  0  0  0  0  0
   10.7282   -4.3327   -5.8235 C   0  0  0  0  0  0  0  0  0  0  0  0
   11.5951   -5.1680   -5.1783 C   0  0  0  0  0  0  0  0  0  0  0  0
   12.6942   -6.3560   -5.8342 S   0  0  0  0  0  0  0  0  0  0  0  0
   12.0398   -6.6361   -7.5180 C   0  0  0  0  0  0  0  0  0  0  0  0
   10.7049   -7.3539   -7.5026 C   0  0  0  0  0  0  0  0  0  0  0  0
   11.5460   -4.9278   -3.3218 Se  0  0  0  0  0  2  0  0  0  0  0  0
    9.1986   -1.5086   -2.6631 C   0  0  0  0  0  0  0  0  0  0  0  0
    8.6926   -0.7807   -1.5591 C   0  0  0  0  0  0  0  0  0  0  0  0
    8.8727   -1.2462   -0.2418 C   0  0  0  0  0  0  0  0  0  0  0  0
    8.1105   -0.7558    0.8950 C   0  0  0  0  0  0  0  0  0  0  0  0
    8.4945   -0.7298    2.2039 C   0  0  0  0  0  0  0  0  0  0  0  0
    7.4498   -0.6528    3.1498 C   0  0  0  0  0  0  0  0  0  0  0  0
    6.1908   -0.6461    2.6303 C   0  0  0  0  0  0  0  0  0  0  0  0
    4.7313   -0.8019    3.5943 S   0  0  0  0  0  0  0  0  0  0  0  0
    3.8821    0.7974    3.2864 C   0  0  0  0  0  0  0  0  0  0  0  0
    3.1166    0.8179    1.9819 C   0  0  0  0  0  0  0  0  0  0  0  0
    6.2247   -0.7083    0.7454 Se  0  0  0  0  0  2  0  0  0  0  0  0
    9.4515   -2.5000   -0.1206 C   0  0  0  0  0  0  0  0  0  0  0  0
    9.3525   -3.4361    1.3571 S   0  0  0  0  0  0  0  0  0  0  0  0
    7.8572    0.2895   -1.9502 C   0  0  0  0  0  0  0  0  0  0  0  0
    7.7011    0.4014   -3.2997 C   0  0  0  0  0  0  0  0  0  0  0  0
    8.7244   -0.7344   -4.1593 S   0  0  0  0  0  0  0  0  0  0  0  0
    6.6364    1.0781   -3.9664 C   0  0  0  0  0  0  0  0  0  0  0  0
    6.4088    1.2676   -5.2962 C   0  0  0  0  0  0  0  0  0  0  0  0
    5.0796    1.6732   -5.5945 C   0  0  0  0  0  0  0  0  0  0  0  0
    4.4829    1.8769   -6.8520 C   0  0  0  0  0  0  0  0  0  0  0  0
    5.2337    1.6678   -8.0955 C   0  0  0  0  0  0  0  0  0  0  0  0
    5.2503    2.6192   -9.1089 C   0  0  0  0  0  0  0  0  0  0  0  0
    5.9548    2.4042  -10.2786 C   0  0  0  0  0  0  0  0  0  0  0  0
    6.6678    1.2275  -10.4760 C   0  0  0  0  0  0  0  0  0  0  0  0
    7.5957    0.8152  -11.9159 S   0  0  0  0  0  0  0  0  0  0  0  0
    7.7270    2.3869  -12.8346 C   0  0  0  0  0  0  0  0  0  0  0  0
    8.6605    3.3739  -12.1594 C   0  0  0  0  0  0  0  0  0  0  0  0
    6.6214    0.2715   -9.4592 C   0  0  0  0  0  0  0  0  0  0  0  0
    7.2806   -0.8954   -9.6228 F   0  0  0  0  0  0  0  0  0  0  0  0
    5.9247    0.4731   -8.2909 C   0  0  0  0  0  0  0  0  0  0  0  0
    3.1350    2.2106   -6.8615 C   0  0  0  0  0  0  0  0  0  0  0  0
    2.3523    2.2269   -5.6835 C   0  0  0  0  0  0  0  0  0  0  0  0
    2.9329    1.9829   -4.4336 C   0  0  0  0  0  0  0  0  0  0  0  0
    2.0988    1.7695   -3.2435 C   0  0  0  0  0  0  0  0  0  0  0  0
    2.2550    2.4829   -2.0593 C   0  0  0  0  0  0  0  0  0  0  0  0
    1.4709    2.1880   -0.9650 C   0  0  0  0  0  0  0  0  0  0  0  0
    0.5385    1.1473   -0.9824 C   0  0  0  0  0  0  0  0  0  0  0  0
   -0.2987    0.8620    0.5469 S   0  0  0  0  0  0  0  0  0  0  0  0
   -1.7656   -0.1673    0.1970 C   0  0  0  0  0  0  0  0  0  0  0  0
   -2.7925    0.5394   -0.6632 C   0  0  0  0  0  0  0  0  0  0  0  0
    0.4124    0.4306   -2.1679 C   0  0  0  0  0  0  0  0  0  0  0  0
    1.1543    0.7487   -3.2872 C   0  0  0  0  0  0  0  0  0  0  0  0
   -0.4360   -0.6160   -2.2792 F   0  0  0  0  0  0  0  0  0  0  0  0
    4.2997    1.7841   -4.4157 C   0  0  0  0  0  0  0  0  0  0  0  0
    5.2333    1.4682   -2.9854 S   0  0  0  0  0  0  0  0  0  0  0  0
    0.9914    2.4983   -5.9414 C   0  0  0  0  0  0  0  0  0  0  0  0
    0.7091    2.6869   -7.2626 C   0  0  0  0  0  0  0  0  0  0  0  0
    2.1394    2.5283   -8.2640 S   0  0  0  0  0  0  0  0  0  0  0  0
   -0.5895    2.9929   -7.7729 C   0  0  0  0  0  0  0  0  0  0  0  0
   -1.7327    2.9970   -7.0287 C   0  0  0  0  0  0  0  0  0  0  0  0
   -2.8821    3.3965   -7.7464 C   0  0  0  0  0  0  0  0  0  0  0  0
   -4.1925    3.5054   -7.2452 C   0  0  0  0  0  0  0  0  0  0  0  0
   -4.4984    3.0639   -5.9009 C   0  0  0  0  0  0  0  0  0  0  0  0
   -4.0953    1.8931   -5.3233 C   0  0  0  0  0  0  0  0  0  0  0  0
   -4.4432    1.7165   -3.9708 C   0  0  0  0  0  0  0  0  0  0  0  0
   -5.1214    2.7605   -3.4079 C   0  0  0  0  0  0  0  0  0  0  0  0
   -5.6002    2.7792   -1.7233 S   0  0  0  0  0  0  0  0  0  0  0  0
   -6.1108    4.5141   -1.4729 C   0  0  0  0  0  0  0  0  0  0  0  0
   -7.5502    4.7543   -1.8811 C   0  0  0  0  0  0  0  0  0  0  0  0
   -5.4546    4.1221   -4.6719 Se  0  0  0  0  0  2  0  0  0  0  0  0
   -5.1343    4.0357   -8.1165 C   0  0  0  0  0  0  0  0  0  0  0  0
   -4.8474    4.3711   -9.4599 C   0  0  0  0  0  0  0  0  0  0  0  0
   -3.5514    4.1888   -9.9843 C   0  0  0  0  0  0  0  0  0  0  0  0
   -3.2282    4.4261  -11.3770 C   0  0  0  0  0  0  0  0  0  0  0  0
   -2.0586    4.9280  -11.8759 C   0  0  0  0  0  0  0  0  0  0  0  0
   -1.9315    4.9421  -13.2802 C   0  0  0  0  0  0  0  0  0  0  0  0
   -3.0004    4.4312  -13.9548 C   0  0  0  0  0  0  0  0  0  0  0  0
   -3.2411    4.2233  -15.6748 S   0  0  0  0  0  0  0  0  0  0  0  0
   -2.0527    5.4105  -16.3954 C   0  0  0  0  0  0  0  0  0  0  0  0
   -2.4398    6.8494  -16.1178 C   0  0  0  0  0  0  0  0  0  0  0  0
   -4.3643    3.8807  -12.7936 Se  0  0  0  0  0  2  0  0  0  0  0  0
   -2.5858    3.7326   -9.0874 C   0  0  0  0  0  0  0  0  0  0  0  0
   -0.8910    3.4740   -9.4278 S   0  0  0  0  0  0  0  0  0  0  0  0
   -6.0001    4.9018  -10.1122 C   0  0  0  0  0  0  0  0  0  0  0  0
   -7.0887    4.9441   -9.3175 C   0  0  0  0  0  0  0  0  0  0  0  0
   -6.8034    4.3402   -7.7225 S   0  0  0  0  0  0  0  0  0  0  0  0
  -11.5146    3.9251   12.9146 H   0  0  0  0  0  0  0  0  0  0  0  0
  -10.5247    1.5297   13.1306 H   0  0  0  0  0  0  0  0  0  0  0  0
  -10.9965   -0.4651   12.1251 H   0  0  0  0  0  0  0  0  0  0  0  0
  -10.8483   -2.6224   13.4894 H   0  0  0  0  0  0  0  0  0  0  0  0
   -6.3360   -5.2994   14.1573 H   0  0  0  0  0  0  0  0  0  0  0  0
   -6.0901   -3.6586   13.5111 H   0  0  0  0  0  0  0  0  0  0  0  0
   -5.8115   -5.3889   11.7035 H   0  0  0  0  0  0  0  0  0  0  0  0
   -7.4504   -5.9755   12.0210 H   0  0  0  0  0  0  0  0  0  0  0  0
   -7.1989   -4.3508   11.3690 H   0  0  0  0  0  0  0  0  0  0  0  0
   -8.0519    3.2072    6.5339 H   0  0  0  0  0  0  0  0  0  0  0  0
   -7.6905    5.4413    5.3814 H   0  0  0  0  0  0  0  0  0  0  0  0
   -7.8744    9.2502    4.8453 H   0  0  0  0  0  0  0  0  0  0  0  0
   -7.4728    7.5444    4.5826 H   0  0  0  0  0  0  0  0  0  0  0  0
  -10.2047    8.6398    5.4591 H   0  0  0  0  0  0  0  0  0  0  0  0
   -9.8265    8.0224    3.8456 H   0  0  0  0  0  0  0  0  0  0  0  0
   -9.8386    6.9278    5.2342 H   0  0  0  0  0  0  0  0  0  0  0  0
   -6.1470    2.4168    7.5510 H   0  0  0  0  0  0  0  0  0  0  0  0
   -4.5427    1.2651    5.9754 H   0  0  0  0  0  0  0  0  0  0  0  0
   -4.6138    0.4127    3.5821 H   0  0  0  0  0  0  0  0  0  0  0  0
   -4.9257    2.2420    1.9628 H   0  0  0  0  0  0  0  0  0  0  0  0
   -1.0855    5.0837    0.2707 H   0  0  0  0  0  0  0  0  0  0  0  0
   -1.1902    3.3113    0.1492 H   0  0  0  0  0  0  0  0  0  0  0  0
   -2.6952    3.5365   -1.8318 H   0  0  0  0  0  0  0  0  0  0  0  0
   -1.1334    4.3158   -2.1193 H   0  0  0  0  0  0  0  0  0  0  0  0
   -2.5563    5.2952   -1.7403 H   0  0  0  0  0  0  0  0  0  0  0  0
   -0.5419    1.6294    4.1176 H   0  0  0  0  0  0  0  0  0  0  0  0
    0.3596   -3.2239    7.8301 H   0  0  0  0  0  0  0  0  0  0  0  0
    0.7258   -5.1174    9.3569 H   0  0  0  0  0  0  0  0  0  0  0  0
   -3.1917   -7.6039   10.9326 H   0  0  0  0  0  0  0  0  0  0  0  0
   -2.0249   -8.0627   12.1865 H   0  0  0  0  0  0  0  0  0  0  0  0
   -2.8818   -5.1862   11.5443 H   0  0  0  0  0  0  0  0  0  0  0  0
   -3.3821   -6.1188   12.9586 H   0  0  0  0  0  0  0  0  0  0  0  0
   -1.6888   -5.6483   12.7617 H   0  0  0  0  0  0  0  0  0  0  0  0
   -3.7678   -4.3286    7.5179 H   0  0  0  0  0  0  0  0  0  0  0  0
    0.2230   -4.0333    5.5438 H   0  0  0  0  0  0  0  0  0  0  0  0
    2.5227   -4.3758    4.8235 H   0  0  0  0  0  0  0  0  0  0  0  0
    6.8901   -6.0004    4.8386 H   0  0  0  0  0  0  0  0  0  0  0  0
    6.5403   -7.3932    6.9405 H   0  0  0  0  0  0  0  0  0  0  0  0
    1.9939   -7.9721    9.2429 H   0  0  0  0  0  0  0  0  0  0  0  0
    2.1285   -6.8224    7.8902 H   0  0  0  0  0  0  0  0  0  0  0  0
    1.3517   -9.7784    7.6353 H   0  0  0  0  0  0  0  0  0  0  0  0
    0.2161   -8.4235    7.5786 H   0  0  0  0  0  0  0  0  0  0  0  0
    1.4254   -8.6190    6.3006 H   0  0  0  0  0  0  0  0  0  0  0  0
    3.2411   -1.4684    0.0080 H   0  0  0  0  0  0  0  0  0  0  0  0
    3.2910   -0.4991   -2.3223 H   0  0  0  0  0  0  0  0  0  0  0  0
    6.6015   -2.7801   -4.3264 H   0  0  0  0  0  0  0  0  0  0  0  0
    6.4579   -2.1050   -5.9642 H   0  0  0  0  0  0  0  0  0  0  0  0
    6.5521   -4.6027   -6.0466 H   0  0  0  0  0  0  0  0  0  0  0  0
    4.9873   -4.0128   -6.6280 H   0  0  0  0  0  0  0  0  0  0  0  0
    5.1281   -4.6957   -5.0017 H   0  0  0  0  0  0  0  0  0  0  0  0
    6.7827   -4.3957   -0.8338 H   0  0  0  0  0  0  0  0  0  0  0  0
    9.2836   -5.4445   -1.6830 H   0  0  0  0  0  0  0  0  0  0  0  0
    9.2900   -2.7750   -5.3960 H   0  0  0  0  0  0  0  0  0  0  0  0
   10.6061   -4.3103   -6.8925 H   0  0  0  0  0  0  0  0  0  0  0  0
   11.9877   -5.6732   -8.0242 H   0  0  0  0  0  0  0  0  0  0  0  0
   12.8074   -7.2443   -7.9959 H   0  0  0  0  0  0  0  0  0  0  0  0
    9.9538   -6.7647   -6.9808 H   0  0  0  0  0  0  0  0  0  0  0  0
   10.7987   -8.3145   -7.0014 H   0  0  0  0  0  0  0  0  0  0  0  0
   10.3665   -7.5237   -8.5227 H   0  0  0  0  0  0  0  0  0  0  0  0
    9.5309   -0.7591    2.4970 H   0  0  0  0  0  0  0  0  0  0  0  0
    7.6267   -0.6313    4.2115 H   0  0  0  0  0  0  0  0  0  0  0  0
    3.2097    0.9056    4.1368 H   0  0  0  0  0  0  0  0  0  0  0  0
    4.6448    1.5744    3.3265 H   0  0  0  0  0  0  0  0  0  0  0  0
    2.3707    0.0264    1.9637 H   0  0  0  0  0  0  0  0  0  0  0  0
    2.6040    1.7709    1.8747 H   0  0  0  0  0  0  0  0  0  0  0  0
    3.7914    0.6911    1.1319 H   0  0  0  0  0  0  0  0  0  0  0  0
    7.3400    0.9276   -1.2527 H   0  0  0  0  0  0  0  0  0  0  0  0
    7.1659    1.0977   -6.0409 H   0  0  0  0  0  0  0  0  0  0  0  0
    4.7170    3.5484   -8.9783 H   0  0  0  0  0  0  0  0  0  0  0  0
    5.9367    3.1660  -11.0406 H   0  0  0  0  0  0  0  0  0  0  0  0
    8.1221    2.0817  -13.8036 H   0  0  0  0  0  0  0  0  0  0  0  0
    6.7258    2.7901  -12.9811 H   0  0  0  0  0  0  0  0  0  0  0  0
    8.3009    3.6379  -11.1672 H   0  0  0  0  0  0  0  0  0  0  0  0
    8.7343    4.2813  -12.7559 H   0  0  0  0  0  0  0  0  0  0  0  0
    9.6534    2.9418  -12.0594 H   0  0  0  0  0  0  0  0  0  0  0  0
    5.8942   -0.3081   -7.5480 H   0  0  0  0  0  0  0  0  0  0  0  0
    2.9807    3.2794   -2.0044 H   0  0  0  0  0  0  0  0  0  0  0  0
    1.5719    2.7602   -0.0562 H   0  0  0  0  0  0  0  0  0  0  0  0
   -1.4308   -1.1045   -0.2414 H   0  0  0  0  0  0  0  0  0  0  0  0
   -2.1615   -0.3633    1.1945 H   0  0  0  0  0  0  0  0  0  0  0  0
   -2.3801    0.7912   -1.6370 H   0  0  0  0  0  0  0  0  0  0  0  0
   -3.1401    1.4511   -0.1857 H   0  0  0  0  0  0  0  0  0  0  0  0
   -3.6507   -0.1125   -0.8116 H   0  0  0  0  0  0  0  0  0  0  0  0
    1.0256    0.1560   -4.1801 H   0  0  0  0  0  0  0  0  0  0  0  0
    0.2607    2.5744   -5.1580 H   0  0  0  0  0  0  0  0  0  0  0  0
   -1.7607    2.7458   -5.9854 H   0  0  0  0  0  0  0  0  0  0  0  0
   -3.5659    1.1375   -5.8800 H   0  0  0  0  0  0  0  0  0  0  0  0
   -4.1874    0.8325   -3.4132 H   0  0  0  0  0  0  0  0  0  0  0  0
   -5.9576    4.6970   -0.4096 H   0  0  0  0  0  0  0  0  0  0  0  0
   -5.4183    5.1356   -2.0459 H   0  0  0  0  0  0  0  0  0  0  0  0
   -7.8169    5.7929   -1.6974 H   0  0  0  0  0  0  0  0  0  0  0  0
   -8.2197    4.1132   -1.3125 H   0  0  0  0  0  0  0  0  0  0  0  0
   -7.6887    4.5457   -2.9428 H   0  0  0  0  0  0  0  0  0  0  0  0
   -1.2834    5.3241  -11.2422 H   0  0  0  0  0  0  0  0  0  0  0  0
   -1.0460    5.3176  -13.7629 H   0  0  0  0  0  0  0  0  0  0  0  0
   -2.0844    5.1933  -17.4629 H   0  0  0  0  0  0  0  0  0  0  0  0
   -1.0612    5.1672  -16.0160 H   0  0  0  0  0  0  0  0  0  0  0  0
   -2.4540    7.0464  -15.0478 H   0  0  0  0  0  0  0  0  0  0  0  0
   -1.7233    7.5213  -16.5862 H   0  0  0  0  0  0  0  0  0  0  0  0
   -3.4285    7.0580  -16.5198 H   0  0  0  0  0  0  0  0  0  0  0  0
   -6.0014    5.2624  -11.1268 H   0  0  0  0  0  0  0  0  0  0  0  0
   -8.0699    5.3015   -9.5609 H   0  0  0  0  0  0  0  0  0  0  0  0
  1  2  2  0  0  0  0
  2  3  1  0  0  0  0
  3  4  2  0  0  0  0
  4  5  1  0  0  0  0
  5  6  2  0  0  0  0
  6  7  1  0  0  0  0
  7  8  2  0  0  0  0
  8  9  1  0  0  0  0
  9 10  1  0  0  0  0
 10 11  1  0  0  0  0
  8 12  1  0  0  0  0
  4 13  1  0  0  0  0
 13 14  2  0  0  0  0
 14 15  1  0  0  0  0
 15 16  1  0  0  0  0
 16 17  2  0  0  0  0
 17 18  1  0  0  0  0
 18 19  2  0  0  0  0
 19 20  1  0  0  0  0
 20 21  1  0  0  0  0
 21 22  1  0  0  0  0
 19 23  1  0  0  0  0
 15 24  2  0  0  0  0
 24 25  1  0  0  0  0
 14 26  1  0  0  0  0
 26 27  2  0  0  0  0
 27 28  1  0  0  0  0
 27 29  1  0  0  0  0
 29 30  2  0  0  0  0
 30 31  1  0  0  0  0
 31 32  2  0  0  0  0
 32 33  1  0  0  0  0
 33 34  2  0  0  0  0
 34 35  1  0  0  0  0
 35 36  2  0  0  0  0
 36 37  1  0  0  0  0
 37 38  1  0  0  0  0
 38 39  1  0  0  0  0
 36 40  1  0  0  0  0
 40 41  1  0  0  0  0
 40 42  2  0  0  0  0
 32 43  1  0  0  0  0
 43 44  2  0  0  0  0
 44 45  1  0  0  0  0
 45 46  1  0  0  0  0
 46 47  2  0  0  0  0
 47 48  1  0  0  0  0
 48 49  2  0  0  0  0
 49 50  1  0  0  0  0
 50 51  1  0  0  0  0
 51 52  1  0  0  0  0
 49 53  1  0  0  0  0
 53 54  2  0  0  0  0
 53 55  1  0  0  0  0
 45 56  2  0  0  0  0
 56 57  1  0  0  0  0
 44 58  1  0  0  0  0
 58 59  2  0  0  0  0
 59 60  1  0  0  0  0
 59 61  1  0  0  0  0
 61 62  2  0  0  0  0
 62 63  1  0  0  0  0
 63 64  2  0  0  0  0
 64 65  1  0  0  0  0
 65 66  2  0  0  0  0
 66 67  1  0  0  0  0
 67 68  2  0  0  0  0
 68 69  1  0  0  0  0
 69 70  1  0  0  0  0
 70 71  1  0  0  0  0
 68 72  1  0  0  0  0
 64 73  1  0  0  0  0
 73 74  2  0  0  0  0
 74 75  1  0  0  0  0
 75 76  1  0  0  0  0
 76 77  2  0  0  0  0
 77 78  1  0  0  0  0
 78 79  2  0  0  0  0
 79 80  1  0  0  0  0
 80 81  1  0  0  0  0
 81 82  1  0  0  0  0
 79 83  1  0  0  0  0
 75 84  2  0  0  0  0
 84 85  1  0  0  0  0
 74 86  1  0  0  0  0
 86 87  2  0  0  0  0
 87 88  1  0  0  0  0
 87 89  1  0  0  0  0
 89 90  2  0  0  0  0
 90 91  1  0  0  0  0
 91 92  2  0  0  0  0
 92 93  1  0  0  0  0
 93 94  2  0  0  0  0
 94 95  1  0  0  0  0
 95 96  2  0  0  0  0
 96 97  1  0  0  0  0
 97 98  1  0  0  0  0
 98 99  1  0  0  0  0
 96100  1  0  0  0  0
 92101  1  0  0  0  0
101102  2  0  0  0  0
102103  1  0  0  0  0
103104  1  0  0  0  0
104105  2  0  0  0  0
105106  1  0  0  0  0
106107  2  0  0  0  0
107108  1  0  0  0  0
108109  1  0  0  0  0
109110  1  0  0  0  0
107111  1  0  0  0  0
103112  2  0  0  0  0
112113  1  0  0  0  0
102114  1  0  0  0  0
114115  2  0  0  0  0
115116  1  0  0  0  0
115117  1  0  0  0  0
117118  2  0  0  0  0
118119  1  0  0  0  0
119120  2  0  0  0  0
120121  1  0  0  0  0
121122  2  0  0  0  0
122123  1  0  0  0  0
123124  2  0  0  0  0
124125  1  0  0  0  0
125126  1  0  0  0  0
126127  1  0  0  0  0
124128  1  0  0  0  0
128129  1  0  0  0  0
128130  2  0  0  0  0
120131  1  0  0  0  0
131132  2  0  0  0  0
132133  1  0  0  0  0
133134  1  0  0  0  0
134135  2  0  0  0  0
135136  1  0  0  0  0
136137  2  0  0  0  0
137138  1  0  0  0  0
138139  1  0  0  0  0
139140  1  0  0  0  0
137141  1  0  0  0  0
141142  2  0  0  0  0
141143  1  0  0  0  0
133144  2  0  0  0  0
144145  1  0  0  0  0
132146  1  0  0  0  0
146147  2  0  0  0  0
147148  1  0  0  0  0
147149  1  0  0  0  0
149150  2  0  0  0  0
150151  1  0  0  0  0
151152  2  0  0  0  0
152153  1  0  0  0  0
153154  2  0  0  0  0
154155  1  0  0  0  0
155156  2  0  0  0  0
156157  1  0  0  0  0
157158  1  0  0  0  0
158159  1  0  0  0  0
156160  1  0  0  0  0
152161  1  0  0  0  0
161162  2  0  0  0  0
162163  1  0  0  0  0
163164  1  0  0  0  0
164165  2  0  0  0  0
165166  1  0  0  0  0
166167  2  0  0  0  0
167168  1  0  0  0  0
168169  1  0  0  0  0
169170  1  0  0  0  0
167171  1  0  0  0  0
163172  2  0  0  0  0
172173  1  0  0  0  0
162174  1  0  0  0  0
174175  2  0  0  0  0
175176  1  0  0  0  0
 25  1  1  0  0  0  0
 57 29  1  0  0  0  0
 85 61  1  0  0  0  0
113 89  1  0  0  0  0
145117  1  0  0  0  0
173149  1  0  0  0  0
 24  3  1  0  0  0  0
 56 31  1  0  0  0  0
 84 63  1  0  0  0  0
112 91  1  0  0  0  0
144119  1  0  0  0  0
172151  1  0  0  0  0
 12  5  1  0  0  0  0
 28 13  1  0  0  0  0
 42 33  1  0  0  0  0
 60 43  1  0  0  0  0
 72 65  1  0  0  0  0
 88 73  1  0  0  0  0
100 93  1  0  0  0  0
116101  1  0  0  0  0
130121  1  0  0  0  0
148131  1  0  0  0  0
160153  1  0  0  0  0
176161  1  0  0  0  0
 23 16  1  0  0  0  0
 54 46  1  0  0  0  0
 83 76  1  0  0  0  0
111104  1  0  0  0  0
142134  1  0  0  0  0
171164  1  0  0  0  0
  1177  1  0  0  0  0
  2178  1  0  0  0  0
  6179  1  0  0  0  0
  7180  1  0  0  0  0
 10181  1  0  0  0  0
 10182  1  0  0  0  0
 11183  1  0  0  0  0
 11184  1  0  0  0  0
 11185  1  0  0  0  0
 17186  1  0  0  0  0
 18187  1  0  0  0  0
 21188  1  0  0  0  0
 21189  1  0  0  0  0
 22190  1  0  0  0  0
 22191  1  0  0  0  0
 22192  1  0  0  0  0
 26193  1  0  0  0  0
 30194  1  0  0  0  0
 34195  1  0  0  0  0
 35196  1  0  0  0  0
 38197  1  0  0  0  0
 38198  1  0  0  0  0
 39199  1  0  0  0  0
 39200  1  0  0  0  0
 39201  1  0  0  0  0
 42202  1  0  0  0  0
 47203  1  0  0  0  0
 48204  1  0  0  0  0
 51205  1  0  0  0  0
 51206  1  0  0  0  0
 52207  1  0  0  0  0
 52208  1  0  0  0  0
 52209  1  0  0  0  0
 54210  1  0  0  0  0
 58211  1  0  0  0  0
 62212  1  0  0  0  0
 66213  1  0  0  0  0
 67214  1  0  0  0  0
 70215  1  0  0  0  0
 70216  1  0  0  0  0
 71217  1  0  0  0  0
 71218  1  0  0  0  0
 71219  1  0  0  0  0
 77220  1  0  0  0  0
 78221  1  0  0  0  0
 81222  1  0  0  0  0
 81223  1  0  0  0  0
 82224  1  0  0  0  0
 82225  1  0  0  0  0
 82226  1  0  0  0  0
 86227  1  0  0  0  0
 90228  1  0  0  0  0
 94229  1  0  0  0  0
 95230  1  0  0  0  0
 98231  1  0  0  0  0
 98232  1  0  0  0  0
 99233  1  0  0  0  0
 99234  1  0  0  0  0
 99235  1  0  0  0  0
105236  1  0  0  0  0
106237  1  0  0  0  0
109238  1  0  0  0  0
109239  1  0  0  0  0
110240  1  0  0  0  0
110241  1  0  0  0  0
110242  1  0  0  0  0
114243  1  0  0  0  0
118244  1  0  0  0  0
122245  1  0  0  0  0
123246  1  0  0  0  0
126247  1  0  0  0  0
126248  1  0  0  0  0
127249  1  0  0  0  0
127250  1  0  0  0  0
127251  1  0  0  0  0
130252  1  0  0  0  0
135253  1  0  0  0  0
136254  1  0  0  0  0
139255  1  0  0  0  0
139256  1  0  0  0  0
140257  1  0  0  0  0
140258  1  0  0  0  0
140259  1  0  0  0  0
142260  1  0  0  0  0
146261  1  0  0  0  0
150262  1  0  0  0  0
154263  1  0  0  0  0
155264  1  0  0  0  0
158265  1  0  0  0  0
158266  1  0  0  0  0
159267  1  0  0  0  0
159268  1  0  0  0  0
159269  1  0  0  0  0
165270  1  0  0  0  0
166271  1  0  0  0  0
169272  1  0  0  0  0
169273  1  0  0  0  0
170274  1  0  0  0  0
170275  1  0  0  0  0
170276  1  0  0  0  0
174277  1  0  0  0  0
175278  1  0  0  0  0
M  END
