
  xtb     03052201403D
 energy: -499.596715191065 gnorm: 0.000769701556 xtb: 6.4.1 (unknown)
290319  0     0  0            999 V2000
    2.9899   -5.2024    9.8388 C   0  0  0  0  0  0  0  0  0  0  0  0
    3.1117   -3.8772    9.6254 C   0  0  0  0  0  0  0  0  0  0  0  0
    2.0310   -3.3340    8.8678 C   0  0  0  0  0  0  0  0  0  0  0  0
    1.8131   -1.9970    8.5086 C   0  0  0  0  0  0  0  0  0  0  0  0
    2.8410   -0.9647    8.6793 C   0  0  0  0  0  0  0  0  0  0  0  0
    4.1249   -1.1949    8.1935 C   0  0  0  0  0  0  0  0  0  0  0  0
    5.0818   -0.1992    8.1933 C   0  0  0  0  0  0  0  0  0  0  0  0
    4.7858    1.0641    8.6903 C   0  0  0  0  0  0  0  0  0  0  0  0
    5.8841    2.4427    8.6744 S   0  0  0  0  0  0  0  0  0  0  0  0
    7.3263    1.8176    7.7377 C   0  0  0  0  0  0  0  0  0  0  0  0
    8.2718    2.9714    7.4611 C   0  0  0  0  0  0  0  0  0  0  0  0
    3.5113    1.2655    9.2216 C   0  0  0  0  0  0  0  0  0  0  0  0
    3.2053    2.4748    9.7388 F   0  0  0  0  0  0  0  0  0  0  0  0
    2.5453    0.2855    9.2161 C   0  0  0  0  0  0  0  0  0  0  0  0
    0.6233   -1.7123    7.8544 C   0  0  0  0  0  0  0  0  0  0  0  0
   -0.2988   -2.7124    7.4542 C   0  0  0  0  0  0  0  0  0  0  0  0
   -0.0688   -4.0560    7.7942 C   0  0  0  0  0  0  0  0  0  0  0  0
   -1.0041   -5.1179    7.4090 C   0  0  0  0  0  0  0  0  0  0  0  0
   -2.3757   -4.9842    7.6269 C   0  0  0  0  0  0  0  0  0  0  0  0
   -3.2460   -5.9930    7.2750 C   0  0  0  0  0  0  0  0  0  0  0  0
   -2.7897   -7.1701    6.6825 C   0  0  0  0  0  0  0  0  0  0  0  0
   -3.9962   -8.3692    6.2076 S   0  0  0  0  0  0  0  0  0  0  0  0
   -3.1438   -9.9728    6.4948 C   0  0  0  0  0  0  0  0  0  0  0  0
   -4.1848  -11.0391    6.7713 C   0  0  0  0  0  0  0  0  0  0  0  0
   -1.4216   -7.2832    6.4550 C   0  0  0  0  0  0  0  0  0  0  0  0
   -0.5375   -6.2893    6.8202 C   0  0  0  0  0  0  0  0  0  0  0  0
   -0.9144   -8.3733    5.8348 F   0  0  0  0  0  0  0  0  0  0  0  0
    1.0870   -4.3268    8.5156 C   0  0  0  0  0  0  0  0  0  0  0  0
    1.5686   -5.8899    9.1287 S   0  0  0  0  0  0  0  0  0  0  0  0
   -1.3349   -2.1734    6.6481 C   0  0  0  0  0  0  0  0  0  0  0  0
   -1.2433   -0.8241    6.4753 C   0  0  0  0  0  0  0  0  0  0  0  0
    0.1242   -0.1348    7.3191 S   0  0  0  0  0  0  0  0  0  0  0  0
   -2.0526    0.0097    5.6489 C   0  0  0  0  0  0  0  0  0  0  0  0
   -1.9471    1.3550    5.4571 C   0  0  0  0  0  0  0  0  0  0  0  0
   -2.8119    1.8602    4.4528 C   0  0  0  0  0  0  0  0  0  0  0  0
   -2.9160    3.1951    4.0067 C   0  0  0  0  0  0  0  0  0  0  0  0
   -2.2130    4.2811    4.6539 C   0  0  0  0  0  0  0  0  0  0  0  0
   -1.6402    5.3778    4.0722 C   0  0  0  0  0  0  0  0  0  0  0  0
   -1.1074    6.3403    4.9508 C   0  0  0  0  0  0  0  0  0  0  0  0
   -1.2628    6.0631    6.2798 C   0  0  0  0  0  0  0  0  0  0  0  0
   -0.6722    7.1085    7.5540 S   0  0  0  0  0  0  0  0  0  0  0  0
   -1.4906    6.4337    9.0436 C   0  0  0  0  0  0  0  0  0  0  0  0
   -0.7419    5.2626    9.6473 C   0  0  0  0  0  0  0  0  0  0  0  0
   -2.1199    4.4092    6.5334 Se  0  0  0  0  0  2  0  0  0  0  0  0
   -3.7625    3.4105    2.9224 C   0  0  0  0  0  0  0  0  0  0  0  0
   -4.5145    2.3791    2.3105 C   0  0  0  0  0  0  0  0  0  0  0  0
   -4.3916    1.0350    2.7298 C   0  0  0  0  0  0  0  0  0  0  0  0
   -4.9662   -0.0814    2.0022 C   0  0  0  0  0  0  0  0  0  0  0  0
   -4.3853   -1.3178    1.8902 C   0  0  0  0  0  0  0  0  0  0  0  0
   -5.0499   -2.2730    1.0997 C   0  0  0  0  0  0  0  0  0  0  0  0
   -6.2084   -1.8358    0.5320 C   0  0  0  0  0  0  0  0  0  0  0  0
   -7.2636   -2.6706   -0.5846 S   0  0  0  0  0  0  0  0  0  0  0  0
   -6.2025   -4.0190   -1.2158 C   0  0  0  0  0  0  0  0  0  0  0  0
   -5.0331   -3.5122   -2.0370 C   0  0  0  0  0  0  0  0  0  0  0  0
   -6.5874   -0.0644    1.0100 Se  0  0  0  0  0  2  0  0  0  0  0  0
   -3.5536    0.8277    3.8273 C   0  0  0  0  0  0  0  0  0  0  0  0
   -3.2521   -0.7073    4.6018 S   0  0  0  0  0  0  0  0  0  0  0  0
   -5.2924    2.8815    1.2423 C   0  0  0  0  0  0  0  0  0  0  0  0
   -5.1367    4.2127    1.0014 C   0  0  0  0  0  0  0  0  0  0  0  0
   -4.0270    4.9497    2.1280 S   0  0  0  0  0  0  0  0  0  0  0  0
   -5.6899    4.8258   -0.1745 C   0  0  0  0  0  0  0  0  0  0  0  0
   -5.0577    5.5310   -1.1530 C   0  0  0  0  0  0  0  0  0  0  0  0
   -5.7327    5.4909   -2.4057 C   0  0  0  0  0  0  0  0  0  0  0  0
   -5.1834    5.7846   -3.6793 C   0  0  0  0  0  0  0  0  0  0  0  0
   -3.9887    6.5788   -3.8032 C   0  0  0  0  0  0  0  0  0  0  0  0
   -3.6271    7.6283   -2.9979 C   0  0  0  0  0  0  0  0  0  0  0  0
   -2.3962    8.2400   -3.2890 C   0  0  0  0  0  0  0  0  0  0  0  0
   -1.7148    7.6967   -4.3434 C   0  0  0  0  0  0  0  0  0  0  0  0
   -0.1987    8.3275   -4.9365 S   0  0  0  0  0  0  0  0  0  0  0  0
    0.3677    6.9777   -6.0286 C   0  0  0  0  0  0  0  0  0  0  0  0
    0.8846    5.7883   -5.2475 C   0  0  0  0  0  0  0  0  0  0  0  0
   -2.6784    6.2810   -5.1289 Se  0  0  0  0  0  2  0  0  0  0  0  0
   -5.7923    5.1421   -4.7555 C   0  0  0  0  0  0  0  0  0  0  0  0
   -6.9955    4.4033   -4.6535 C   0  0  0  0  0  0  0  0  0  0  0  0
   -7.6327    4.2587   -3.4090 C   0  0  0  0  0  0  0  0  0  0  0  0
   -8.7905    3.4040   -3.2165 C   0  0  0  0  0  0  0  0  0  0  0  0
   -8.9460    2.1087   -3.6158 C   0  0  0  0  0  0  0  0  0  0  0  0
  -10.1586    1.4918   -3.2473 C   0  0  0  0  0  0  0  0  0  0  0  0
  -11.0127    2.2775   -2.5296 C   0  0  0  0  0  0  0  0  0  0  0  0
  -12.5345    1.7008   -1.8862 S   0  0  0  0  0  0  0  0  0  0  0  0
  -13.3908    3.2670   -1.5041 C   0  0  0  0  0  0  0  0  0  0  0  0
  -13.8617    3.9825   -2.7536 C   0  0  0  0  0  0  0  0  0  0  0  0
  -10.2778    3.9877   -2.2196 Se  0  0  0  0  0  2  0  0  0  0  0  0
   -6.9449    4.7706   -2.3158 C   0  0  0  0  0  0  0  0  0  0  0  0
   -7.2680    4.2546   -0.6835 S   0  0  0  0  0  0  0  0  0  0  0  0
   -7.2510    3.6276   -5.8091 C   0  0  0  0  0  0  0  0  0  0  0  0
   -6.2265    3.6393   -6.7113 C   0  0  0  0  0  0  0  0  0  0  0  0
   -5.0461    4.8930   -6.3182 S   0  0  0  0  0  0  0  0  0  0  0  0
   -5.8041    2.4968   -7.4588 C   0  0  0  0  0  0  0  0  0  0  0  0
   -4.5894    2.2901   -8.0459 C   0  0  0  0  0  0  0  0  0  0  0  0
   -4.1489    0.9413   -7.9785 C   0  0  0  0  0  0  0  0  0  0  0  0
   -2.8654    0.4408   -8.2416 C   0  0  0  0  0  0  0  0  0  0  0  0
   -1.7595    1.2261   -8.8070 C   0  0  0  0  0  0  0  0  0  0  0  0
   -0.9785    0.6860   -9.8260 C   0  0  0  0  0  0  0  0  0  0  0  0
    0.1714    1.3160  -10.2568 C   0  0  0  0  0  0  0  0  0  0  0  0
    0.5901    2.5066   -9.6735 C   0  0  0  0  0  0  0  0  0  0  0  0
    2.0840    3.3475  -10.0866 S   0  0  0  0  0  0  0  0  0  0  0  0
    3.1734    2.0011  -10.6736 C   0  0  0  0  0  0  0  0  0  0  0  0
    3.4746    0.9818   -9.5924 C   0  0  0  0  0  0  0  0  0  0  0  0
   -0.2311    3.0641   -8.6938 C   0  0  0  0  0  0  0  0  0  0  0  0
    0.1252    4.2342   -8.1231 F   0  0  0  0  0  0  0  0  0  0  0  0
   -1.3800    2.4460   -8.2516 C   0  0  0  0  0  0  0  0  0  0  0  0
   -2.5835   -0.8263   -7.7487 C   0  0  0  0  0  0  0  0  0  0  0  0
   -3.5017   -1.6059   -7.0071 C   0  0  0  0  0  0  0  0  0  0  0  0
   -4.8293   -1.1648   -6.8647 C   0  0  0  0  0  0  0  0  0  0  0  0
   -5.8128   -1.9516   -6.1076 C   0  0  0  0  0  0  0  0  0  0  0  0
   -6.5204   -1.3969   -5.0439 C   0  0  0  0  0  0  0  0  0  0  0  0
   -7.4597   -2.1302   -4.3453 C   0  0  0  0  0  0  0  0  0  0  0  0
   -7.7279   -3.4512   -4.6887 C   0  0  0  0  0  0  0  0  0  0  0  0
   -8.8956   -4.4908   -3.8756 S   0  0  0  0  0  0  0  0  0  0  0  0
  -10.0002   -3.3252   -3.0067 C   0  0  0  0  0  0  0  0  0  0  0  0
  -10.8355   -2.5027   -3.9678 C   0  0  0  0  0  0  0  0  0  0  0  0
   -6.9843   -4.0069   -5.7317 C   0  0  0  0  0  0  0  0  0  0  0  0
   -6.0426   -3.2868   -6.4329 C   0  0  0  0  0  0  0  0  0  0  0  0
   -7.1922   -5.2950   -6.0718 F   0  0  0  0  0  0  0  0  0  0  0  0
   -5.1084    0.1010   -7.3522 C   0  0  0  0  0  0  0  0  0  0  0  0
   -6.5901    0.9702   -7.0455 S   0  0  0  0  0  0  0  0  0  0  0  0
   -2.8513   -2.6318   -6.2699 C   0  0  0  0  0  0  0  0  0  0  0  0
   -1.4998   -2.6494   -6.4417 C   0  0  0  0  0  0  0  0  0  0  0  0
   -0.9721   -1.4894   -7.6566 S   0  0  0  0  0  0  0  0  0  0  0  0
   -0.4871   -3.2058   -5.6023 C   0  0  0  0  0  0  0  0  0  0  0  0
    0.8573   -3.1395   -5.8129 C   0  0  0  0  0  0  0  0  0  0  0  0
    1.6308   -3.3493   -4.6444 C   0  0  0  0  0  0  0  0  0  0  0  0
    3.0191   -3.1824   -4.5132 C   0  0  0  0  0  0  0  0  0  0  0  0
    3.8355   -2.9078   -5.7028 C   0  0  0  0  0  0  0  0  0  0  0  0
    3.7799   -3.7421   -6.8179 C   0  0  0  0  0  0  0  0  0  0  0  0
    4.5011   -3.4435   -7.9546 C   0  0  0  0  0  0  0  0  0  0  0  0
    5.2836   -2.2940   -8.0318 C   0  0  0  0  0  0  0  0  0  0  0  0
    6.1055   -1.9566   -9.5641 S   0  0  0  0  0  0  0  0  0  0  0  0
    7.7714   -1.4020   -9.0440 C   0  0  0  0  0  0  0  0  0  0  0  0
    8.4703   -2.4375   -8.1871 C   0  0  0  0  0  0  0  0  0  0  0  0
    5.3147   -1.4610   -6.9182 C   0  0  0  0  0  0  0  0  0  0  0  0
    6.0130   -0.3051   -6.9420 F   0  0  0  0  0  0  0  0  0  0  0  0
    4.6246   -1.7642   -5.7625 C   0  0  0  0  0  0  0  0  0  0  0  0
    3.5222   -3.1744   -3.2226 C   0  0  0  0  0  0  0  0  0  0  0  0
    2.7038   -3.3479   -2.0787 C   0  0  0  0  0  0  0  0  0  0  0  0
    1.3257   -3.5951   -2.2150 C   0  0  0  0  0  0  0  0  0  0  0  0
    0.4835   -3.7525   -1.0228 C   0  0  0  0  0  0  0  0  0  0  0  0
   -0.6584   -2.9745   -0.8401 C   0  0  0  0  0  0  0  0  0  0  0  0
   -1.4011   -3.0801    0.3140 C   0  0  0  0  0  0  0  0  0  0  0  0
   -1.0451   -3.9561    1.3416 C   0  0  0  0  0  0  0  0  0  0  0  0
   -2.0472   -3.8871    2.7947 S   0  0  0  0  0  0  0  0  0  0  0  0
   -1.9000   -5.5055    3.6259 C   0  0  0  0  0  0  0  0  0  0  0  0
   -2.4356   -6.6451    2.7848 C   0  0  0  0  0  0  0  0  0  0  0  0
    0.0954   -4.7284    1.1425 C   0  0  0  0  0  0  0  0  0  0  0  0
    0.8428   -4.6415   -0.0156 C   0  0  0  0  0  0  0  0  0  0  0  0
    0.5339   -5.5919    2.0864 F   0  0  0  0  0  0  0  0  0  0  0  0
    0.8184   -3.5714   -3.5047 C   0  0  0  0  0  0  0  0  0  0  0  0
   -0.8714   -3.6598   -3.9483 S   0  0  0  0  0  0  0  0  0  0  0  0
    3.4238   -3.1104   -0.8799 C   0  0  0  0  0  0  0  0  0  0  0  0
    4.7386   -2.8176   -1.0775 C   0  0  0  0  0  0  0  0  0  0  0  0
    5.1806   -2.8586   -2.7745 S   0  0  0  0  0  0  0  0  0  0  0  0
    5.6881   -2.4060   -0.0918 C   0  0  0  0  0  0  0  0  0  0  0  0
    7.0456   -2.3706   -0.1767 C   0  0  0  0  0  0  0  0  0  0  0  0
    7.6722   -1.8301    0.9785 C   0  0  0  0  0  0  0  0  0  0  0  0
    9.0423   -1.6184    1.1978 C   0  0  0  0  0  0  0  0  0  0  0  0
   10.0479   -2.0533    0.2223 C   0  0  0  0  0  0  0  0  0  0  0  0
   10.0500   -3.3567   -0.2741 C   0  0  0  0  0  0  0  0  0  0  0  0
   11.0034   -3.7602   -1.1821 C   0  0  0  0  0  0  0  0  0  0  0  0
   11.9845   -2.8833   -1.6477 C   0  0  0  0  0  0  0  0  0  0  0  0
   13.1073   -3.5195   -2.8496 S   0  0  0  0  0  0  0  0  0  0  0  0
   14.6399   -2.5311   -2.6269 C   0  0  0  0  0  0  0  0  0  0  0  0
   15.8025   -3.2992   -3.2240 C   0  0  0  0  0  0  0  0  0  0  0  0
   11.9569   -1.5804   -1.1586 C   0  0  0  0  0  0  0  0  0  0  0  0
   12.8429   -0.6543   -1.5907 F   0  0  0  0  0  0  0  0  0  0  0  0
   11.0223   -1.1705   -0.2296 C   0  0  0  0  0  0  0  0  0  0  0  0
    9.3906   -0.9799    2.3802 C   0  0  0  0  0  0  0  0  0  0  0  0
    8.4415   -0.5260    3.3266 C   0  0  0  0  0  0  0  0  0  0  0  0
    7.0705   -0.7159    3.0985 C   0  0  0  0  0  0  0  0  0  0  0  0
    6.0370   -0.1155    3.9500 C   0  0  0  0  0  0  0  0  0  0  0  0
    6.1009    1.2387    4.2704 C   0  0  0  0  0  0  0  0  0  0  0  0
    5.0646    1.8709    4.9314 C   0  0  0  0  0  0  0  0  0  0  0  0
    3.9228    1.1681    5.3021 C   0  0  0  0  0  0  0  0  0  0  0  0
    2.5005    1.8664    6.0510 S   0  0  0  0  0  0  0  0  0  0  0  0
    2.9680    3.6108    6.3571 C   0  0  0  0  0  0  0  0  0  0  0  0
    1.8255    4.2743    7.0990 C   0  0  0  0  0  0  0  0  0  0  0  0
    3.8939   -0.1998    5.0170 C   0  0  0  0  0  0  0  0  0  0  0  0
    4.9163   -0.8393    4.3557 C   0  0  0  0  0  0  0  0  0  0  0  0
    2.8162   -0.9221    5.3868 F   0  0  0  0  0  0  0  0  0  0  0  0
    6.7253   -1.4051    1.9426 C   0  0  0  0  0  0  0  0  0  0  0  0
    5.0976   -1.7634    1.4293 S   0  0  0  0  0  0  0  0  0  0  0  0
    9.0750    0.0603    4.4629 C   0  0  0  0  0  0  0  0  0  0  0  0
   10.4204    0.0541    4.3776 C   0  0  0  0  0  0  0  0  0  0  0  0
   11.0193   -0.6533    2.9168 S   0  0  0  0  0  0  0  0  0  0  0  0
    3.6531   -5.8486   10.3800 H   0  0  0  0  0  0  0  0  0  0  0  0
    3.9214   -3.2811   10.0062 H   0  0  0  0  0  0  0  0  0  0  0  0
    4.3659   -2.1560    7.7655 H   0  0  0  0  0  0  0  0  0  0  0  0
    6.0557   -0.4142    7.7844 H   0  0  0  0  0  0  0  0  0  0  0  0
    7.8137    1.0486    8.3381 H   0  0  0  0  0  0  0  0  0  0  0  0
    6.9475    1.3918    6.8076 H   0  0  0  0  0  0  0  0  0  0  0  0
    8.6150    3.4157    8.3923 H   0  0  0  0  0  0  0  0  0  0  0  0
    7.7721    3.7406    6.8769 H   0  0  0  0  0  0  0  0  0  0  0  0
    9.1368    2.6168    6.9039 H   0  0  0  0  0  0  0  0  0  0  0  0
    1.5716    0.5033    9.6249 H   0  0  0  0  0  0  0  0  0  0  0  0
   -2.7551   -4.0934    8.1033 H   0  0  0  0  0  0  0  0  0  0  0  0
   -4.3051   -5.8885    7.4528 H   0  0  0  0  0  0  0  0  0  0  0  0
   -2.5568  -10.2149    5.6099 H   0  0  0  0  0  0  0  0  0  0  0  0
   -2.4830   -9.8352    7.3493 H   0  0  0  0  0  0  0  0  0  0  0  0
   -4.8613  -11.1404    5.9255 H   0  0  0  0  0  0  0  0  0  0  0  0
   -4.7698  -10.7832    7.6518 H   0  0  0  0  0  0  0  0  0  0  0  0
   -3.6941  -11.9950    6.9418 H   0  0  0  0  0  0  0  0  0  0  0  0
    0.5103   -6.4270    6.6044 H   0  0  0  0  0  0  0  0  0  0  0  0
   -2.0986   -2.7654    6.1757 H   0  0  0  0  0  0  0  0  0  0  0  0
   -1.2163    1.9445    5.9861 H   0  0  0  0  0  0  0  0  0  0  0  0
   -1.5688    5.4881    3.0035 H   0  0  0  0  0  0  0  0  0  0  0  0
   -0.6242    7.2388    4.6080 H   0  0  0  0  0  0  0  0  0  0  0  0
   -1.5290    7.2735    9.7372 H   0  0  0  0  0  0  0  0  0  0  0  0
   -2.5080    6.1592    8.7546 H   0  0  0  0  0  0  0  0  0  0  0  0
   -1.2445    4.9367   10.5556 H   0  0  0  0  0  0  0  0  0  0  0  0
    0.2782    5.5472    9.8931 H   0  0  0  0  0  0  0  0  0  0  0  0
   -0.7102    4.4237    8.9512 H   0  0  0  0  0  0  0  0  0  0  0  0
   -3.4363   -1.5567    2.3354 H   0  0  0  0  0  0  0  0  0  0  0  0
   -4.6526   -3.2643    0.9690 H   0  0  0  0  0  0  0  0  0  0  0  0
   -5.8802   -4.6133   -0.3618 H   0  0  0  0  0  0  0  0  0  0  0  0
   -6.8792   -4.6169   -1.8263 H   0  0  0  0  0  0  0  0  0  0  0  0
   -4.4526   -4.3565   -2.4038 H   0  0  0  0  0  0  0  0  0  0  0  0
   -5.3879   -2.9369   -2.8894 H   0  0  0  0  0  0  0  0  0  0  0  0
   -4.3789   -2.8795   -1.4412 H   0  0  0  0  0  0  0  0  0  0  0  0
   -5.9224    2.2768    0.6132 H   0  0  0  0  0  0  0  0  0  0  0  0
   -4.0697    5.9355   -1.0241 H   0  0  0  0  0  0  0  0  0  0  0  0
   -4.2673    7.9870   -2.2090 H   0  0  0  0  0  0  0  0  0  0  0  0
   -2.0122    9.0756   -2.7296 H   0  0  0  0  0  0  0  0  0  0  0  0
   -0.4716    6.7020   -6.6742 H   0  0  0  0  0  0  0  0  0  0  0  0
    1.1533    7.4221   -6.6379 H   0  0  0  0  0  0  0  0  0  0  0  0
    1.7109    6.0826   -4.6045 H   0  0  0  0  0  0  0  0  0  0  0  0
    1.2277    5.0258   -5.9416 H   0  0  0  0  0  0  0  0  0  0  0  0
    0.0943    5.3625   -4.6282 H   0  0  0  0  0  0  0  0  0  0  0  0
   -8.1795    1.5746   -4.1524 H   0  0  0  0  0  0  0  0  0  0  0  0
  -10.3987    0.4766   -3.5095 H   0  0  0  0  0  0  0  0  0  0  0  0
  -12.6943    3.8798   -0.9228 H   0  0  0  0  0  0  0  0  0  0  0  0
  -14.2290    2.9781   -0.8709 H   0  0  0  0  0  0  0  0  0  0  0  0
  -14.3875    4.8949   -2.4807 H   0  0  0  0  0  0  0  0  0  0  0  0
  -13.0138    4.2484   -3.3849 H   0  0  0  0  0  0  0  0  0  0  0  0
  -14.5338    3.3463   -3.3248 H   0  0  0  0  0  0  0  0  0  0  0  0
   -8.0952    2.9693   -5.9039 H   0  0  0  0  0  0  0  0  0  0  0  0
   -3.9783    3.0986   -8.4039 H   0  0  0  0  0  0  0  0  0  0  0  0
   -1.2762   -0.2435  -10.2874 H   0  0  0  0  0  0  0  0  0  0  0  0
    0.7510    0.8668  -11.0469 H   0  0  0  0  0  0  0  0  0  0  0  0
    2.7263    1.5468  -11.5568 H   0  0  0  0  0  0  0  0  0  0  0  0
    4.0787    2.5272  -10.9758 H   0  0  0  0  0  0  0  0  0  0  0  0
    4.1548    0.2258   -9.9806 H   0  0  0  0  0  0  0  0  0  0  0  0
    2.5653    0.4873   -9.2545 H   0  0  0  0  0  0  0  0  0  0  0  0
    3.9425    1.4644   -8.7374 H   0  0  0  0  0  0  0  0  0  0  0  0
   -1.9340    2.8956   -7.4420 H   0  0  0  0  0  0  0  0  0  0  0  0
   -6.3134   -0.3843   -4.7344 H   0  0  0  0  0  0  0  0  0  0  0  0
   -7.9693   -1.6696   -3.5143 H   0  0  0  0  0  0  0  0  0  0  0  0
  -10.6310   -3.9797   -2.4054 H   0  0  0  0  0  0  0  0  0  0  0  0
   -9.4047   -2.7095   -2.3345 H   0  0  0  0  0  0  0  0  0  0  0  0
  -10.2035   -1.8920   -4.6103 H   0  0  0  0  0  0  0  0  0  0  0  0
  -11.4362   -3.1535   -4.5994 H   0  0  0  0  0  0  0  0  0  0  0  0
  -11.5031   -1.8509   -3.4066 H   0  0  0  0  0  0  0  0  0  0  0  0
   -5.5094   -3.7613   -7.2420 H   0  0  0  0  0  0  0  0  0  0  0  0
   -3.3597   -3.2650   -5.5638 H   0  0  0  0  0  0  0  0  0  0  0  0
    1.2821   -2.8614   -6.7613 H   0  0  0  0  0  0  0  0  0  0  0  0
    3.1800   -4.6388   -6.7824 H   0  0  0  0  0  0  0  0  0  0  0  0
    4.4640   -4.0957   -8.8132 H   0  0  0  0  0  0  0  0  0  0  0  0
    7.6818   -0.4443   -8.5360 H   0  0  0  0  0  0  0  0  0  0  0  0
    8.2922   -1.2558   -9.9903 H   0  0  0  0  0  0  0  0  0  0  0  0
    9.4834   -2.1069   -7.9677 H   0  0  0  0  0  0  0  0  0  0  0  0
    8.5189   -3.3934   -8.7048 H   0  0  0  0  0  0  0  0  0  0  0  0
    7.9451   -2.5809   -7.2443 H   0  0  0  0  0  0  0  0  0  0  0  0
    4.6755   -1.0768   -4.9329 H   0  0  0  0  0  0  0  0  0  0  0  0
   -0.9512   -2.2626   -1.5956 H   0  0  0  0  0  0  0  0  0  0  0  0
   -2.2728   -2.4602    0.4507 H   0  0  0  0  0  0  0  0  0  0  0  0
   -0.8643   -5.6599    3.9188 H   0  0  0  0  0  0  0  0  0  0  0  0
   -2.5041   -5.3669    4.5234 H   0  0  0  0  0  0  0  0  0  0  0  0
   -2.3837   -7.5694    3.3554 H   0  0  0  0  0  0  0  0  0  0  0  0
   -1.8502   -6.7708    1.8764 H   0  0  0  0  0  0  0  0  0  0  0  0
   -3.4730   -6.4639    2.5115 H   0  0  0  0  0  0  0  0  0  0  0  0
    1.7102   -5.2758   -0.1171 H   0  0  0  0  0  0  0  0  0  0  0  0
    2.9738   -3.1152    0.0968 H   0  0  0  0  0  0  0  0  0  0  0  0
    7.5832   -2.7024   -1.0470 H   0  0  0  0  0  0  0  0  0  0  0  0
    9.3154   -4.0635    0.0807 H   0  0  0  0  0  0  0  0  0  0  0  0
   11.0089   -4.7731   -1.5539 H   0  0  0  0  0  0  0  0  0  0  0  0
   14.5070   -1.5712   -3.1235 H   0  0  0  0  0  0  0  0  0  0  0  0
   14.7748   -2.3795   -1.5571 H   0  0  0  0  0  0  0  0  0  0  0  0
   16.7194   -2.7264   -3.1044 H   0  0  0  0  0  0  0  0  0  0  0  0
   15.9219   -4.2601   -2.7285 H   0  0  0  0  0  0  0  0  0  0  0  0
   15.6380   -3.4766   -4.2844 H   0  0  0  0  0  0  0  0  0  0  0  0
   11.0459   -0.1454    0.1060 H   0  0  0  0  0  0  0  0  0  0  0  0
    6.9554    1.8196    3.9559 H   0  0  0  0  0  0  0  0  0  0  0  0
    5.1414    2.9260    5.1377 H   0  0  0  0  0  0  0  0  0  0  0  0
    3.1413    4.0889    5.3928 H   0  0  0  0  0  0  0  0  0  0  0  0
    3.8757    3.6185    6.9598 H   0  0  0  0  0  0  0  0  0  0  0  0
    2.0393    5.3302    7.2465 H   0  0  0  0  0  0  0  0  0  0  0  0
    1.6863    3.8063    8.0698 H   0  0  0  0  0  0  0  0  0  0  0  0
    0.9010    4.1841    6.5293 H   0  0  0  0  0  0  0  0  0  0  0  0
    4.8338   -1.8970    4.1617 H   0  0  0  0  0  0  0  0  0  0  0  0
    8.5328    0.4418    5.3085 H   0  0  0  0  0  0  0  0  0  0  0  0
   11.1287    0.4253    5.0926 H   0  0  0  0  0  0  0  0  0  0  0  0
  1  2  2  0  0  0  0
  2  3  1  0  0  0  0
  3  4  2  0  0  0  0
  4  5  1  0  0  0  0
  5  6  2  0  0  0  0
  6  7  1  0  0  0  0
  7  8  2  0  0  0  0
  8  9  1  0  0  0  0
  9 10  1  0  0  0  0
 10 11  1  0  0  0  0
  8 12  1  0  0  0  0
 12 13  1  0  0  0  0
 12 14  2  0  0  0  0
  4 15  1  0  0  0  0
 15 16  2  0  0  0  0
 16 17  1  0  0  0  0
 17 18  1  0  0  0  0
 18 19  2  0  0  0  0
 19 20  1  0  0  0  0
 20 21  2  0  0  0  0
 21 22  1  0  0  0  0
 22 23  1  0  0  0  0
 23 24  1  0  0  0  0
 21 25  1  0  0  0  0
 25 26  2  0  0  0  0
 25 27  1  0  0  0  0
 17 28  2  0  0  0  0
 28 29  1  0  0  0  0
 16 30  1  0  0  0  0
 30 31  2  0  0  0  0
 31 32  1  0  0  0  0
 31 33  1  0  0  0  0
 33 34  2  0  0  0  0
 34 35  1  0  0  0  0
 35 36  2  0  0  0  0
 36 37  1  0  0  0  0
 37 38  2  0  0  0  0
 38 39  1  0  0  0  0
 39 40  2  0  0  0  0
 40 41  1  0  0  0  0
 41 42  1  0  0  0  0
 42 43  1  0  0  0  0
 40 44  1  0  0  0  0
 36 45  1  0  0  0  0
 45 46  2  0  0  0  0
 46 47  1  0  0  0  0
 47 48  1  0  0  0  0
 48 49  2  0  0  0  0
 49 50  1  0  0  0  0
 50 51  2  0  0  0  0
 51 52  1  0  0  0  0
 52 53  1  0  0  0  0
 53 54  1  0  0  0  0
 51 55  1  0  0  0  0
 47 56  2  0  0  0  0
 56 57  1  0  0  0  0
 46 58  1  0  0  0  0
 58 59  2  0  0  0  0
 59 60  1  0  0  0  0
 59 61  1  0  0  0  0
 61 62  2  0  0  0  0
 62 63  1  0  0  0  0
 63 64  2  0  0  0  0
 64 65  1  0  0  0  0
 65 66  2  0  0  0  0
 66 67  1  0  0  0  0
 67 68  2  0  0  0  0
 68 69  1  0  0  0  0
 69 70  1  0  0  0  0
 70 71  1  0  0  0  0
 68 72  1  0  0  0  0
 64 73  1  0  0  0  0
 73 74  2  0  0  0  0
 74 75  1  0  0  0  0
 75 76  1  0  0  0  0
 76 77  2  0  0  0  0
 77 78  1  0  0  0  0
 78 79  2  0  0  0  0
 79 80  1  0  0  0  0
 80 81  1  0  0  0  0
 81 82  1  0  0  0  0
 79 83  1  0  0  0  0
 75 84  2  0  0  0  0
 84 85  1  0  0  0  0
 74 86  1  0  0  0  0
 86 87  2  0  0  0  0
 87 88  1  0  0  0  0
 87 89  1  0  0  0  0
 89 90  2  0  0  0  0
 90 91  1  0  0  0  0
 91 92  2  0  0  0  0
 92 93  1  0  0  0  0
 93 94  2  0  0  0  0
 94 95  1  0  0  0  0
 95 96  2  0  0  0  0
 96 97  1  0  0  0  0
 97 98  1  0  0  0  0
 98 99  1  0  0  0  0
 96100  1  0  0  0  0
100101  1  0  0  0  0
100102  2  0  0  0  0
 92103  1  0  0  0  0
103104  2  0  0  0  0
104105  1  0  0  0  0
105106  1  0  0  0  0
106107  2  0  0  0  0
107108  1  0  0  0  0
108109  2  0  0  0  0
109110  1  0  0  0  0
110111  1  0  0  0  0
111112  1  0  0  0  0
109113  1  0  0  0  0
113114  2  0  0  0  0
113115  1  0  0  0  0
105116  2  0  0  0  0
116117  1  0  0  0  0
104118  1  0  0  0  0
118119  2  0  0  0  0
119120  1  0  0  0  0
119121  1  0  0  0  0
121122  2  0  0  0  0
122123  1  0  0  0  0
123124  2  0  0  0  0
124125  1  0  0  0  0
125126  2  0  0  0  0
126127  1  0  0  0  0
127128  2  0  0  0  0
128129  1  0  0  0  0
129130  1  0  0  0  0
130131  1  0  0  0  0
128132  1  0  0  0  0
132133  1  0  0  0  0
132134  2  0  0  0  0
124135  1  0  0  0  0
135136  2  0  0  0  0
136137  1  0  0  0  0
137138  1  0  0  0  0
138139  2  0  0  0  0
139140  1  0  0  0  0
140141  2  0  0  0  0
141142  1  0  0  0  0
142143  1  0  0  0  0
143144  1  0  0  0  0
141145  1  0  0  0  0
145146  2  0  0  0  0
145147  1  0  0  0  0
137148  2  0  0  0  0
148149  1  0  0  0  0
136150  1  0  0  0  0
150151  2  0  0  0  0
151152  1  0  0  0  0
151153  1  0  0  0  0
153154  2  0  0  0  0
154155  1  0  0  0  0
155156  2  0  0  0  0
156157  1  0  0  0  0
157158  2  0  0  0  0
158159  1  0  0  0  0
159160  2  0  0  0  0
160161  1  0  0  0  0
161162  1  0  0  0  0
162163  1  0  0  0  0
160164  1  0  0  0  0
164165  1  0  0  0  0
164166  2  0  0  0  0
156167  1  0  0  0  0
167168  2  0  0  0  0
168169  1  0  0  0  0
169170  1  0  0  0  0
170171  2  0  0  0  0
171172  1  0  0  0  0
172173  2  0  0  0  0
173174  1  0  0  0  0
174175  1  0  0  0  0
175176  1  0  0  0  0
173177  1  0  0  0  0
177178  2  0  0  0  0
177179  1  0  0  0  0
169180  2  0  0  0  0
180181  1  0  0  0  0
168182  1  0  0  0  0
182183  2  0  0  0  0
183184  1  0  0  0  0
 29  1  1  0  0  0  0
 57 33  1  0  0  0  0
 85 61  1  0  0  0  0
117 89  1  0  0  0  0
149121  1  0  0  0  0
181153  1  0  0  0  0
 28  3  1  0  0  0  0
 56 35  1  0  0  0  0
 84 63  1  0  0  0  0
116 91  1  0  0  0  0
148123  1  0  0  0  0
180155  1  0  0  0  0
 14  5  1  0  0  0  0
 32 15  1  0  0  0  0
 44 37  1  0  0  0  0
 60 45  1  0  0  0  0
 72 65  1  0  0  0  0
 88 73  1  0  0  0  0
102 93  1  0  0  0  0
120103  1  0  0  0  0
134125  1  0  0  0  0
152135  1  0  0  0  0
166157  1  0  0  0  0
184167  1  0  0  0  0
 26 18  1  0  0  0  0
 55 48  1  0  0  0  0
 83 76  1  0  0  0  0
114106  1  0  0  0  0
146138  1  0  0  0  0
178170  1  0  0  0  0
  1185  1  0  0  0  0
  2186  1  0  0  0  0
  6187  1  0  0  0  0
  7188  1  0  0  0  0
 10189  1  0  0  0  0
 10190  1  0  0  0  0
 11191  1  0  0  0  0
 11192  1  0  0  0  0
 11193  1  0  0  0  0
 14194  1  0  0  0  0
 19195  1  0  0  0  0
 20196  1  0  0  0  0
 23197  1  0  0  0  0
 23198  1  0  0  0  0
 24199  1  0  0  0  0
 24200  1  0  0  0  0
 24201  1  0  0  0  0
 26202  1  0  0  0  0
 30203  1  0  0  0  0
 34204  1  0  0  0  0
 38205  1  0  0  0  0
 39206  1  0  0  0  0
 42207  1  0  0  0  0
 42208  1  0  0  0  0
 43209  1  0  0  0  0
 43210  1  0  0  0  0
 43211  1  0  0  0  0
 49212  1  0  0  0  0
 50213  1  0  0  0  0
 53214  1  0  0  0  0
 53215  1  0  0  0  0
 54216  1  0  0  0  0
 54217  1  0  0  0  0
 54218  1  0  0  0  0
 58219  1  0  0  0  0
 62220  1  0  0  0  0
 66221  1  0  0  0  0
 67222  1  0  0  0  0
 70223  1  0  0  0  0
 70224  1  0  0  0  0
 71225  1  0  0  0  0
 71226  1  0  0  0  0
 71227  1  0  0  0  0
 77228  1  0  0  0  0
 78229  1  0  0  0  0
 81230  1  0  0  0  0
 81231  1  0  0  0  0
 82232  1  0  0  0  0
 82233  1  0  0  0  0
 82234  1  0  0  0  0
 86235  1  0  0  0  0
 90236  1  0  0  0  0
 94237  1  0  0  0  0
 95238  1  0  0  0  0
 98239  1  0  0  0  0
 98240  1  0  0  0  0
 99241  1  0  0  0  0
 99242  1  0  0  0  0
 99243  1  0  0  0  0
102244  1  0  0  0  0
107245  1  0  0  0  0
108246  1  0  0  0  0
111247  1  0  0  0  0
111248  1  0  0  0  0
112249  1  0  0  0  0
112250  1  0  0  0  0
112251  1  0  0  0  0
114252  1  0  0  0  0
118253  1  0  0  0  0
122254  1  0  0  0  0
126255  1  0  0  0  0
127256  1  0  0  0  0
130257  1  0  0  0  0
130258  1  0  0  0  0
131259  1  0  0  0  0
131260  1  0  0  0  0
131261  1  0  0  0  0
134262  1  0  0  0  0
139263  1  0  0  0  0
140264  1  0  0  0  0
143265  1  0  0  0  0
143266  1  0  0  0  0
144267  1  0  0  0  0
144268  1  0  0  0  0
144269  1  0  0  0  0
146270  1  0  0  0  0
150271  1  0  0  0  0
154272  1  0  0  0  0
158273  1  0  0  0  0
159274  1  0  0  0  0
162275  1  0  0  0  0
162276  1  0  0  0  0
163277  1  0  0  0  0
163278  1  0  0  0  0
163279  1  0  0  0  0
166280  1  0  0  0  0
171281  1  0  0  0  0
172282  1  0  0  0  0
175283  1  0  0  0  0
175284  1  0  0  0  0
176285  1  0  0  0  0
176286  1  0  0  0  0
176287  1  0  0  0  0
178288  1  0  0  0  0
182289  1  0  0  0  0
183290  1  0  0  0  0
M  END
