138

C          5.59780        8.80970       10.94840
S          5.96690       10.49130       10.94370
C          5.42520       10.66770        9.30940
C          4.99220        9.48960        8.82070
C          5.08270        8.40920        9.74850
C          4.63160        7.13920        9.24780
C          4.18120        7.16360        7.97950
S          4.30250        8.84400        7.30020
O          3.00230        9.39690        7.04520
O          5.25910        8.88720        6.22930
C          3.70300        6.14470        7.12880
C          3.27500        6.33050        5.84460
C          2.89640        5.13700        5.18990
C          2.39380        4.99960        3.87320
C          2.38640        6.10080        2.94560
C          3.28140        7.13830        2.86340
C          3.04520        8.08570        1.85440
C          1.94410        7.84700        1.07740
S          1.48460        8.85880       -0.27040
C          0.01140        7.99480       -0.92160
C         -1.23860        8.29570       -0.11890
Se         1.06660        6.26970        1.60840
C          1.92590        3.73060        3.54070
C          2.01500        2.60960        4.40010
C          2.58630        2.72720        5.68730
C          2.70920        1.61000        6.59770
C          3.70630        1.40520        7.51420
C          3.58760        0.26670        8.33120
C          2.46850       -0.48760        8.11750
S          2.07650       -1.94300        8.99670
C          0.73400       -2.62090        7.94790
C          0.31630       -3.98290        8.46170
Se         1.39740        0.25700        6.76540
C          3.00580        4.00870        6.04310
S          3.64410        4.45890        7.60380
C          1.49790        1.44440        3.79030
C          0.99180        1.64840        2.53930
S          1.18660        3.30460        2.02030
C          0.34590        0.67700        1.72210
C         -0.00720       -0.58880        2.09480
C         -0.66250       -1.31990        1.07870
C         -1.13490       -2.65050        1.13890
C         -1.14540       -3.37440        2.38770
C         -1.42230       -2.85940        3.62610
C         -1.33700       -3.75720        4.70420
C         -0.98780       -5.03530        4.36650
S         -0.87320       -6.33010        5.53660
C         -0.18390       -7.69430        4.53940
C          1.30150       -7.53090        4.28970
Se        -0.75410       -5.21330        2.50290
C         -1.60680       -3.18270       -0.05540
C         -1.70700       -2.43760       -1.25570
C         -1.27560       -1.09330       -1.30480
C         -1.33190       -0.31980       -2.52220
C         -1.07310       -0.73910       -3.80000
C         -1.22470        0.22520       -4.81210
C         -1.62570        1.45960       -4.37850
S         -1.94610        2.79830       -5.45340
C         -2.24600        4.16970       -4.28360
C         -0.96640        4.71580       -3.68230
Se        -1.83500        1.49530       -2.50720
C         -0.76840       -0.57380       -0.11850
S         -0.11200        1.02890        0.07290
C         -2.29960       -3.18900       -2.29410
C         -2.58890       -4.48060       -1.94990
S         -2.19740       -4.80850       -0.27150
C         -3.12120       -5.50290       -2.78310
S         -3.84150       -6.94110       -2.10420
C         -4.18710       -7.59390       -3.66790
C         -3.77130       -6.75790       -4.63930
C         -3.15410       -5.56460       -4.16970
C         -2.66470       -4.71020       -5.20220
C         -2.86500       -5.13960       -6.47030
S         -3.73060       -6.73740       -6.42750
O         -5.04620       -6.61990       -6.98790
O         -2.90600       -7.80530       -6.92870
C         -2.51920       -4.48000       -7.66730
S         -1.84720       -2.85530       -7.64000
C         -1.72160       -2.80440       -9.36360
C         -2.16270       -3.95210       -9.91510
C         -2.62330       -4.91830       -8.97800
C         -3.06670       -6.15340       -9.54370
C         -2.95870       -6.23520      -10.88660
S         -2.32210       -4.67060      -11.55350
O         -1.03330       -4.85640      -12.15410
O         -3.32550       -3.99200      -12.32030
C         -3.23330       -7.29110      -11.78240
S         -3.22010       -6.95810      -13.49460
C         -3.58690       -8.60430      -13.87140
C         -3.70070       -9.35210      -12.75050
C         -3.50080       -8.63260      -11.54780
C         -3.58030       -9.43740      -10.34830
C         -3.85430      -10.72290      -10.56060
S         -4.03440      -11.06320      -12.31920
O         -5.38480      -11.42190      -12.64660
O         -2.98570      -11.92570      -12.78390
H          5.78150        8.22590       11.82790
H          5.46740       11.62540        8.83200
H          4.66450        6.24820        9.85570
H          3.20030        7.31370        5.41970
H          4.15180        7.20330        3.49380
H          3.68750        8.93410        1.69430
H         -0.08380        8.34890       -1.94790
H          0.24330        6.92510       -0.92690
H         -1.43520        9.36490       -0.10940
H         -2.09290        7.78460       -0.55810
H         -1.12570        7.95420        0.91050
H          4.57130        2.04350        7.56950
H          4.32780       -0.00500        9.06340
H         -0.09460       -1.90670        7.97900
H          1.12290       -2.68250        6.92780
H         -0.44430       -4.41270        7.81340
H         -0.08330       -3.90450        9.46980
H          1.16990       -4.65620        8.48000
H          1.52140        0.46790        4.24040
H          0.22120       -0.99460        3.06200
H         -1.73400       -1.83800        3.76510
H         -1.53960       -3.46460        5.71990
H         -0.39160       -8.59280        5.11960
H         -0.75300       -7.72850        3.60520
H          1.49920       -6.61630        3.73000
H          1.67200       -8.37460        3.71170
H          1.84240       -7.48580        5.23190
H         -0.70520       -1.72860       -4.01470
H         -1.03790        0.01200       -5.85040
H         -2.92780        3.79340       -3.51440
H         -2.75820        4.92750       -4.87580
H         -1.19980        5.54400       -3.01630
H         -0.44970        3.94750       -3.10640
H         -0.29990        5.07040       -4.46470
H         -2.56230       -2.76250       -3.24230
H         -4.67120       -8.54520       -3.75530
H         -2.14860       -3.78770       -4.99250
H         -1.33010       -1.93050       -9.84390
H         -3.45340       -6.93900       -8.92150
H         -3.69500       -8.91480      -14.89130
H         -3.41240       -9.01410       -9.36990
H         -3.95390      -11.50030       -9.83030
