272

C         -9.64430      -18.90690        8.55750
C         -9.73130      -17.57660        8.75590
C         -9.29910      -16.81520        7.63010
C         -9.22260      -15.41360        7.50880
C         -9.47390      -14.52780        8.62440
C         -9.11520      -14.71150        9.93160
C         -9.44530      -13.66840       10.81880
C        -10.09600      -12.61030       10.25110
S        -10.67100      -11.22480       11.14970
C        -10.95450      -10.01000        9.81370
C         -9.66280       -9.47030        9.23420
Se       -10.36680      -12.88210        8.40510
C         -8.84920      -14.93130        6.25840
C         -8.48230      -15.76010        5.17340
C         -8.47330      -17.16170        5.32150
C         -7.98850      -18.04360        4.28330
C         -8.44400      -19.29230        3.95870
C         -7.72760      -19.97830        2.96050
C         -6.64690      -19.30840        2.46020
S         -5.59180      -19.93290        1.21590
C         -4.43990      -18.52260        1.02250
C         -3.40130      -18.83960       -0.03320
Se        -6.45310      -17.62130        3.26540
C         -8.91880      -17.64730        6.55190
S         -9.04430      -19.33080        6.99270
C         -8.15530      -15.00080        4.02060
C         -8.22820      -13.65470        4.21100
S         -8.72030      -13.24480        5.84180
C         -7.91910      -12.61300        3.29290
C         -8.04610      -11.27190        3.49620
C         -7.57020      -10.48220        2.42250
C         -7.54150       -9.07450        2.32340
C         -7.90720       -8.21670        3.42660
C         -7.71400       -8.44840        4.76430
C         -8.12670       -7.42980        5.64110
C         -8.67030       -6.33060        5.03600
S         -9.27930       -4.93210        5.88120
C         -9.33550       -3.72690        4.50140
C         -9.72320       -2.35420        5.00640
Se        -8.71000       -6.52820        3.16320
C         -7.07010       -8.56620        1.11530
C         -6.57610       -9.35920        0.05280
C         -6.62320      -10.76780        0.14850
C         -6.21240      -11.61350       -0.94690
C         -6.37250      -11.37240       -2.28510
C         -5.85410      -12.34490       -3.15980
C         -5.25440      -13.41010       -2.54950
S         -4.60400      -14.77560       -3.42770
C         -3.68860      -15.66150       -2.11940
C         -2.39180      -14.96790       -1.75500
Se        -5.34320      -13.26360       -0.67100
C         -7.10510      -11.28030        1.35030
S         -7.23690      -12.97940        1.72280
C         -6.00450       -8.56560       -0.97680
C         -6.10620       -7.22690       -0.75200
S         -6.91200       -6.87160        0.76530
C         -5.58320       -6.11740       -1.47750
C         -5.85810       -4.80960       -1.21190
C         -5.05430       -3.89630       -1.93290
C         -5.05630       -2.49530       -1.83790
C         -5.97160       -1.79650       -0.92810
C         -6.74170       -0.72620       -1.37100
C         -7.63500       -0.08820       -0.53100
C         -7.79220       -0.50220        0.78620
S         -8.89490        0.19860        1.96830
C         -9.87300        1.41450        1.02360
C        -10.92480        0.75850        0.14880
C         -6.99200       -1.55870        1.22510
F         -7.10440       -1.97420        2.50510
C         -6.09430       -2.19750        0.40230
C         -4.12350       -1.82380       -2.61160
C         -3.20780       -2.48460       -3.46780
C         -3.24970       -3.88390       -3.60840
C         -2.36800       -4.57630       -4.55440
C         -2.26570       -4.13420       -5.87370
C         -1.47320       -4.80400       -6.78030
C         -0.73940       -5.92910       -6.40900
S          0.27050       -6.68800       -7.64740
C          0.04390       -8.48180       -7.35800
C         -1.41420       -8.88860       -7.42620
C         -0.82310       -6.33770       -5.08150
C         -1.63220       -5.69170       -4.16890
F         -0.10150       -7.38900       -4.63560
C         -4.15940       -4.55980       -2.80950
S         -4.35850       -6.29550       -2.71760
C         -2.24880       -1.58820       -4.00380
C         -2.41740       -0.29810       -3.59300
S         -3.81980       -0.10870       -2.55980
C         -1.54170        0.81070       -3.80300
C         -0.24560        0.76780       -4.22730
C          0.41880        2.01580       -4.14940
C          1.78560        2.28230       -4.37360
C          2.72020        1.24120       -4.74210
C          2.79740       -0.03340       -4.25530
C          3.78710       -0.85660       -4.82790
C          4.53850       -0.26480       -5.80210
S          5.88140       -1.05080       -6.59970
C          6.06940       -0.01700       -8.09420
C          4.94570       -0.23610       -9.08610
Se         4.03850        1.53660       -6.05800
C          2.19310        3.59560       -4.17240
C          1.32200        4.63790       -3.77600
C         -0.04390        4.37310       -3.54080
C         -0.97740        5.38080       -3.08570
C         -2.30000        5.48320       -3.42130
C         -3.02540        6.51400       -2.79470
C         -2.31500        7.26690       -1.90400
S         -3.01100        8.54700       -0.93840
C         -1.52120        9.44640       -0.38010
C         -0.88130       10.25010       -1.49260
Se        -0.53200        6.67900       -1.78770
C         -0.44760        3.05190       -3.72280
S         -2.03650        2.43000       -3.36550
C          2.01620        5.85910       -3.60700
C          3.36530        5.76000       -3.79160
S          3.84350        4.14780       -4.26850
C          4.33870        6.77050       -3.53650
C          4.10690        8.04820       -3.11680
C          5.28420        8.76640       -2.80100
C          5.37880       10.09000       -2.32260
C          4.21490       10.94110       -2.23360
C          3.17460       11.01900       -3.11900
C          2.14100       11.91370       -2.78330
C          2.31440       12.57740       -1.60170
S          1.11910       13.65250       -0.91180
C          2.13040       14.60450        0.27400
C          3.07450       15.56510       -0.41870
Se         3.93400       12.08820       -0.76490
C          6.64650       10.50760       -1.93490
C          7.80840        9.71030       -2.06460
C          7.72660        8.41190       -2.61010
C          8.88650        7.56430       -2.79890
C          8.94100        6.20910       -2.62560
C         10.15970        5.58170       -2.95320
C         11.12340        6.42070       -3.42710
S         12.75020        6.04590       -3.95620
C         12.63400        4.27280       -4.38500
C         11.73530        4.02770       -5.58020
Se        10.54110        8.20280       -3.47170
C          6.44810        7.97320       -2.94930
S          6.04710        6.39810       -3.58310
C          8.95050       10.36450       -1.54220
C          8.69430       11.61140       -1.05090
S          7.01200       12.05400       -1.22300
C          9.62430       12.48380       -0.41100
C         10.98330       12.37710       -0.43670
C         11.64970       13.33090        0.37140
C         13.03350       13.43250        0.62770
C         13.99070       12.48190        0.10810
C         15.29140       12.71620       -0.24840
C         16.03300       11.59980       -0.67810
C         15.35780       10.41270       -0.66710
S         16.05560        8.88590       -1.15720
C         14.58000        7.93270       -1.66970
C         13.91940        7.20150       -0.51920
Se        13.60550       10.63790       -0.03210
C         13.42010       14.48140        1.46370
C         12.50650       15.37850        2.06380
C         11.12300       15.24740        1.84110
C         10.13250       16.07690        2.49610
C          8.97970       16.57050        1.95350
C          8.13160       17.27360        2.83150
C          8.56330       17.34280        4.12460
S          7.63380       18.07170        5.41570
C          8.88560       18.23380        6.73580
C          9.86970       19.35270        6.46190
Se        10.21240       16.46060        4.34190
C         10.73640       14.22470        0.97970
S          9.08820       13.82370        0.57440
C         13.17240       16.34400        2.87530
C         14.50800       16.16740        2.91830
S         15.05400       14.83400        1.96580
H         -9.90930      -19.69510        9.23470
H        -10.11600      -17.13490        9.65660
H         -8.54980      -15.56990       10.25390
H         -9.19020      -13.68990       11.86420
H        -11.56440      -10.50640        9.05220
H        -11.53980       -9.21900       10.28140
H         -9.06180       -9.00620       10.01280
H         -9.88640       -8.72730        8.47120
H         -9.08190      -10.27150        8.77620
H         -9.32830      -19.71380        4.40510
H         -8.00540      -20.95780        2.61200
H         -3.97510      -18.34750        1.99700
H         -5.03960      -17.65020        0.74590
H         -3.87790      -19.01050       -0.99550
H         -2.84590      -19.73400        0.23930
H         -2.70420      -18.01010       -0.12700
H         -7.90870      -15.42210        3.06000
H         -8.49880      -10.87280        4.38510
H         -7.20190       -9.32300        5.12770
H         -7.99910       -7.49310        6.70810
H         -8.34080       -3.71060        4.05120
H        -10.06130       -4.10640        3.77480
H         -9.69890       -1.64570        4.18170
H         -9.02070       -2.02060        5.76610
H        -10.72180       -2.36800        5.43690
H         -6.90510      -10.51070       -2.65080
H         -5.92520      -12.26320       -4.23080
H         -3.50610      -16.65260       -2.53340
H         -4.35980      -15.74570       -1.25880
H         -1.86880      -15.53550       -0.98810
H         -2.58800      -13.96800       -1.36750
H         -1.74910      -14.88170       -2.62780
H         -5.49490       -8.96790       -1.83360
H         -6.61580       -4.51600       -0.50840
H         -6.65860       -0.39720       -2.39560
H         -8.20960        0.73650       -0.91930
H         -9.18660        2.04200        0.45680
H        -10.34000        2.02380        1.79760
H        -11.49660        1.52150       -0.37610
H        -11.60710        0.17170        0.75940
H        -10.46990        0.09760       -0.58570
H         -5.48280       -2.98810        0.80770
H         -2.84070       -3.27870       -6.19430
H         -1.41040       -4.46910       -7.80400
H          0.49790       -8.74760       -6.40590
H          0.61800       -8.93730       -8.16500
H         -1.49690       -9.96950       -7.33270
H         -1.98420       -8.43030       -6.61990
H         -1.85180       -8.58470       -8.37500
H         -1.65190       -6.05100       -3.15210
H         -1.44020       -1.90270       -4.63800
H          0.22760       -0.13440       -4.56630
H          2.16720       -0.37930       -3.45300
H          3.94190       -1.87830       -4.52660
H          6.12010        1.02470       -7.76060
H          7.03230       -0.30720       -8.51290
H          4.90050       -1.28090       -9.38410
H          3.98760        0.04140       -8.64630
H          5.10880        0.37610       -9.97040
H         -2.75280        4.85100       -4.16630
H         -4.06400        6.70460       -3.00240
H         -0.83160        8.70440        0.03490
H         -1.87430       10.09370        0.42170
H         -0.01980       10.79190       -1.10900
H         -0.54770        9.59530       -2.29840
H         -1.58900       10.96840       -1.89890
H          1.54060        6.78980       -3.35110
H          3.12010        8.45080       -2.98480
H          3.17610       10.47800       -4.05060
H          1.28130       12.07510       -3.41050
H          1.40610       15.13320        0.89260
H          2.67030       13.87900        0.89110
H          3.63220       16.13140        0.32390
H          3.78600       15.02270       -1.04200
H          2.51920       16.25780       -1.04700
H          8.11950        5.64560       -2.21770
H         10.29980        4.52200       -2.82930
H         13.66480        3.99360       -4.60270
H         12.30260        3.73230       -3.49930
H         10.71630        4.34680       -5.37120
H         11.72430        2.96630       -5.81970
H         12.09930        4.57740       -6.44520
H          9.92300        9.90780       -1.47490
H         11.48170       11.65630       -1.06110
H         15.71220       13.70690       -0.26880
H         17.05270       11.67250       -1.01410
H         13.89200        8.63240       -2.15070
H         14.94940        7.23120       -2.41650
H         14.62140        6.51820       -0.04760
H         13.55940        7.90440        0.23430
H         13.06900        6.63410       -0.89230
H          8.75270       16.47490        0.90520
H          7.20930       17.72740        2.51250
H          8.30950       18.42480        7.64060
H          9.38700       17.26530        6.82780
H          9.34760       20.30130        6.36160
H         10.42160       19.16110        5.54140
H         10.58170       19.42710        7.28110
H         12.66910       17.14860        3.38410
H         15.23510       16.75250        3.44670
