
  xtb     03052204583D
 energy: -486.858787853815 gnorm: 0.000199067459 xtb: 6.4.1 (unknown)
284313  0     0  0            999 V2000
    4.4325  -18.5186    4.4082 C   0  0  0  0  0  0  0  0  0  0  0  0
    5.2160  -17.8688    3.5251 C   0  0  0  0  0  0  0  0  0  0  0  0
    4.5302  -16.8341    2.8216 C   0  0  0  0  0  0  0  0  0  0  0  0
    5.0345  -15.9608    1.8355 C   0  0  0  0  0  0  0  0  0  0  0  0
    6.4399  -15.9100    1.5055 C   0  0  0  0  0  0  0  0  0  0  0  0
    7.5003  -16.0590    2.3604 C   0  0  0  0  0  0  0  0  0  0  0  0
    8.7808  -15.9702    1.7862 C   0  0  0  0  0  0  0  0  0  0  0  0
    8.7926  -15.7515    0.4362 C   0  0  0  0  0  0  0  0  0  0  0  0
   10.2441  -15.6147   -0.5232 S   0  0  0  0  0  0  0  0  0  0  0  0
    9.5185  -15.1857   -2.1487 C   0  0  0  0  0  0  0  0  0  0  0  0
   10.6110  -14.9649   -3.1735 C   0  0  0  0  0  0  0  0  0  0  0  0
    7.0467  -15.6107   -0.2555 Se  0  0  0  0  0  2  0  0  0  0  0  0
    4.0943  -15.1482    1.2048 C   0  0  0  0  0  0  0  0  0  0  0  0
    2.7281  -15.1068    1.5649 C   0  0  0  0  0  0  0  0  0  0  0  0
    2.2510  -15.8907    2.6353 C   0  0  0  0  0  0  0  0  0  0  0  0
    0.8864  -15.7680    3.0922 C   0  0  0  0  0  0  0  0  0  0  0  0
    0.1578  -14.6128    3.1889 C   0  0  0  0  0  0  0  0  0  0  0  0
   -1.1768  -14.7515    3.6107 C   0  0  0  0  0  0  0  0  0  0  0  0
   -1.5693  -16.0367    3.8587 C   0  0  0  0  0  0  0  0  0  0  0  0
   -3.1907  -16.4818    4.3359 S   0  0  0  0  0  0  0  0  0  0  0  0
   -2.9495  -18.2595    4.6959 C   0  0  0  0  0  0  0  0  0  0  0  0
   -4.2427  -18.8772    5.1851 C   0  0  0  0  0  0  0  0  0  0  0  0
   -0.1575  -17.2579    3.5866 Se  0  0  0  0  0  2  0  0  0  0  0  0
    3.1709  -16.7683    3.2024 C   0  0  0  0  0  0  0  0  0  0  0  0
    2.8097  -17.9197    4.4599 S   0  0  0  0  0  0  0  0  0  0  0  0
    1.9839  -14.2483    0.7196 C   0  0  0  0  0  0  0  0  0  0  0  0
    2.7396  -13.6176   -0.2242 C   0  0  0  0  0  0  0  0  0  0  0  0
    4.4299  -14.0576   -0.1120 S   0  0  0  0  0  0  0  0  0  0  0  0
    2.2906  -12.6816   -1.2031 C   0  0  0  0  0  0  0  0  0  0  0  0
    1.0199  -12.2102   -1.3626 C   0  0  0  0  0  0  0  0  0  0  0  0
    0.8922  -11.2553   -2.4006 C   0  0  0  0  0  0  0  0  0  0  0  0
   -0.2578  -10.5310   -2.7647 C   0  0  0  0  0  0  0  0  0  0  0  0
   -1.5429  -10.8010   -2.1097 C   0  0  0  0  0  0  0  0  0  0  0  0
   -2.0170  -12.1056   -1.9868 C   0  0  0  0  0  0  0  0  0  0  0  0
   -3.1910  -12.3800   -1.3143 C   0  0  0  0  0  0  0  0  0  0  0  0
   -3.9339  -11.3589   -0.7317 C   0  0  0  0  0  0  0  0  0  0  0  0
   -5.4316  -11.5929    0.1685 S   0  0  0  0  0  0  0  0  0  0  0  0
   -5.2999  -13.3092    0.7846 C   0  0  0  0  0  0  0  0  0  0  0  0
   -4.1576  -13.4810    1.7665 C   0  0  0  0  0  0  0  0  0  0  0  0
   -3.4703  -10.0534   -0.8984 C   0  0  0  0  0  0  0  0  0  0  0  0
   -4.1736   -9.0343   -0.3678 F   0  0  0  0  0  0  0  0  0  0  0  0
   -2.3018   -9.7658   -1.5685 C   0  0  0  0  0  0  0  0  0  0  0  0
   -0.0880   -9.5435   -3.7223 C   0  0  0  0  0  0  0  0  0  0  0  0
    1.1606   -9.2712   -4.3372 C   0  0  0  0  0  0  0  0  0  0  0  0
    2.3039  -10.0080   -3.9870 C   0  0  0  0  0  0  0  0  0  0  0  0
    3.6169   -9.6978   -4.5640 C   0  0  0  0  0  0  0  0  0  0  0  0
    4.1008   -8.3920   -4.5614 C   0  0  0  0  0  0  0  0  0  0  0  0
    5.3289   -8.0827   -5.1109 C   0  0  0  0  0  0  0  0  0  0  0  0
    6.1168   -9.0692   -5.6932 C   0  0  0  0  0  0  0  0  0  0  0  0
    7.6902   -8.8025   -6.4396 S   0  0  0  0  0  0  0  0  0  0  0  0
    7.7408   -7.0004   -6.7349 C   0  0  0  0  0  0  0  0  0  0  0  0
    6.7507   -6.5570   -7.7950 C   0  0  0  0  0  0  0  0  0  0  0  0
    5.6344  -10.3788   -5.6584 C   0  0  0  0  0  0  0  0  0  0  0  0
    4.4147  -10.7020   -5.1072 C   0  0  0  0  0  0  0  0  0  0  0  0
    6.3823  -11.3657   -6.1918 F   0  0  0  0  0  0  0  0  0  0  0  0
    2.1354  -10.9941   -3.0282 C   0  0  0  0  0  0  0  0  0  0  0  0
    3.4082  -11.9741   -2.3492 S   0  0  0  0  0  0  0  0  0  0  0  0
    1.0725   -8.1987   -5.2571 C   0  0  0  0  0  0  0  0  0  0  0  0
   -0.1682   -7.6391   -5.3318 C   0  0  0  0  0  0  0  0  0  0  0  0
   -1.3313   -8.4693   -4.3149 S   0  0  0  0  0  0  0  0  0  0  0  0
   -0.5086   -6.4147   -5.9756 C   0  0  0  0  0  0  0  0  0  0  0  0
   -1.7102   -5.7733   -6.0068 C   0  0  0  0  0  0  0  0  0  0  0  0
   -1.6351   -4.4413   -6.4850 C   0  0  0  0  0  0  0  0  0  0  0  0
   -2.6851   -3.4969   -6.5581 C   0  0  0  0  0  0  0  0  0  0  0  0
   -4.0620   -3.8853   -6.4028 C   0  0  0  0  0  0  0  0  0  0  0  0
   -4.6338   -5.0818   -6.7575 C   0  0  0  0  0  0  0  0  0  0  0  0
   -6.0005   -5.2285   -6.4708 C   0  0  0  0  0  0  0  0  0  0  0  0
   -6.5858   -4.1465   -5.8697 C   0  0  0  0  0  0  0  0  0  0  0  0
   -8.2817   -4.0747   -5.4609 S   0  0  0  0  0  0  0  0  0  0  0  0
   -8.4188   -2.4319   -4.6713 C   0  0  0  0  0  0  0  0  0  0  0  0
   -7.9164   -2.4279   -3.2421 C   0  0  0  0  0  0  0  0  0  0  0  0
   -5.3521   -2.7469   -5.6291 Se  0  0  0  0  0  2  0  0  0  0  0  0
   -2.2833   -2.1734   -6.7253 C   0  0  0  0  0  0  0  0  0  0  0  0
   -0.9419   -1.7830   -6.9409 C   0  0  0  0  0  0  0  0  0  0  0  0
    0.0813   -2.7503   -7.0627 C   0  0  0  0  0  0  0  0  0  0  0  0
    1.4426   -2.3833   -7.3900 C   0  0  0  0  0  0  0  0  0  0  0  0
    2.6006   -2.9582   -6.9381 C   0  0  0  0  0  0  0  0  0  0  0  0
    3.7997   -2.3983   -7.4173 C   0  0  0  0  0  0  0  0  0  0  0  0
    3.6539   -1.3485   -8.2743 C   0  0  0  0  0  0  0  0  0  0  0  0
    4.9847   -0.4829   -9.0179 S   0  0  0  0  0  0  0  0  0  0  0  0
    4.6799    1.2177   -8.3961 C   0  0  0  0  0  0  0  0  0  0  0  0
    3.7160    1.9965   -9.2659 C   0  0  0  0  0  0  0  0  0  0  0  0
    1.8347   -1.0027   -8.6162 Se  0  0  0  0  0  2  0  0  0  0  0  0
   -0.3024   -4.0596   -6.7807 C   0  0  0  0  0  0  0  0  0  0  0  0
    0.7812   -5.4168   -6.6188 S   0  0  0  0  0  0  0  0  0  0  0  0
   -0.7856   -0.3792   -6.8554 C   0  0  0  0  0  0  0  0  0  0  0  0
   -1.9475    0.2917   -6.6030 C   0  0  0  0  0  0  0  0  0  0  0  0
   -3.3247   -0.7860   -6.5590 S   0  0  0  0  0  0  0  0  0  0  0  0
   -2.0611    1.6448   -6.1670 C   0  0  0  0  0  0  0  0  0  0  0  0
   -1.0415    2.5439   -6.0391 C   0  0  0  0  0  0  0  0  0  0  0  0
   -1.3729    3.6661   -5.2429 C   0  0  0  0  0  0  0  0  0  0  0  0
   -0.5111    4.6842   -4.7981 C   0  0  0  0  0  0  0  0  0  0  0  0
    0.8975    4.7201   -5.2099 C   0  0  0  0  0  0  0  0  0  0  0  0
    1.4531    5.8722   -5.7559 C   0  0  0  0  0  0  0  0  0  0  0  0
    2.7644    5.8973   -6.1920 C   0  0  0  0  0  0  0  0  0  0  0  0
    3.5733    4.7723   -6.0812 C   0  0  0  0  0  0  0  0  0  0  0  0
    5.2399    4.6443   -6.6429 S   0  0  0  0  0  0  0  0  0  0  0  0
    5.7601    6.3745   -6.8983 C   0  0  0  0  0  0  0  0  0  0  0  0
    5.9023    7.1334   -5.5927 C   0  0  0  0  0  0  0  0  0  0  0  0
    3.0096    3.6326   -5.5054 C   0  0  0  0  0  0  0  0  0  0  0  0
    3.7666    2.5227   -5.3704 F   0  0  0  0  0  0  0  0  0  0  0  0
    1.7041    3.5914   -5.0744 C   0  0  0  0  0  0  0  0  0  0  0  0
   -1.0422    5.5954   -3.9009 C   0  0  0  0  0  0  0  0  0  0  0  0
   -2.3929    5.5564   -3.4775 C   0  0  0  0  0  0  0  0  0  0  0  0
   -3.2774    4.5876   -3.9817 C   0  0  0  0  0  0  0  0  0  0  0  0
   -4.6886    4.5959   -3.5801 C   0  0  0  0  0  0  0  0  0  0  0  0
   -5.4245    5.7753   -3.6643 C   0  0  0  0  0  0  0  0  0  0  0  0
   -6.7508    5.8243   -3.2821 C   0  0  0  0  0  0  0  0  0  0  0  0
   -7.3912    4.6908   -2.7955 C   0  0  0  0  0  0  0  0  0  0  0  0
   -9.0675    4.6085   -2.2585 S   0  0  0  0  0  0  0  0  0  0  0  0
   -9.7966    6.1993   -2.7880 C   0  0  0  0  0  0  0  0  0  0  0  0
   -9.5954    7.3123   -1.7755 C   0  0  0  0  0  0  0  0  0  0  0  0
   -6.6427    3.5141   -2.7195 C   0  0  0  0  0  0  0  0  0  0  0  0
   -5.3222    3.4504   -3.1032 C   0  0  0  0  0  0  0  0  0  0  0  0
   -7.2333    2.3959   -2.2529 F   0  0  0  0  0  0  0  0  0  0  0  0
   -2.7271    3.6321   -4.8206 C   0  0  0  0  0  0  0  0  0  0  0  0
   -3.5423    2.2159   -5.4287 S   0  0  0  0  0  0  0  0  0  0  0  0
   -2.6342    6.4516   -2.4086 C   0  0  0  0  0  0  0  0  0  0  0  0
   -1.5290    7.1402   -2.0057 C   0  0  0  0  0  0  0  0  0  0  0  0
   -0.1316    6.7931   -3.0094 S   0  0  0  0  0  0  0  0  0  0  0  0
   -1.4253    7.9180   -0.8161 C   0  0  0  0  0  0  0  0  0  0  0  0
   -0.3417    8.5476   -0.2805 C   0  0  0  0  0  0  0  0  0  0  0  0
   -0.5663    9.0567    1.0268 C   0  0  0  0  0  0  0  0  0  0  0  0
    0.3396    9.6917    1.8954 C   0  0  0  0  0  0  0  0  0  0  0  0
    1.6941   10.0358    1.4478 C   0  0  0  0  0  0  0  0  0  0  0  0
    2.8176    9.7124    2.2069 C   0  0  0  0  0  0  0  0  0  0  0  0
    4.0825   10.0192    1.7541 C   0  0  0  0  0  0  0  0  0  0  0  0
    4.2824   10.6708    0.5383 C   0  0  0  0  0  0  0  0  0  0  0  0
    5.9502   11.0441    0.0845 S   0  0  0  0  0  0  0  0  0  0  0  0
    6.0011   10.7457   -1.7220 C   0  0  0  0  0  0  0  0  0  0  0  0
    5.5992    9.3282   -2.0771 C   0  0  0  0  0  0  0  0  0  0  0  0
    3.1502   11.0210   -0.1910 C   0  0  0  0  0  0  0  0  0  0  0  0
    3.2560   11.6966   -1.3582 F   0  0  0  0  0  0  0  0  0  0  0  0
    1.8791   10.6996    0.2384 C   0  0  0  0  0  0  0  0  0  0  0  0
   -0.1076    9.9533    3.1844 C   0  0  0  0  0  0  0  0  0  0  0  0
   -1.4191    9.6437    3.6279 C   0  0  0  0  0  0  0  0  0  0  0  0
   -2.3285    9.0394    2.7529 C   0  0  0  0  0  0  0  0  0  0  0  0
   -3.6897    8.6365    3.1486 C   0  0  0  0  0  0  0  0  0  0  0  0
   -4.6827    9.5709    3.4209 C   0  0  0  0  0  0  0  0  0  0  0  0
   -5.9755    9.1553    3.6812 C   0  0  0  0  0  0  0  0  0  0  0  0
   -6.2985    7.8063    3.6982 C   0  0  0  0  0  0  0  0  0  0  0  0
   -7.9824    7.2877    3.9869 S   0  0  0  0  0  0  0  0  0  0  0  0
   -8.5389    7.0800    2.2503 C   0  0  0  0  0  0  0  0  0  0  0  0
   -7.8099    5.9796    1.5062 C   0  0  0  0  0  0  0  0  0  0  0  0
   -5.2844    6.8801    3.4887 C   0  0  0  0  0  0  0  0  0  0  0  0
   -3.9962    7.2812    3.1941 C   0  0  0  0  0  0  0  0  0  0  0  0
   -5.5414    5.5636    3.5569 F   0  0  0  0  0  0  0  0  0  0  0  0
   -1.8743    8.7573    1.4791 C   0  0  0  0  0  0  0  0  0  0  0  0
   -2.8157    7.9511    0.2571 S   0  0  0  0  0  0  0  0  0  0  0  0
   -1.6154    9.9543    4.9945 C   0  0  0  0  0  0  0  0  0  0  0  0
   -0.5112   10.4879    5.5936 C   0  0  0  0  0  0  0  0  0  0  0  0
    0.8247   10.6678    4.4748 S   0  0  0  0  0  0  0  0  0  0  0  0
   -0.3549   10.8246    6.9724 C   0  0  0  0  0  0  0  0  0  0  0  0
   -1.2518   10.6058    7.9772 C   0  0  0  0  0  0  0  0  0  0  0  0
   -0.7819   10.9929    9.2562 C   0  0  0  0  0  0  0  0  0  0  0  0
   -1.4477   10.8839   10.4951 C   0  0  0  0  0  0  0  0  0  0  0  0
   -2.8164   10.4224   10.5741 C   0  0  0  0  0  0  0  0  0  0  0  0
   -3.8358   10.7127    9.7089 C   0  0  0  0  0  0  0  0  0  0  0  0
   -5.0652   10.0653    9.9484 C   0  0  0  0  0  0  0  0  0  0  0  0
   -5.0632    9.2233   11.0221 C   0  0  0  0  0  0  0  0  0  0  0  0
   -6.3314    8.1929   11.6429 S   0  0  0  0  0  0  0  0  0  0  0  0
   -7.8207    8.7932   10.7695 C   0  0  0  0  0  0  0  0  0  0  0  0
   -8.2717   10.1512   11.2707 C   0  0  0  0  0  0  0  0  0  0  0  0
   -3.4064    9.2066   11.9032 Se  0  0  0  0  0  2  0  0  0  0  0  0
   -0.6969   11.2136   11.6208 C   0  0  0  0  0  0  0  0  0  0  0  0
    0.6366   11.6788   11.5662 C   0  0  0  0  0  0  0  0  0  0  0  0
    1.2742   11.8621   10.3230 C   0  0  0  0  0  0  0  0  0  0  0  0
    2.6212   12.3859   10.2333 C   0  0  0  0  0  0  0  0  0  0  0  0
    3.1638   13.3948   10.9785 C   0  0  0  0  0  0  0  0  0  0  0  0
    4.5231   13.6887   10.7407 C   0  0  0  0  0  0  0  0  0  0  0  0
    5.1148   12.9034    9.7953 C   0  0  0  0  0  0  0  0  0  0  0  0
    6.7623   12.9129    9.2153 S   0  0  0  0  0  0  0  0  0  0  0  0
    7.5517   14.1428   10.3227 C   0  0  0  0  0  0  0  0  0  0  0  0
    9.0380   14.1950   10.0275 C   0  0  0  0  0  0  0  0  0  0  0  0
    3.9171   11.6635    9.0529 Se  0  0  0  0  0  2  0  0  0  0  0  0
    0.5427   11.4875    9.1998 C   0  0  0  0  0  0  0  0  0  0  0  0
    1.1308   11.5412    7.5612 S   0  0  0  0  0  0  0  0  0  0  0  0
    1.1770   11.8655   12.8730 C   0  0  0  0  0  0  0  0  0  0  0  0
    0.2925   11.5945   13.8534 C   0  0  0  0  0  0  0  0  0  0  0  0
   -1.2582   11.0994   13.2668 S   0  0  0  0  0  0  0  0  0  0  0  0
    4.6969  -19.3339    5.0525 H   0  0  0  0  0  0  0  0  0  0  0  0
    6.2412  -18.1320    3.3410 H   0  0  0  0  0  0  0  0  0  0  0  0
    7.3653  -16.1773    3.4224 H   0  0  0  0  0  0  0  0  0  0  0  0
    9.6866  -16.0562    2.3611 H   0  0  0  0  0  0  0  0  0  0  0  0
    8.9192  -14.2821   -2.0046 H   0  0  0  0  0  0  0  0  0  0  0  0
    8.8629  -16.0135   -2.4361 H   0  0  0  0  0  0  0  0  0  0  0  0
   11.2074  -15.8661   -3.2957 H   0  0  0  0  0  0  0  0  0  0  0  0
   11.2670  -14.1558   -2.8609 H   0  0  0  0  0  0  0  0  0  0  0  0
   10.1674  -14.7043   -4.1317 H   0  0  0  0  0  0  0  0  0  0  0  0
    0.5965  -13.6463    3.0050 H   0  0  0  0  0  0  0  0  0  0  0  0
   -1.8402  -13.9139    3.7375 H   0  0  0  0  0  0  0  0  0  0  0  0
   -2.1618  -18.3291    5.4509 H   0  0  0  0  0  0  0  0  0  0  0  0
   -2.6065  -18.7308    3.7696 H   0  0  0  0  0  0  0  0  0  0  0  0
   -5.0203  -18.7808    4.4309 H   0  0  0  0  0  0  0  0  0  0  0  0
   -4.5798  -18.3831    6.0933 H   0  0  0  0  0  0  0  0  0  0  0  0
   -4.0893  -19.9329    5.3971 H   0  0  0  0  0  0  0  0  0  0  0  0
    0.9183  -14.1345    0.7883 H   0  0  0  0  0  0  0  0  0  0  0  0
    0.2015  -12.5066   -0.7335 H   0  0  0  0  0  0  0  0  0  0  0  0
   -1.4670  -12.9158   -2.4418 H   0  0  0  0  0  0  0  0  0  0  0  0
   -3.5298  -13.4017   -1.2479 H   0  0  0  0  0  0  0  0  0  0  0  0
   -5.2235  -13.9866   -0.0649 H   0  0  0  0  0  0  0  0  0  0  0  0
   -6.2597  -13.4735    1.2737 H   0  0  0  0  0  0  0  0  0  0  0  0
   -4.2673  -12.7813    2.5919 H   0  0  0  0  0  0  0  0  0  0  0  0
   -4.1583  -14.4926    2.1687 H   0  0  0  0  0  0  0  0  0  0  0  0
   -3.1988  -13.2992    1.2843 H   0  0  0  0  0  0  0  0  0  0  0  0
   -1.9772   -8.7396   -1.6343 H   0  0  0  0  0  0  0  0  0  0  0  0
    3.5187   -7.6092   -4.0989 H   0  0  0  0  0  0  0  0  0  0  0  0
    5.6723   -7.0616   -5.0738 H   0  0  0  0  0  0  0  0  0  0  0  0
    8.7650   -6.8298   -7.0667 H   0  0  0  0  0  0  0  0  0  0  0  0
    7.5956   -6.4855   -5.7860 H   0  0  0  0  0  0  0  0  0  0  0  0
    6.8519   -5.4879   -7.9720 H   0  0  0  0  0  0  0  0  0  0  0  0
    5.7272   -6.7625   -7.4884 H   0  0  0  0  0  0  0  0  0  0  0  0
    6.9403   -7.0822   -8.7281 H   0  0  0  0  0  0  0  0  0  0  0  0
    4.0850  -11.7287   -5.1270 H   0  0  0  0  0  0  0  0  0  0  0  0
    1.9029   -7.8379   -5.8369 H   0  0  0  0  0  0  0  0  0  0  0  0
   -2.6068   -6.2173   -5.6132 H   0  0  0  0  0  0  0  0  0  0  0  0
   -4.0811   -5.8480   -7.2748 H   0  0  0  0  0  0  0  0  0  0  0  0
   -6.5544   -6.1199   -6.7098 H   0  0  0  0  0  0  0  0  0  0  0  0
   -7.8638   -1.7270   -5.2984 H   0  0  0  0  0  0  0  0  0  0  0  0
   -9.4807   -2.1924   -4.7170 H   0  0  0  0  0  0  0  0  0  0  0  0
   -8.4831   -3.1313   -2.6368 H   0  0  0  0  0  0  0  0  0  0  0  0
   -8.0233   -1.4311   -2.8196 H   0  0  0  0  0  0  0  0  0  0  0  0
   -6.8627   -2.7067   -3.2024 H   0  0  0  0  0  0  0  0  0  0  0  0
    2.6071   -3.7446   -6.2040 H   0  0  0  0  0  0  0  0  0  0  0  0
    4.7700   -2.7482   -7.1095 H   0  0  0  0  0  0  0  0  0  0  0  0
    5.6626    1.6867   -8.3855 H   0  0  0  0  0  0  0  0  0  0  0  0
    4.3219    1.1202   -7.3728 H   0  0  0  0  0  0  0  0  0  0  0  0
    4.0995    2.0815  -10.2799 H   0  0  0  0  0  0  0  0  0  0  0  0
    2.7418    1.5036   -9.3053 H   0  0  0  0  0  0  0  0  0  0  0  0
    3.5796    2.9951   -8.8550 H   0  0  0  0  0  0  0  0  0  0  0  0
    0.1704    0.1141   -6.8705 H   0  0  0  0  0  0  0  0  0  0  0  0
   -0.0712    2.3921   -6.4729 H   0  0  0  0  0  0  0  0  0  0  0  0
    0.8437    6.7565   -5.8646 H   0  0  0  0  0  0  0  0  0  0  0  0
    3.1464    6.8026   -6.6347 H   0  0  0  0  0  0  0  0  0  0  0  0
    6.7242    6.2772   -7.3975 H   0  0  0  0  0  0  0  0  0  0  0  0
    5.0618    6.8516   -7.5849 H   0  0  0  0  0  0  0  0  0  0  0  0
    6.6263    6.6397   -4.9485 H   0  0  0  0  0  0  0  0  0  0  0  0
    4.9525    7.1850   -5.0639 H   0  0  0  0  0  0  0  0  0  0  0  0
    6.2471    8.1463   -5.7931 H   0  0  0  0  0  0  0  0  0  0  0  0
    1.3307    2.6907   -4.6128 H   0  0  0  0  0  0  0  0  0  0  0  0
   -4.9545    6.6676   -4.0503 H   0  0  0  0  0  0  0  0  0  0  0  0
   -7.2801    6.7590   -3.3684 H   0  0  0  0  0  0  0  0  0  0  0  0
  -10.8573    5.9742   -2.8996 H   0  0  0  0  0  0  0  0  0  0  0  0
   -9.3889    6.4461   -3.7671 H   0  0  0  0  0  0  0  0  0  0  0  0
  -10.0443    8.2322   -2.1461 H   0  0  0  0  0  0  0  0  0  0  0  0
   -8.5391    7.4921   -1.5874 H   0  0  0  0  0  0  0  0  0  0  0  0
  -10.0707    7.0524   -0.8325 H   0  0  0  0  0  0  0  0  0  0  0  0
   -4.7947    2.5152   -3.0060 H   0  0  0  0  0  0  0  0  0  0  0  0
   -3.5796    6.5253   -1.9008 H   0  0  0  0  0  0  0  0  0  0  0  0
    0.6040    8.5996   -0.7901 H   0  0  0  0  0  0  0  0  0  0  0  0
    2.7013    9.1884    3.1423 H   0  0  0  0  0  0  0  0  0  0  0  0
    4.9493    9.7535    2.3387 H   0  0  0  0  0  0  0  0  0  0  0  0
    7.0451   10.9321   -1.9737 H   0  0  0  0  0  0  0  0  0  0  0  0
    5.3790   11.4842   -2.2227 H   0  0  0  0  0  0  0  0  0  0  0  0
    6.2173    8.6106   -1.5419 H   0  0  0  0  0  0  0  0  0  0  0  0
    4.5573    9.1436   -1.8219 H   0  0  0  0  0  0  0  0  0  0  0  0
    5.7242    9.1685   -3.1462 H   0  0  0  0  0  0  0  0  0  0  0  0
    1.0364   11.0054   -0.3626 H   0  0  0  0  0  0  0  0  0  0  0  0
   -4.4443   10.6237    3.4008 H   0  0  0  0  0  0  0  0  0  0  0  0
   -6.7562    9.8771    3.8671 H   0  0  0  0  0  0  0  0  0  0  0  0
   -9.5979    6.8462    2.3568 H   0  0  0  0  0  0  0  0  0  0  0  0
   -8.4309    8.0462    1.7552 H   0  0  0  0  0  0  0  0  0  0  0  0
   -8.3122    5.7726    0.5636 H   0  0  0  0  0  0  0  0  0  0  0  0
   -7.7972    5.0656    2.0950 H   0  0  0  0  0  0  0  0  0  0  0  0
   -6.7827    6.2680    1.2895 H   0  0  0  0  0  0  0  0  0  0  0  0
   -3.2392    6.5344    3.0107 H   0  0  0  0  0  0  0  0  0  0  0  0
   -2.5412    9.7644    5.5058 H   0  0  0  0  0  0  0  0  0  0  0  0
   -2.2029   10.1335    7.8188 H   0  0  0  0  0  0  0  0  0  0  0  0
   -3.7247   11.4303    8.9128 H   0  0  0  0  0  0  0  0  0  0  0  0
   -5.9209   10.2287    9.3165 H   0  0  0  0  0  0  0  0  0  0  0  0
   -8.5701    8.0301   10.9783 H   0  0  0  0  0  0  0  0  0  0  0  0
   -7.6071    8.7918    9.7016 H   0  0  0  0  0  0  0  0  0  0  0  0
   -9.1667   10.4628   10.7358 H   0  0  0  0  0  0  0  0  0  0  0  0
   -8.4987   10.1037   12.3331 H   0  0  0  0  0  0  0  0  0  0  0  0
   -7.4961   10.8987   11.1187 H   0  0  0  0  0  0  0  0  0  0  0  0
    2.5781   13.9710   11.6755 H   0  0  0  0  0  0  0  0  0  0  0  0
    5.0324   14.4761   11.2682 H   0  0  0  0  0  0  0  0  0  0  0  0
    7.3640   13.8258   11.3485 H   0  0  0  0  0  0  0  0  0  0  0  0
    7.0788   15.1071   10.1358 H   0  0  0  0  0  0  0  0  0  0  0  0
    9.2104   14.4809    8.9927 H   0  0  0  0  0  0  0  0  0  0  0  0
    9.5179   14.9240   10.6769 H   0  0  0  0  0  0  0  0  0  0  0  0
    9.4933   13.2221   10.1966 H   0  0  0  0  0  0  0  0  0  0  0  0
    2.1944   12.1575   13.0561 H   0  0  0  0  0  0  0  0  0  0  0  0
    0.4449   11.6491   14.9135 H   0  0  0  0  0  0  0  0  0  0  0  0
  1  2  2  0  0  0  0
  2  3  1  0  0  0  0
  3  4  2  0  0  0  0
  4  5  1  0  0  0  0
  5  6  2  0  0  0  0
  6  7  1  0  0  0  0
  7  8  2  0  0  0  0
  8  9  1  0  0  0  0
  9 10  1  0  0  0  0
 10 11  1  0  0  0  0
  8 12  1  0  0  0  0
  4 13  1  0  0  0  0
 13 14  2  0  0  0  0
 14 15  1  0  0  0  0
 15 16  1  0  0  0  0
 16 17  2  0  0  0  0
 17 18  1  0  0  0  0
 18 19  2  0  0  0  0
 19 20  1  0  0  0  0
 20 21  1  0  0  0  0
 21 22  1  0  0  0  0
 19 23  1  0  0  0  0
 15 24  2  0  0  0  0
 24 25  1  0  0  0  0
 14 26  1  0  0  0  0
 26 27  2  0  0  0  0
 27 28  1  0  0  0  0
 27 29  1  0  0  0  0
 29 30  2  0  0  0  0
 30 31  1  0  0  0  0
 31 32  2  0  0  0  0
 32 33  1  0  0  0  0
 33 34  2  0  0  0  0
 34 35  1  0  0  0  0
 35 36  2  0  0  0  0
 36 37  1  0  0  0  0
 37 38  1  0  0  0  0
 38 39  1  0  0  0  0
 36 40  1  0  0  0  0
 40 41  1  0  0  0  0
 40 42  2  0  0  0  0
 32 43  1  0  0  0  0
 43 44  2  0  0  0  0
 44 45  1  0  0  0  0
 45 46  1  0  0  0  0
 46 47  2  0  0  0  0
 47 48  1  0  0  0  0
 48 49  2  0  0  0  0
 49 50  1  0  0  0  0
 50 51  1  0  0  0  0
 51 52  1  0  0  0  0
 49 53  1  0  0  0  0
 53 54  2  0  0  0  0
 53 55  1  0  0  0  0
 45 56  2  0  0  0  0
 56 57  1  0  0  0  0
 44 58  1  0  0  0  0
 58 59  2  0  0  0  0
 59 60  1  0  0  0  0
 59 61  1  0  0  0  0
 61 62  2  0  0  0  0
 62 63  1  0  0  0  0
 63 64  2  0  0  0  0
 64 65  1  0  0  0  0
 65 66  2  0  0  0  0
 66 67  1  0  0  0  0
 67 68  2  0  0  0  0
 68 69  1  0  0  0  0
 69 70  1  0  0  0  0
 70 71  1  0  0  0  0
 68 72  1  0  0  0  0
 64 73  1  0  0  0  0
 73 74  2  0  0  0  0
 74 75  1  0  0  0  0
 75 76  1  0  0  0  0
 76 77  2  0  0  0  0
 77 78  1  0  0  0  0
 78 79  2  0  0  0  0
 79 80  1  0  0  0  0
 80 81  1  0  0  0  0
 81 82  1  0  0  0  0
 79 83  1  0  0  0  0
 75 84  2  0  0  0  0
 84 85  1  0  0  0  0
 74 86  1  0  0  0  0
 86 87  2  0  0  0  0
 87 88  1  0  0  0  0
 87 89  1  0  0  0  0
 89 90  2  0  0  0  0
 90 91  1  0  0  0  0
 91 92  2  0  0  0  0
 92 93  1  0  0  0  0
 93 94  2  0  0  0  0
 94 95  1  0  0  0  0
 95 96  2  0  0  0  0
 96 97  1  0  0  0  0
 97 98  1  0  0  0  0
 98 99  1  0  0  0  0
 96100  1  0  0  0  0
100101  1  0  0  0  0
100102  2  0  0  0  0
 92103  1  0  0  0  0
103104  2  0  0  0  0
104105  1  0  0  0  0
105106  1  0  0  0  0
106107  2  0  0  0  0
107108  1  0  0  0  0
108109  2  0  0  0  0
109110  1  0  0  0  0
110111  1  0  0  0  0
111112  1  0  0  0  0
109113  1  0  0  0  0
113114  2  0  0  0  0
113115  1  0  0  0  0
105116  2  0  0  0  0
116117  1  0  0  0  0
104118  1  0  0  0  0
118119  2  0  0  0  0
119120  1  0  0  0  0
119121  1  0  0  0  0
121122  2  0  0  0  0
122123  1  0  0  0  0
123124  2  0  0  0  0
124125  1  0  0  0  0
125126  2  0  0  0  0
126127  1  0  0  0  0
127128  2  0  0  0  0
128129  1  0  0  0  0
129130  1  0  0  0  0
130131  1  0  0  0  0
128132  1  0  0  0  0
132133  1  0  0  0  0
132134  2  0  0  0  0
124135  1  0  0  0  0
135136  2  0  0  0  0
136137  1  0  0  0  0
137138  1  0  0  0  0
138139  2  0  0  0  0
139140  1  0  0  0  0
140141  2  0  0  0  0
141142  1  0  0  0  0
142143  1  0  0  0  0
143144  1  0  0  0  0
141145  1  0  0  0  0
145146  2  0  0  0  0
145147  1  0  0  0  0
137148  2  0  0  0  0
148149  1  0  0  0  0
136150  1  0  0  0  0
150151  2  0  0  0  0
151152  1  0  0  0  0
151153  1  0  0  0  0
153154  2  0  0  0  0
154155  1  0  0  0  0
155156  2  0  0  0  0
156157  1  0  0  0  0
157158  2  0  0  0  0
158159  1  0  0  0  0
159160  2  0  0  0  0
160161  1  0  0  0  0
161162  1  0  0  0  0
162163  1  0  0  0  0
160164  1  0  0  0  0
156165  1  0  0  0  0
165166  2  0  0  0  0
166167  1  0  0  0  0
167168  1  0  0  0  0
168169  2  0  0  0  0
169170  1  0  0  0  0
170171  2  0  0  0  0
171172  1  0  0  0  0
172173  1  0  0  0  0
173174  1  0  0  0  0
171175  1  0  0  0  0
167176  2  0  0  0  0
176177  1  0  0  0  0
166178  1  0  0  0  0
178179  2  0  0  0  0
179180  1  0  0  0  0
 25  1  1  0  0  0  0
 57 29  1  0  0  0  0
 85 61  1  0  0  0  0
117 89  1  0  0  0  0
149121  1  0  0  0  0
177153  1  0  0  0  0
 24  3  1  0  0  0  0
 56 31  1  0  0  0  0
 84 63  1  0  0  0  0
116 91  1  0  0  0  0
148123  1  0  0  0  0
176155  1  0  0  0  0
 12  5  1  0  0  0  0
 28 13  1  0  0  0  0
 42 33  1  0  0  0  0
 60 43  1  0  0  0  0
 72 65  1  0  0  0  0
 88 73  1  0  0  0  0
102 93  1  0  0  0  0
120103  1  0  0  0  0
134125  1  0  0  0  0
152135  1  0  0  0  0
164157  1  0  0  0  0
180165  1  0  0  0  0
 23 16  1  0  0  0  0
 54 46  1  0  0  0  0
 83 76  1  0  0  0  0
114106  1  0  0  0  0
146138  1  0  0  0  0
175168  1  0  0  0  0
  1181  1  0  0  0  0
  2182  1  0  0  0  0
  6183  1  0  0  0  0
  7184  1  0  0  0  0
 10185  1  0  0  0  0
 10186  1  0  0  0  0
 11187  1  0  0  0  0
 11188  1  0  0  0  0
 11189  1  0  0  0  0
 17190  1  0  0  0  0
 18191  1  0  0  0  0
 21192  1  0  0  0  0
 21193  1  0  0  0  0
 22194  1  0  0  0  0
 22195  1  0  0  0  0
 22196  1  0  0  0  0
 26197  1  0  0  0  0
 30198  1  0  0  0  0
 34199  1  0  0  0  0
 35200  1  0  0  0  0
 38201  1  0  0  0  0
 38202  1  0  0  0  0
 39203  1  0  0  0  0
 39204  1  0  0  0  0
 39205  1  0  0  0  0
 42206  1  0  0  0  0
 47207  1  0  0  0  0
 48208  1  0  0  0  0
 51209  1  0  0  0  0
 51210  1  0  0  0  0
 52211  1  0  0  0  0
 52212  1  0  0  0  0
 52213  1  0  0  0  0
 54214  1  0  0  0  0
 58215  1  0  0  0  0
 62216  1  0  0  0  0
 66217  1  0  0  0  0
 67218  1  0  0  0  0
 70219  1  0  0  0  0
 70220  1  0  0  0  0
 71221  1  0  0  0  0
 71222  1  0  0  0  0
 71223  1  0  0  0  0
 77224  1  0  0  0  0
 78225  1  0  0  0  0
 81226  1  0  0  0  0
 81227  1  0  0  0  0
 82228  1  0  0  0  0
 82229  1  0  0  0  0
 82230  1  0  0  0  0
 86231  1  0  0  0  0
 90232  1  0  0  0  0
 94233  1  0  0  0  0
 95234  1  0  0  0  0
 98235  1  0  0  0  0
 98236  1  0  0  0  0
 99237  1  0  0  0  0
 99238  1  0  0  0  0
 99239  1  0  0  0  0
102240  1  0  0  0  0
107241  1  0  0  0  0
108242  1  0  0  0  0
111243  1  0  0  0  0
111244  1  0  0  0  0
112245  1  0  0  0  0
112246  1  0  0  0  0
112247  1  0  0  0  0
114248  1  0  0  0  0
118249  1  0  0  0  0
122250  1  0  0  0  0
126251  1  0  0  0  0
127252  1  0  0  0  0
130253  1  0  0  0  0
130254  1  0  0  0  0
131255  1  0  0  0  0
131256  1  0  0  0  0
131257  1  0  0  0  0
134258  1  0  0  0  0
139259  1  0  0  0  0
140260  1  0  0  0  0
143261  1  0  0  0  0
143262  1  0  0  0  0
144263  1  0  0  0  0
144264  1  0  0  0  0
144265  1  0  0  0  0
146266  1  0  0  0  0
150267  1  0  0  0  0
154268  1  0  0  0  0
158269  1  0  0  0  0
159270  1  0  0  0  0
162271  1  0  0  0  0
162272  1  0  0  0  0
163273  1  0  0  0  0
163274  1  0  0  0  0
163275  1  0  0  0  0
169276  1  0  0  0  0
170277  1  0  0  0  0
173278  1  0  0  0  0
173279  1  0  0  0  0
174280  1  0  0  0  0
174281  1  0  0  0  0
174282  1  0  0  0  0
178283  1  0  0  0  0
179284  1  0  0  0  0
M  END
