
  xtb     03082209093D
 energy: -306.864265196554 gnorm: 0.000293977999 xtb: 6.4.1 (unknown)
176196  0     0  0            999 V2000
    6.6338   -2.3884    7.2797 C   0  0  0  0  0  0  0  0  0  0  0  0
    7.3885   -2.0154    6.1825 C   0  0  0  0  0  0  0  0  0  0  0  0
    8.4435   -2.7465    5.4467 C   0  0  0  0  0  0  0  0  0  0  0  0
    8.8801   -3.8463    5.6385 O   0  0  0  0  0  0  0  0  0  0  0  0
    8.8737   -1.9488    4.4404 O   0  0  0  0  0  0  0  0  0  0  0  0
    8.1842   -0.7096    4.4219 C   0  0  0  0  0  0  0  0  0  0  0  0
    7.2259   -0.7772    5.5676 C   0  0  0  0  0  0  0  0  0  0  0  0
    6.3054    0.1320    6.0489 C   0  0  0  0  0  0  0  0  0  0  0  0
    5.5395   -0.2374    7.1424 C   0  0  0  0  0  0  0  0  0  0  0  0
    5.6836   -1.4871    7.7483 C   0  0  0  0  0  0  0  0  0  0  0  0
    4.8041   -1.8635    8.8719 C   0  0  0  0  0  0  0  0  0  0  0  0
    5.3370   -2.0289   10.1433 C   0  0  0  0  0  0  0  0  0  0  0  0
    6.7291   -1.8522   10.6160 C   0  0  0  0  0  0  0  0  0  0  0  0
    7.7058   -1.5287   10.0022 O   0  0  0  0  0  0  0  0  0  0  0  0
    6.7467   -2.1092   11.9472 O   0  0  0  0  0  0  0  0  0  0  0  0
    5.4566   -2.4410   12.4351 C   0  0  0  0  0  0  0  0  0  0  0  0
    4.5554   -2.3638   11.2450 C   0  0  0  0  0  0  0  0  0  0  0  0
    3.1929   -2.5400   11.1118 C   0  0  0  0  0  0  0  0  0  0  0  0
    2.6435   -2.3761    9.8527 C   0  0  0  0  0  0  0  0  0  0  0  0
    3.4157   -2.0513    8.7310 C   0  0  0  0  0  0  0  0  0  0  0  0
    2.7678   -1.9030    7.4408 C   0  0  0  0  0  0  0  0  0  0  0  0
    3.2988   -2.0661    6.2013 C   0  0  0  0  0  0  0  0  0  0  0  0
    2.4063   -1.7700    5.1424 C   0  0  0  0  0  0  0  0  0  0  0  0
    2.6963   -1.7373    3.7676 C   0  0  0  0  0  0  0  0  0  0  0  0
    4.0032   -2.0150    3.2083 C   0  0  0  0  0  0  0  0  0  0  0  0
    4.5906   -1.3409    2.1730 C   0  0  0  0  0  0  0  0  0  0  0  0
    5.7974   -1.8791    1.6897 C   0  0  0  0  0  0  0  0  0  0  0  0
    6.2130   -3.0281    2.3033 C   0  0  0  0  0  0  0  0  0  0  0  0
    7.6756   -3.8721    1.8562 S   0  0  0  0  0  0  0  0  0  0  0  0
    7.2815   -5.6114    2.2711 C   0  0  0  0  0  0  0  0  0  0  0  0
    7.5337   -5.9518    3.7244 C   0  0  0  0  0  0  0  0  0  0  0  0
    5.0571   -3.4957    3.7138 Se  0  0  0  0  0  2  0  0  0  0  0  0
    1.6301   -1.4217    2.9322 C   0  0  0  0  0  0  0  0  0  0  0  0
    0.3208   -1.1331    3.3864 C   0  0  0  0  0  0  0  0  0  0  0  0
    0.0621   -1.0636    4.7745 C   0  0  0  0  0  0  0  0  0  0  0  0
   -1.2253   -0.6562    5.2831 C   0  0  0  0  0  0  0  0  0  0  0  0
   -2.0786    0.2678    4.7422 C   0  0  0  0  0  0  0  0  0  0  0  0
   -3.2984    0.4582    5.4170 C   0  0  0  0  0  0  0  0  0  0  0  0
   -3.4702   -0.3136    6.5313 C   0  0  0  0  0  0  0  0  0  0  0  0
   -4.8674   -0.1967    7.5754 S   0  0  0  0  0  0  0  0  0  0  0  0
   -4.6935   -1.6980    8.6012 C   0  0  0  0  0  0  0  0  0  0  0  0
   -5.0444   -2.9589    7.8380 C   0  0  0  0  0  0  0  0  0  0  0  0
   -1.9618   -1.3983    6.8527 Se  0  0  0  0  0  2  0  0  0  0  0  0
    1.1244   -1.4046    5.6103 C   0  0  0  0  0  0  0  0  0  0  0  0
    1.0844   -1.4074    7.3529 S   0  0  0  0  0  0  0  0  0  0  0  0
   -0.5906   -1.0116    2.3040 C   0  0  0  0  0  0  0  0  0  0  0  0
   -0.0087   -1.1705    1.0818 C   0  0  0  0  0  0  0  0  0  0  0  0
    1.7158   -1.4541    1.1981 S   0  0  0  0  0  0  0  0  0  0  0  0
   -0.5691   -1.1693   -0.2275 C   0  0  0  0  0  0  0  0  0  0  0  0
    0.1532   -1.3894   -1.3621 C   0  0  0  0  0  0  0  0  0  0  0  0
   -0.6075   -1.3800   -2.5538 C   0  0  0  0  0  0  0  0  0  0  0  0
   -0.1299   -1.5125   -3.8748 C   0  0  0  0  0  0  0  0  0  0  0  0
    1.2727   -1.7175   -4.1661 C   0  0  0  0  0  0  0  0  0  0  0  0
    1.9841   -1.1718   -5.2019 C   0  0  0  0  0  0  0  0  0  0  0  0
    3.3656   -1.4398   -5.2163 C   0  0  0  0  0  0  0  0  0  0  0  0
    3.8138   -2.2310   -4.1956 C   0  0  0  0  0  0  0  0  0  0  0  0
    5.4930   -2.6499   -3.9326 S   0  0  0  0  0  0  0  0  0  0  0  0
    5.5629   -2.7934   -2.1050 C   0  0  0  0  0  0  0  0  0  0  0  0
    5.2470   -4.1892   -1.6102 C   0  0  0  0  0  0  0  0  0  0  0  0
    2.3945   -2.8018   -3.1123 Se  0  0  0  0  0  2  0  0  0  0  0  0
   -1.0846   -1.3557   -4.8778 C   0  0  0  0  0  0  0  0  0  0  0  0
   -2.4504   -1.0913   -4.6142 C   0  0  0  0  0  0  0  0  0  0  0  0
   -2.9292   -0.9809   -3.2922 C   0  0  0  0  0  0  0  0  0  0  0  0
   -4.3213   -0.7418   -2.9639 C   0  0  0  0  0  0  0  0  0  0  0  0
   -5.0114   -1.3097   -1.9279 C   0  0  0  0  0  0  0  0  0  0  0  0
   -6.3626   -0.9339   -1.7964 C   0  0  0  0  0  0  0  0  0  0  0  0
   -6.8009   -0.0301   -2.7171 C   0  0  0  0  0  0  0  0  0  0  0  0
   -8.4189    0.6330   -2.7718 S   0  0  0  0  0  0  0  0  0  0  0  0
   -8.6658    0.7526   -4.5801 C   0  0  0  0  0  0  0  0  0  0  0  0
   -8.7175   -0.6110   -5.2347 C   0  0  0  0  0  0  0  0  0  0  0  0
   -5.4139    0.4903   -3.8786 Se  0  0  0  0  0  2  0  0  0  0  0  0
   -1.9741   -1.1223   -2.2897 C   0  0  0  0  0  0  0  0  0  0  0  0
   -2.2640   -0.9215   -0.5749 S   0  0  0  0  0  0  0  0  0  0  0  0
   -3.1791   -0.9093   -5.8177 C   0  0  0  0  0  0  0  0  0  0  0  0
   -2.4223   -1.0143   -6.9395 C   0  0  0  0  0  0  0  0  0  0  0  0
   -0.7721   -1.4388   -6.5916 S   0  0  0  0  0  0  0  0  0  0  0  0
   -2.8231   -0.5558   -8.2639 C   0  0  0  0  0  0  0  0  0  0  0  0
   -2.8523   -1.3551   -9.3963 C   0  0  0  0  0  0  0  0  0  0  0  0
   -2.5136   -2.7849   -9.5649 C   0  0  0  0  0  0  0  0  0  0  0  0
   -2.1331   -3.5758   -8.7505 O   0  0  0  0  0  0  0  0  0  0  0  0
   -2.7199   -3.1025  -10.8677 O   0  0  0  0  0  0  0  0  0  0  0  0
   -3.1859   -1.9887  -11.6124 C   0  0  0  0  0  0  0  0  0  0  0  0
   -3.2753   -0.8653  -10.6287 C   0  0  0  0  0  0  0  0  0  0  0  0
   -3.6915    0.4430  -10.7678 C   0  0  0  0  0  0  0  0  0  0  0  0
   -3.6513    1.2611   -9.6476 C   0  0  0  0  0  0  0  0  0  0  0  0
   -3.2135    0.7904   -8.4124 C   0  0  0  0  0  0  0  0  0  0  0  0
   -3.1219    1.6723   -7.2475 C   0  0  0  0  0  0  0  0  0  0  0  0
   -4.1091    2.3380   -6.6036 C   0  0  0  0  0  0  0  0  0  0  0  0
   -3.6913    2.9420   -5.3791 C   0  0  0  0  0  0  0  0  0  0  0  0
   -4.4903    3.5968   -4.4189 C   0  0  0  0  0  0  0  0  0  0  0  0
   -5.8749    3.9140   -4.6703 C   0  0  0  0  0  0  0  0  0  0  0  0
   -6.4526    4.2694   -5.8623 C   0  0  0  0  0  0  0  0  0  0  0  0
   -7.8452    4.4563   -5.8443 C   0  0  0  0  0  0  0  0  0  0  0  0
   -8.4370    4.2423   -4.6282 C   0  0  0  0  0  0  0  0  0  0  0  0
  -10.1564    4.3521   -4.3427 S   0  0  0  0  0  0  0  0  0  0  0  0
  -10.1950    4.1006   -2.5299 C   0  0  0  0  0  0  0  0  0  0  0  0
  -11.6216    4.1395   -2.0244 C   0  0  0  0  0  0  0  0  0  0  0  0
   -7.1723    3.7978   -3.3097 Se  0  0  0  0  0  2  0  0  0  0  0  0
   -3.8731    3.8653   -3.1968 C   0  0  0  0  0  0  0  0  0  0  0  0
   -2.5274    3.5530   -2.9063 C   0  0  0  0  0  0  0  0  0  0  0  0
   -1.7113    2.9526   -3.8849 C   0  0  0  0  0  0  0  0  0  0  0  0
   -0.3477    2.5353   -3.6354 C   0  0  0  0  0  0  0  0  0  0  0  0
    0.6727    2.4713   -4.5463 C   0  0  0  0  0  0  0  0  0  0  0  0
    1.8722    1.8778   -4.1063 C   0  0  0  0  0  0  0  0  0  0  0  0
    1.8439    1.4171   -2.8236 C   0  0  0  0  0  0  0  0  0  0  0  0
    3.0906    0.5924   -1.9157 S   0  0  0  0  0  0  0  0  0  0  0  0
    4.6189    1.0643   -2.8007 C   0  0  0  0  0  0  0  0  0  0  0  0
    4.9252    2.5424   -2.6705 C   0  0  0  0  0  0  0  0  0  0  0  0
    0.2055    1.7729   -1.9948 Se  0  0  0  0  0  2  0  0  0  0  0  0
   -2.3286    2.6852   -5.1072 C   0  0  0  0  0  0  0  0  0  0  0  0
   -1.5796    1.8444   -6.4348 S   0  0  0  0  0  0  0  0  0  0  0  0
   -2.1780    3.9388   -1.5779 C   0  0  0  0  0  0  0  0  0  0  0  0
   -3.2011    4.4975   -0.9018 C   0  0  0  0  0  0  0  0  0  0  0  0
   -4.6548    4.6101   -1.8295 S   0  0  0  0  0  0  0  0  0  0  0  0
    6.7700   -3.3543    7.7393 H   0  0  0  0  0  0  0  0  0  0  0  0
    8.9139    0.1007    4.5274 H   0  0  0  0  0  0  0  0  0  0  0  0
    7.6791   -0.6055    3.4542 H   0  0  0  0  0  0  0  0  0  0  0  0
    6.1801    1.0999    5.5887 H   0  0  0  0  0  0  0  0  0  0  0  0
    4.8064    0.4507    7.5369 H   0  0  0  0  0  0  0  0  0  0  0  0
    5.1835   -1.7275   13.2206 H   0  0  0  0  0  0  0  0  0  0  0  0
    5.4921   -3.4448   12.8739 H   0  0  0  0  0  0  0  0  0  0  0  0
    2.5728   -2.7938   11.9571 H   0  0  0  0  0  0  0  0  0  0  0  0
    1.5796   -2.5076    9.7183 H   0  0  0  0  0  0  0  0  0  0  0  0
    4.3027   -2.4091    6.0302 H   0  0  0  0  0  0  0  0  0  0  0  0
    4.1615   -0.4473    1.7522 H   0  0  0  0  0  0  0  0  0  0  0  0
    6.3445   -1.4441    0.8709 H   0  0  0  0  0  0  0  0  0  0  0  0
    7.9324   -6.1896    1.6152 H   0  0  0  0  0  0  0  0  0  0  0  0
    6.2409   -5.7794    1.9859 H   0  0  0  0  0  0  0  0  0  0  0  0
    8.5375   -5.6622    4.0247 H   0  0  0  0  0  0  0  0  0  0  0  0
    6.8292   -5.4318    4.3771 H   0  0  0  0  0  0  0  0  0  0  0  0
    7.4122   -7.0225    3.8758 H   0  0  0  0  0  0  0  0  0  0  0  0
   -1.8171    0.8473    3.8730 H   0  0  0  0  0  0  0  0  0  0  0  0
   -4.0454    1.1585    5.0852 H   0  0  0  0  0  0  0  0  0  0  0  0
   -5.3707   -1.5397    9.4398 H   0  0  0  0  0  0  0  0  0  0  0  0
   -3.6625   -1.7187    8.9688 H   0  0  0  0  0  0  0  0  0  0  0  0
   -4.9548   -3.8235    8.4922 H   0  0  0  0  0  0  0  0  0  0  0  0
   -4.3705   -3.0952    6.9920 H   0  0  0  0  0  0  0  0  0  0  0  0
   -6.0640   -2.9046    7.4639 H   0  0  0  0  0  0  0  0  0  0  0  0
   -1.6490   -0.8634    2.4189 H   0  0  0  0  0  0  0  0  0  0  0  0
    1.2207   -1.5176   -1.3163 H   0  0  0  0  0  0  0  0  0  0  0  0
    1.5340   -0.5018   -5.9144 H   0  0  0  0  0  0  0  0  0  0  0  0
    4.0324   -1.0265   -5.9543 H   0  0  0  0  0  0  0  0  0  0  0  0
    6.5837   -2.5131   -1.8452 H   0  0  0  0  0  0  0  0  0  0  0  0
    4.8634   -2.0596   -1.6986 H   0  0  0  0  0  0  0  0  0  0  0  0
    4.2289   -4.4738   -1.8828 H   0  0  0  0  0  0  0  0  0  0  0  0
    5.3340   -4.2140   -0.5258 H   0  0  0  0  0  0  0  0  0  0  0  0
    5.9376   -4.9123   -2.0373 H   0  0  0  0  0  0  0  0  0  0  0  0
   -4.5716   -2.0574   -1.2897 H   0  0  0  0  0  0  0  0  0  0  0  0
   -7.0116   -1.3452   -1.0426 H   0  0  0  0  0  0  0  0  0  0  0  0
   -7.8460    1.3606   -4.9789 H   0  0  0  0  0  0  0  0  0  0  0  0
   -9.6039    1.2928   -4.7031 H   0  0  0  0  0  0  0  0  0  0  0  0
   -8.8953   -0.5011   -6.3025 H   0  0  0  0  0  0  0  0  0  0  0  0
   -7.7738   -1.1388   -5.0931 H   0  0  0  0  0  0  0  0  0  0  0  0
   -9.5170   -1.2096   -4.8043 H   0  0  0  0  0  0  0  0  0  0  0  0
   -4.2330   -0.6886   -5.8619 H   0  0  0  0  0  0  0  0  0  0  0  0
   -2.4763   -1.7843  -12.4222 H   0  0  0  0  0  0  0  0  0  0  0  0
   -4.1558   -2.2422  -12.0549 H   0  0  0  0  0  0  0  0  0  0  0  0
   -4.0301    0.8253  -11.7180 H   0  0  0  0  0  0  0  0  0  0  0  0
   -3.9510    2.2953   -9.7297 H   0  0  0  0  0  0  0  0  0  0  0  0
   -5.1323    2.3210   -6.9348 H   0  0  0  0  0  0  0  0  0  0  0  0
   -5.8687    4.4469   -6.7500 H   0  0  0  0  0  0  0  0  0  0  0  0
   -8.4092    4.7449   -6.7145 H   0  0  0  0  0  0  0  0  0  0  0  0
   -9.5905    4.8967   -2.0859 H   0  0  0  0  0  0  0  0  0  0  0  0
   -9.7280    3.1315   -2.3283 H   0  0  0  0  0  0  0  0  0  0  0  0
  -12.0814    5.0988   -2.2508 H   0  0  0  0  0  0  0  0  0  0  0  0
  -12.2115    3.3543   -2.4912 H   0  0  0  0  0  0  0  0  0  0  0  0
  -11.6324    3.9905   -0.9473 H   0  0  0  0  0  0  0  0  0  0  0  0
    0.5888    2.8846   -5.5373 H   0  0  0  0  0  0  0  0  0  0  0  0
    2.7276    1.7843   -4.7524 H   0  0  0  0  0  0  0  0  0  0  0  0
    5.3926    0.4602   -2.3273 H   0  0  0  0  0  0  0  0  0  0  0  0
    4.5146    0.7479   -3.8375 H   0  0  0  0  0  0  0  0  0  0  0  0
    4.1299    3.1434   -3.1068 H   0  0  0  0  0  0  0  0  0  0  0  0
    5.8560    2.7703   -3.1861 H   0  0  0  0  0  0  0  0  0  0  0  0
    5.0294    2.8169   -1.6231 H   0  0  0  0  0  0  0  0  0  0  0  0
   -1.1926    3.8230   -1.1573 H   0  0  0  0  0  0  0  0  0  0  0  0
   -3.2045    4.8722    0.1029 H   0  0  0  0  0  0  0  0  0  0  0  0
  1  2  2  0  0  0  0
  2  3  1  0  0  0  0
  3  4  2  0  0  0  0
  3  5  1  0  0  0  0
  5  6  1  0  0  0  0
  6  7  1  0  0  0  0
  7  8  2  0  0  0  0
  8  9  1  0  0  0  0
  9 10  2  0  0  0  0
 10 11  1  0  0  0  0
 11 12  2  0  0  0  0
 12 13  1  0  0  0  0
 13 14  2  0  0  0  0
 13 15  1  0  0  0  0
 15 16  1  0  0  0  0
 16 17  1  0  0  0  0
 17 18  2  0  0  0  0
 18 19  1  0  0  0  0
 19 20  2  0  0  0  0
 20 21  1  0  0  0  0
 21 22  2  0  0  0  0
 22 23  1  0  0  0  0
 23 24  2  0  0  0  0
 24 25  1  0  0  0  0
 25 26  2  0  0  0  0
 26 27  1  0  0  0  0
 27 28  2  0  0  0  0
 28 29  1  0  0  0  0
 29 30  1  0  0  0  0
 30 31  1  0  0  0  0
 28 32  1  0  0  0  0
 24 33  1  0  0  0  0
 33 34  2  0  0  0  0
 34 35  1  0  0  0  0
 35 36  1  0  0  0  0
 36 37  2  0  0  0  0
 37 38  1  0  0  0  0
 38 39  2  0  0  0  0
 39 40  1  0  0  0  0
 40 41  1  0  0  0  0
 41 42  1  0  0  0  0
 39 43  1  0  0  0  0
 35 44  2  0  0  0  0
 44 45  1  0  0  0  0
 34 46  1  0  0  0  0
 46 47  2  0  0  0  0
 47 48  1  0  0  0  0
 47 49  1  0  0  0  0
 49 50  2  0  0  0  0
 50 51  1  0  0  0  0
 51 52  2  0  0  0  0
 52 53  1  0  0  0  0
 53 54  2  0  0  0  0
 54 55  1  0  0  0  0
 55 56  2  0  0  0  0
 56 57  1  0  0  0  0
 57 58  1  0  0  0  0
 58 59  1  0  0  0  0
 56 60  1  0  0  0  0
 52 61  1  0  0  0  0
 61 62  2  0  0  0  0
 62 63  1  0  0  0  0
 63 64  1  0  0  0  0
 64 65  2  0  0  0  0
 65 66  1  0  0  0  0
 66 67  2  0  0  0  0
 67 68  1  0  0  0  0
 68 69  1  0  0  0  0
 69 70  1  0  0  0  0
 67 71  1  0  0  0  0
 63 72  2  0  0  0  0
 72 73  1  0  0  0  0
 62 74  1  0  0  0  0
 74 75  2  0  0  0  0
 75 76  1  0  0  0  0
 75 77  1  0  0  0  0
 77 78  2  0  0  0  0
 78 79  1  0  0  0  0
 79 80  2  0  0  0  0
 79 81  1  0  0  0  0
 81 82  1  0  0  0  0
 82 83  1  0  0  0  0
 83 84  2  0  0  0  0
 84 85  1  0  0  0  0
 85 86  2  0  0  0  0
 86 87  1  0  0  0  0
 87 88  2  0  0  0  0
 88 89  1  0  0  0  0
 89 90  2  0  0  0  0
 90 91  1  0  0  0  0
 91 92  2  0  0  0  0
 92 93  1  0  0  0  0
 93 94  2  0  0  0  0
 94 95  1  0  0  0  0
 95 96  1  0  0  0  0
 96 97  1  0  0  0  0
 94 98  1  0  0  0  0
 90 99  1  0  0  0  0
 99100  2  0  0  0  0
100101  1  0  0  0  0
101102  1  0  0  0  0
102103  2  0  0  0  0
103104  1  0  0  0  0
104105  2  0  0  0  0
105106  1  0  0  0  0
106107  1  0  0  0  0
107108  1  0  0  0  0
105109  1  0  0  0  0
101110  2  0  0  0  0
110111  1  0  0  0  0
100112  1  0  0  0  0
112113  2  0  0  0  0
113114  1  0  0  0  0
 10  1  1  0  0  0  0
 20 11  1  0  0  0  0
 45 21  1  0  0  0  0
 73 49  1  0  0  0  0
 86 77  1  0  0  0  0
111 87  1  0  0  0  0
  7  2  1  0  0  0  0
 17 12  1  0  0  0  0
 44 23  1  0  0  0  0
 72 51  1  0  0  0  0
 83 78  1  0  0  0  0
110 89  1  0  0  0  0
 32 25  1  0  0  0  0
 48 33  1  0  0  0  0
 60 53  1  0  0  0  0
 76 61  1  0  0  0  0
 98 91  1  0  0  0  0
114 99  1  0  0  0  0
 43 36  1  0  0  0  0
 71 64  1  0  0  0  0
109102  1  0  0  0  0
  1115  1  0  0  0  0
  6116  1  0  0  0  0
  6117  1  0  0  0  0
  8118  1  0  0  0  0
  9119  1  0  0  0  0
 16120  1  0  0  0  0
 16121  1  0  0  0  0
 18122  1  0  0  0  0
 19123  1  0  0  0  0
 22124  1  0  0  0  0
 26125  1  0  0  0  0
 27126  1  0  0  0  0
 30127  1  0  0  0  0
 30128  1  0  0  0  0
 31129  1  0  0  0  0
 31130  1  0  0  0  0
 31131  1  0  0  0  0
 37132  1  0  0  0  0
 38133  1  0  0  0  0
 41134  1  0  0  0  0
 41135  1  0  0  0  0
 42136  1  0  0  0  0
 42137  1  0  0  0  0
 42138  1  0  0  0  0
 46139  1  0  0  0  0
 50140  1  0  0  0  0
 54141  1  0  0  0  0
 55142  1  0  0  0  0
 58143  1  0  0  0  0
 58144  1  0  0  0  0
 59145  1  0  0  0  0
 59146  1  0  0  0  0
 59147  1  0  0  0  0
 65148  1  0  0  0  0
 66149  1  0  0  0  0
 69150  1  0  0  0  0
 69151  1  0  0  0  0
 70152  1  0  0  0  0
 70153  1  0  0  0  0
 70154  1  0  0  0  0
 74155  1  0  0  0  0
 82156  1  0  0  0  0
 82157  1  0  0  0  0
 84158  1  0  0  0  0
 85159  1  0  0  0  0
 88160  1  0  0  0  0
 92161  1  0  0  0  0
 93162  1  0  0  0  0
 96163  1  0  0  0  0
 96164  1  0  0  0  0
 97165  1  0  0  0  0
 97166  1  0  0  0  0
 97167  1  0  0  0  0
103168  1  0  0  0  0
104169  1  0  0  0  0
107170  1  0  0  0  0
107171  1  0  0  0  0
108172  1  0  0  0  0
108173  1  0  0  0  0
108174  1  0  0  0  0
112175  1  0  0  0  0
113176  1  0  0  0  0
M  END
