167

C         -1.10530       -4.15830       14.41520
C         -0.35740       -4.82600       13.51450
C         -0.47020       -4.30290       12.19200
C          0.12170       -4.79840       11.01360
C          1.04570       -5.91390       11.00210
C          1.11470       -6.91510       10.07510
C          2.17690       -7.82870       10.22590
C          3.01430       -7.57630       11.27240
S          4.34370       -8.61450       11.73290
C          5.42230       -7.43520       12.61940
C          6.06370       -6.43340       11.68160
Se         2.45080       -6.06670       12.25170
C         -0.21760       -4.14190        9.83350
C         -1.08620       -3.02690        9.79440
C         -1.70600       -2.54690       10.96620
C         -2.68950       -1.48780       10.93350
C         -2.94100       -0.53390       11.88060
C         -4.04550        0.30660       11.64310
C         -4.74850        0.03580       10.50310
S         -6.16980        0.92810       10.00470
C         -6.77750       -0.04010        8.57730
C         -6.07080        0.30550        7.28240
Se        -3.97050       -1.38100        9.54880
C         -1.35980       -3.20370       12.14570
S         -1.99960       -2.84850       13.72910
C         -1.19280       -2.49330        8.49010
C         -0.48920       -3.18420        7.54570
S          0.38810       -4.52590        8.24020
C         -0.48270       -2.86890        6.15450
C         -1.32860       -1.97580        5.56190
C         -1.10900       -1.80480        4.17760
C         -1.75870       -0.88620        3.32710
C         -2.67090        0.11790        3.82730
C         -3.75400        0.66500        3.19600
C         -4.39080        1.73200        3.85840
C         -3.81950        2.10560        5.04220
S         -4.41600        3.41910        6.03420
C         -3.10690        3.59760        7.29820
C         -3.25990        2.62530        8.44990
Se        -2.35300        1.01040        5.46130
C         -1.39920       -0.95210        1.98530
C         -0.41760       -1.84250        1.48470
C          0.29330       -2.70060        2.35380
C          1.38910       -3.52830        1.89830
C          1.76090       -4.75530        2.37860
C          2.88640       -5.34740        1.77310
C          3.47270       -4.60690        0.78850
S          4.87560       -5.10870       -0.13120
C          4.44050       -4.51440       -1.81320
C          4.91960       -3.10330       -2.08410
Se         2.60970       -2.95090        0.57910
C         -0.09510       -2.66480        3.69270
S          0.60750       -3.59240        4.99720
C         -0.25270       -1.69580        0.08540
C         -1.01120       -0.70550       -0.46250
S         -2.02590        0.07920        0.72660
C         -1.01200       -0.25740       -1.81140
C         -1.77380        0.73420       -2.35220
C         -1.48270        1.00530       -3.71020
C         -2.04100        2.01040       -4.52780
C         -2.98400        2.97970       -4.01090
C         -4.07820        3.50480       -4.63870
C         -4.80950        4.46520       -3.91150
C         -4.30490        4.76950       -2.67970
S         -4.99320        5.96810       -1.60630
C         -4.19960        5.54230       -0.01510
C         -4.75010        4.26690        0.58990
Se        -2.73300        3.79870       -2.32890
C         -1.59790        2.04760       -5.84510
C         -0.60270        1.17500       -6.35690
C         -0.01190        0.19960       -5.52530
C          1.06740       -0.66270       -5.95900
C          1.27600       -1.96350       -5.59290
C          2.48300       -2.54730       -6.02640
C          3.29540       -1.72320       -6.74700
S          4.80800       -2.22940       -7.47220
C          5.74110       -0.65610       -7.44570
C          6.09790       -0.23270       -6.03600
Se         2.50500       -0.02770       -7.00150
C         -0.48960        0.13590       -4.21930
S          0.09140       -0.94980       -2.98160
C         -0.32280        1.44250       -7.71610
C         -1.04320        2.48780       -8.22560
S         -2.12620        3.19250       -7.05580
C         -0.98270        3.00310       -9.54460
O         -0.10730        2.47440      -10.43800
C         -0.25140        3.14860      -11.59360
C         -1.22320        4.12390      -11.47330
C         -1.69570        4.03280      -10.15080
O         -2.64140        4.74420       -9.50200
C         -3.27360        5.76150      -10.24520
C          0.56810        2.78840      -12.70000
O          1.47650        1.79100      -12.55460
C          2.11620        1.64810      -13.72540
C          1.63630        2.54940      -14.65530
C          0.63500        3.28910      -13.99540
O         -0.14700        4.29440      -14.45250
C          0.05700        4.66770      -15.79810
C          3.13090        0.64850      -13.82580
O          3.79790        0.45340      -14.99240
C          4.67340       -0.53910      -14.78700
C          4.60480       -1.00850      -13.50910
C          3.59980       -0.24010      -12.86860
O          3.13740       -0.28850      -11.60590
C          3.70680       -1.25890      -10.75790
H         -1.19930       -4.34880       15.46630
H          0.23930       -5.68430       13.77190
H          0.38780       -7.01840        9.28740
H          2.32880       -8.66080        9.56070
H          4.80800       -6.94360       13.38040
H          6.16920       -8.05770       13.11050
H          6.65020       -6.94580       10.92250
H          6.71720       -5.76790       12.24190
H          5.30360       -5.83180       11.18380
H         -2.31370       -0.40660       12.74640
H         -4.33050        1.09680       12.31570
H         -6.66290       -1.09670        8.83400
H         -7.83840        0.20150        8.51780
H         -6.16660        1.36650        7.06550
H         -6.50870       -0.25940        6.46230
H         -5.00980        0.05500        7.33900
H         -1.72050       -1.58480        8.25830
H         -2.13160       -1.50310        6.10020
H         -4.12490        0.28540        2.25950
H         -5.25720        2.23020        3.45890
H         -2.14860        3.47460        6.78640
H         -3.20040        4.62720        7.64270
H         -2.48550        2.80880        9.19160
H         -3.16180        1.59430        8.10460
H         -4.23150        2.74250        8.92320
H          1.18810       -5.27940        3.12440
H          3.24530       -6.32550        2.04250
H          3.35650       -4.59510       -1.90690
H          4.91790       -5.22530       -2.48710
H          5.99850       -3.03660       -1.96560
H          4.44940       -2.39850       -1.39630
H          4.65650       -2.81590       -3.10030
H          0.37980       -2.31330       -0.52960
H         -2.53870        1.23020       -1.77870
H         -4.39900        3.16410       -5.60830
H         -5.70870        4.92060       -4.28860
H         -3.12330        5.47020       -0.20040
H         -4.39480        6.40080        0.62650
H         -4.26000        4.06920        1.54110
H         -5.82110        4.35700        0.75600
H         -4.56990        3.41810       -0.07020
H          0.55310       -2.52300       -5.02440
H          2.75400       -3.56390       -5.79830
H          5.12410        0.09360       -7.95000
H          6.63220       -0.85090       -8.04130
H          6.67580        0.68860       -6.06120
H          5.19610       -0.05840       -5.45000
H          6.68670       -1.00410       -5.54490
H          0.35950        0.88210       -8.33220
H         -1.52590        4.79350      -12.24970
H         -3.98920        6.22420       -9.56830
H         -2.55150        6.51020      -10.58470
H         -3.79970        5.34910      -11.11170
H          1.97690        2.64280      -15.66510
H         -0.14470        3.83320      -16.47610
H         -0.64630        5.47450      -15.99550
H          1.07810        5.02570      -15.95990
H          5.29060       -0.82720      -15.61450
H          5.19250       -1.79720      -13.08720
H          3.21160       -1.13510       -9.79530
H          3.52690       -2.27290      -11.12770
H          4.78380       -1.10610      -10.63760
