121

C          5.99220       -8.22620        6.31260
C          6.19050       -7.94150        7.67630
N          6.09740       -8.69030        8.76030
O          6.41400       -7.90160        9.78420
N          6.71100       -6.65720        9.41870
C          6.58980       -6.62200        8.10560
C          6.76100       -5.56360        7.17500
C          6.57530       -5.90250        5.85560
C          6.20220       -7.20030        5.43680
C          7.18320       -4.25280        7.64000
C          6.74290       -3.05990        7.21130
C          5.63230       -2.82220        6.32930
C          4.52290       -3.58680        6.12570
C          3.59400       -3.02950        5.21500
C          2.34780       -3.57210        4.82620
C          1.95000       -4.90120        5.22540
C          2.75200       -6.00360        5.35300
C          2.12490       -7.18220        5.79610
C          0.78480       -7.06740        6.03930
S         -0.22210       -8.41160        6.52390
C         -1.77950       -7.57120        6.97620
C         -1.68200       -6.85330        8.30690
Se         0.16660       -5.32690        5.66140
C          1.55250       -2.75220        4.03520
C          1.96300       -1.47950        3.57060
C          3.22500       -0.94870        3.92420
C          3.65180        0.36760        3.51280
C          4.93630        0.79040        3.28010
C          5.09930        2.14830        2.96160
C          3.94390        2.88230        2.94990
S          3.85820        4.58400        2.57810
C          2.04210        4.82500        2.58620
C          1.69840        6.25260        2.21730
Se         2.45190        1.81980        3.35420
C          4.00880       -1.75950        4.74590
S          5.56140       -1.33070        5.41450
C          0.98400       -0.88890        2.74280
C         -0.15470       -1.62850        2.60370
S         -0.04450       -3.15350        3.46130
C         -1.31910       -1.25330        1.86550
C         -1.43260        0.04830        1.29980
N         -0.62910        1.09320        1.34220
O         -1.23770        2.06220        0.65710
N         -2.41480        1.68620        0.16530
C         -2.59540        0.43440        0.53410
C         -3.67170       -0.47220        0.31110
C         -3.52480       -1.71260        0.91350
C         -2.40260       -2.08790        1.65770
C         -4.81500       -0.15910       -0.49120
C         -4.96310        0.98590       -1.19160
C         -6.06060        1.30000       -2.05970
C         -5.94720        2.43360       -2.91260
N         -5.00580        3.34950       -3.01020
O         -5.39550        4.18720       -3.96700
N         -6.56640        3.84790       -4.51240
C         -6.95690        2.75210       -3.89010
C         -8.12090        1.95100       -4.03070
C         -8.24200        0.92620       -3.11620
C         -7.24630        0.59840       -2.18290
C         -9.11330        2.21590       -5.05160
C         -8.85010        2.63270       -6.29960
C         -7.53580        2.72890       -6.90040
C         -6.50120        1.79620       -6.62140
N         -6.47920        0.70750       -5.87630
O         -5.24750        0.20470       -5.98790
N         -4.46230        0.92570       -6.78200
C         -5.19400        1.93240       -7.21370
C         -4.87590        3.00080       -8.09830
C         -5.93150        3.84830       -8.38160
C         -7.20920        3.70460       -7.81870
C         -3.53570        3.09960       -8.60360
C         -3.05350        4.10490       -9.36370
C         -1.70390        4.18930       -9.83940
C         -0.71270        3.19790       -9.58880
N         -0.75130        2.05200       -8.93820
O          0.47010        1.52920       -9.02220
N          1.31660        2.29150       -9.70760
C          0.63250        3.35260      -10.08930
C          1.03500        4.48490      -10.84630
C          0.04130        5.41610      -11.06860
C         -1.26730        5.27090      -10.58620
C          2.40480        4.56970      -11.30830
C          2.93720        5.57200      -12.00290
H          5.70050       -9.21420        5.99890
H          6.72490       -5.14570        5.09970
H          6.08270       -7.37310        4.37700
H          7.93060       -4.27880        8.42180
H          7.22970       -2.16670        7.58110
H          4.34520       -4.49860        6.66410
H          3.79660       -5.98590        5.09110
H          2.65640       -8.10800        5.93420
H         -2.02310       -6.88330        6.16010
H         -2.52290       -8.36700        7.00880
H         -0.91900       -6.07540        8.26870
H         -1.42410       -7.55320        9.09810
H         -2.63580       -6.38740        8.54530
H          5.77380        0.11380        3.28400
H          6.05700        2.58450        2.73680
H          1.61870        4.11660        1.86810
H          1.68820        4.57750        3.59150
H          0.61860        6.38180        2.22160
H          2.13810        6.94790        2.92870
H          2.07400        6.48920        1.22470
H          1.09720        0.04260        2.21860
H         -4.31480       -2.43920        0.78980
H         -2.37120       -3.08150        2.08130
H         -5.56550       -0.93680       -0.54380
H         -4.18190        1.73170       -1.15150
H         -9.12560        0.30580       -3.15510
H         -7.42150       -0.25300       -1.54350
H        -10.14320        2.06740       -4.75340
H         -9.67450        2.91310       -6.94280
H         -5.77810        4.67040       -9.06370
H         -7.96620        4.42630       -8.09010
H         -2.87580        2.29260       -8.31750
H         -3.68870        4.93390       -9.64710
H          0.26900        6.30340      -11.63900
H         -1.97580        6.05600      -10.81020
H          3.01200        3.71700      -11.03610
H          2.37530        6.44320      -12.29420
H          3.96960        5.55250      -12.30520
