136

C          3.26920       -2.28410        2.09080
C          3.91330       -2.30230        0.89440
C          3.16950       -1.62060       -0.08790
C          1.96140       -1.09330        0.39730
S          1.74420       -1.45570        2.07230
C          1.37200       -0.39210       -0.66170
C          2.23780       -0.51560       -1.76320
N          3.32330       -1.27140       -1.40310
C          1.81560        0.21120       -2.88220
C          0.64010        0.88910       -2.64690
S          0.01670        0.60880       -1.02680
C          0.06500        1.84820       -3.53780
C         -1.00090        2.63300       -3.31660
C         -1.91480        2.52550       -2.19610
C         -2.76870        1.49280       -1.92030
C         -3.58010        1.77220       -0.80980
C         -3.32050        3.01940       -0.21500
S         -2.09260        3.87550       -1.07680
C         -4.21360        3.14800        0.85780
C         -5.00960        1.98820        0.85930
N         -4.62040        1.16760       -0.16200
C         -6.00940        1.98980        1.84320
C         -5.94910        3.10720        2.63040
S         -4.66110        4.21280        2.14330
C         -6.91680        3.51390        3.62500
C         -6.69900        3.89370        4.89480
C         -5.51150        3.78510        5.68240
C         -5.40350        4.26190        6.97200
C         -4.21060        3.86570        7.57900
C         -3.39390        3.06520        6.75500
S         -4.11100        2.83910        5.19960
C         -2.28250        2.70170        7.52420
C         -2.45340        3.29230        8.79220
N         -3.62270        4.00670        8.80770
C         -1.43340        2.98920        9.69310
C         -0.48620        2.13970        9.15090
S         -0.83830        1.75770        7.46900
C          0.68090        1.74280        9.87280
C          1.61050        0.77690        9.68920
C          1.70300       -0.30510        8.76320
C          2.87870       -0.97670        8.47960
C          2.68900       -1.99730        7.54580
C          1.34540       -2.13660        7.14750
S          0.32070       -1.00230        7.93650
C          1.31930       -3.09770        6.13960
C          2.64910       -3.52660        5.93740
N          3.46550       -2.87270        6.82700
C          2.80400       -4.37080        4.83360
C          1.60280       -4.58060        4.18200
S          0.24510       -3.79990        5.00270
C          1.29760       -4.99100        2.86080
C          2.14300       -5.15960        1.81300
C          1.69380       -4.90930        0.48280
C          0.49290       -4.35780        0.12960
C          0.45420       -3.81730       -1.17020
C         -0.56310       -3.00880       -1.71330
C         -1.70120       -2.59380       -0.91980
C         -3.01480       -2.51950       -1.28750
C         -3.89740       -2.01890       -0.30860
C         -3.30640       -1.64210        0.86670
S         -4.17190       -1.04260        2.26540
C         -2.81200       -0.46300        3.33550
C         -2.18060        0.82340        2.84740
Se        -1.45640       -1.93850        0.82970
C         -0.34050       -2.53400       -2.99710
C          0.84270       -2.78750       -3.73310
C          1.88170       -3.55660       -3.16110
C          3.14560       -3.75970       -3.83610
C          3.86310       -2.86660       -4.58200
C          5.05300       -3.35340       -5.15990
C          5.32950       -4.66380       -4.89430
S          6.78730       -5.46820       -5.43250
C          6.34870       -7.22710       -5.20120
C          5.35150       -7.71310       -6.23260
Se         4.02160       -5.42930       -3.77000
C          1.64720       -4.06000       -1.88620
S          2.80090       -4.91060       -0.88350
C          0.83470       -2.10700       -4.97500
C         -0.26230       -1.31780       -5.16750
S         -1.40710       -1.45360       -3.85030
C         -0.49520       -0.38430       -6.21320
C         -1.56200        0.47520       -6.34320
C         -1.40200        1.33070       -7.43740
C         -0.20190        1.12460       -8.14630
S          0.73240       -0.14750       -7.45320
C         -0.17950        2.05690       -9.18690
C         -1.36600        2.80760       -9.08560
N         -2.10010        2.35460       -8.02060
C         -1.48130        3.80230      -10.06480
C         -0.39530        3.81880      -10.90730
S          0.79660        2.58970      -10.50280
C         -0.18550        4.71300      -12.01010
C          0.88720        4.71470      -12.79790
H          3.59070       -2.71150        3.01890
H          4.86380       -2.77490        0.72650
H          4.07870       -1.55030       -2.00550
H          2.34370        0.27160       -3.81710
H          0.62950        1.99240       -4.45110
H         -1.21200        3.42970       -4.01990
H         -2.80660        0.58740       -2.49850
H         -4.95890        0.23710       -0.33380
H         -6.72280        1.20050        1.99450
H         -7.94020        3.52940        3.26690
H         -7.54690        4.26720        5.45690
H         -6.16610        4.85790        7.43990
H         -4.00290        4.50700        9.59170
H         -1.38350        3.34340       10.70730
H          0.84390        2.37630       10.73870
H          2.45580        0.80880       10.36840
H          3.82440       -0.69710        8.90750
H          4.46620       -2.94760        6.87600
H          3.73670       -4.78780        4.49820
H          0.23910       -4.93840        2.64400
H          3.20410       -5.29750        1.95900
H         -0.34380       -4.30270        0.80340
H         -3.35940       -2.85210       -2.25250
H         -4.96410       -1.97610       -0.46150
H         -3.27600       -0.32360        4.31150
H         -2.08150       -1.27750        3.39630
H         -2.92400        1.61330        2.78580
H         -1.72580        0.69410        1.86470
H         -1.40570        1.12860        3.54700
H          3.55800       -1.84090       -4.70390
H          5.69600       -2.74330       -5.77040
H          7.29630       -7.75910       -5.28260
H          5.96280       -7.33070       -4.18230
H          5.74710       -7.57950       -7.23700
H          4.41530       -7.16040       -6.15130
H          5.14270       -8.76900       -6.07410
H          1.61500       -2.18530       -5.71000
H         -2.39190        0.47970       -5.66030
H         -2.98670        2.71490       -7.71410
H         -2.31010        4.48050      -10.15980
H         -0.98590        5.42380      -12.17320
H          1.69290        4.01520      -12.64810
H          0.99200        5.41150      -13.61000
