
  xtb     03082201153D
 energy: -260.978897198822 gnorm: 0.000502197870 xtb: 6.4.1 (unknown)
161175  0     0  0            999 V2000
    6.4596    5.9301   10.3989 C   0  0  0  0  0  0  0  0  0  0  0  0
    4.9781    5.2615   10.9556 S   0  0  0  0  0  0  0  0  0  0  0  0
    4.5508    4.7258    9.3470 C   0  0  0  0  0  0  0  0  0  0  0  0
    5.5361    5.0814    8.4553 C   0  0  0  0  0  0  0  0  0  0  0  0
    6.6221    5.7569    9.0619 C   0  0  0  0  0  0  0  0  0  0  0  0
    7.7259    6.2127    8.1717 C   0  0  0  0  0  0  0  0  0  0  0  0
    8.8744    7.3318    9.0683 S   0  0  0  0  0  0  0  0  0  0  0  0
    7.0895    6.9336    6.9807 C   0  0  0  0  0  0  0  0  0  0  0  0
    6.0783    6.0525    6.2228 C   0  0  0  0  0  0  0  0  0  0  0  0
    5.6244    4.7909    6.9893 C   0  0  0  0  0  0  0  0  0  0  0  0
    6.5567    3.7316    6.8443 O   0  0  0  0  0  0  0  0  0  0  0  0
    3.3398    4.0255    9.0911 C   0  0  0  0  0  0  0  0  0  0  0  0
    2.4445    3.6677   10.0353 C   0  0  0  0  0  0  0  0  0  0  0  0
    1.2551    2.9377    9.7701 C   0  0  0  0  0  0  0  0  0  0  0  0
    0.7906    2.5166    8.1492 S   0  0  0  0  0  0  0  0  0  0  0  0
   -0.6021    1.6393    8.7052 C   0  0  0  0  0  0  0  0  0  0  0  0
   -0.6875    1.6924   10.0847 C   0  0  0  0  0  0  0  0  0  0  0  0
    0.3454    2.4339   10.6846 C   0  0  0  0  0  0  0  0  0  0  0  0
    0.4461    2.6266   12.1579 C   0  0  0  0  0  0  0  0  0  0  0  0
    1.8083    1.5258   12.7912 S   0  0  0  0  0  0  0  0  0  0  0  0
   -0.8750    2.2951   12.8377 C   0  0  0  0  0  0  0  0  0  0  0  0
   -1.3819    0.9424   12.3535 C   0  0  0  0  0  0  0  0  0  0  0  0
   -1.7817    1.0315   10.8782 C   0  0  0  0  0  0  0  0  0  0  0  0
   -2.9605    1.8001   10.6951 O   0  0  0  0  0  0  0  0  0  0  0  0
   -1.5828    1.0676    7.8376 C   0  0  0  0  0  0  0  0  0  0  0  0
   -1.5095    0.7821    6.5231 C   0  0  0  0  0  0  0  0  0  0  0  0
   -0.3724    0.7957    5.6435 C   0  0  0  0  0  0  0  0  0  0  0  0
    1.2042    0.2218    6.1129 S   0  0  0  0  0  0  0  0  0  0  0  0
    1.8085    0.3570    4.4792 C   0  0  0  0  0  0  0  0  0  0  0  0
    0.8499    0.8733    3.6500 C   0  0  0  0  0  0  0  0  0  0  0  0
   -0.3891    1.0943    4.2999 C   0  0  0  0  0  0  0  0  0  0  0  0
   -1.5879    1.5039    3.5244 C   0  0  0  0  0  0  0  0  0  0  0  0
   -2.3877   -0.0591    2.9121 S   0  0  0  0  0  0  0  0  0  0  0  0
   -1.2836    2.4386    2.3442 C   0  0  0  0  0  0  0  0  0  0  0  0
    0.2111    2.6614    2.1247 C   0  0  0  0  0  0  0  0  0  0  0  0
    1.0157    1.3549    2.2379 C   0  0  0  0  0  0  0  0  0  0  0  0
    2.3777    1.5698    1.9595 O   0  0  0  0  0  0  0  0  0  0  0  0
    3.1325   -0.1209    4.1562 C   0  0  0  0  0  0  0  0  0  0  0  0
    3.3862   -0.9200    3.1139 C   0  0  0  0  0  0  0  0  0  0  0  0
    2.3799   -1.5097    2.2538 C   0  0  0  0  0  0  0  0  0  0  0  0
    2.4890   -1.2965    0.5339 S   0  0  0  0  0  0  0  0  0  0  0  0
    1.0662   -2.2727    0.2675 C   0  0  0  0  0  0  0  0  0  0  0  0
    0.5797   -2.7609    1.4636 C   0  0  0  0  0  0  0  0  0  0  0  0
    1.3085   -2.3074    2.5867 C   0  0  0  0  0  0  0  0  0  0  0  0
    0.9824   -2.7596    3.9679 C   0  0  0  0  0  0  0  0  0  0  0  0
    2.2057   -4.0788    4.4388 S   0  0  0  0  0  0  0  0  0  0  0  0
   -0.4443   -3.2868    4.0432 C   0  0  0  0  0  0  0  0  0  0  0  0
   -0.6800   -4.3271    2.9547 C   0  0  0  0  0  0  0  0  0  0  0  0
   -0.5889   -3.7136    1.5535 C   0  0  0  0  0  0  0  0  0  0  0  0
   -1.8041   -3.1090    1.1504 O   0  0  0  0  0  0  0  0  0  0  0  0
    0.5205   -2.4903   -1.0272 C   0  0  0  0  0  0  0  0  0  0  0  0
    1.0301   -1.9935   -2.1741 C   0  0  0  0  0  0  0  0  0  0  0  0
    0.4736   -2.2243   -3.4655 C   0  0  0  0  0  0  0  0  0  0  0  0
   -0.6086   -2.9788   -3.8219 C   0  0  0  0  0  0  0  0  0  0  0  0
   -0.8727   -2.9906   -5.2114 C   0  0  0  0  0  0  0  0  0  0  0  0
   -1.9013   -3.6746   -5.8959 C   0  0  0  0  0  0  0  0  0  0  0  0
   -2.7539   -4.6260   -5.2200 C   0  0  0  0  0  0  0  0  0  0  0  0
   -2.3806   -5.5021   -4.2368 C   0  0  0  0  0  0  0  0  0  0  0  0
   -3.3936   -6.3356   -3.7223 C   0  0  0  0  0  0  0  0  0  0  0  0
   -4.6248   -6.1420   -4.2750 C   0  0  0  0  0  0  0  0  0  0  0  0
   -6.1285   -6.9710   -3.9326 S   0  0  0  0  0  0  0  0  0  0  0  0
   -5.8947   -7.5051   -2.1985 C   0  0  0  0  0  0  0  0  0  0  0  0
   -5.7899   -6.3320   -1.2451 C   0  0  0  0  0  0  0  0  0  0  0  0
   -4.5999   -4.8093   -5.5974 Se  0  0  0  0  0  2  0  0  0  0  0  0
   -2.0286   -3.3816   -7.2497 C   0  0  0  0  0  0  0  0  0  0  0  0
   -1.1487   -2.5334   -7.9616 C   0  0  0  0  0  0  0  0  0  0  0  0
   -0.0467   -1.9466   -7.3002 C   0  0  0  0  0  0  0  0  0  0  0  0
    0.9278   -1.1601   -8.0188 C   0  0  0  0  0  0  0  0  0  0  0  0
    1.3999   -1.3794   -9.2850 C   0  0  0  0  0  0  0  0  0  0  0  0
    2.3191   -0.4363   -9.7795 C   0  0  0  0  0  0  0  0  0  0  0  0
    2.6110    0.5870   -8.9222 C   0  0  0  0  0  0  0  0  0  0  0  0
    3.7109    1.8913   -9.2968 S   0  0  0  0  0  0  0  0  0  0  0  0
    3.5735    2.8818   -7.7637 C   0  0  0  0  0  0  0  0  0  0  0  0
    4.4426    4.1184   -7.8577 C   0  0  0  0  0  0  0  0  0  0  0  0
    1.6998    0.3959   -7.2838 Se  0  0  0  0  0  2  0  0  0  0  0  0
    0.0289   -2.1671   -5.9286 C   0  0  0  0  0  0  0  0  0  0  0  0
    1.2278   -1.4822   -4.8667 S   0  0  0  0  0  0  0  0  0  0  0  0
   -1.5582   -2.3651   -9.3048 C   0  0  0  0  0  0  0  0  0  0  0  0
   -2.6742   -3.0768   -9.6463 C   0  0  0  0  0  0  0  0  0  0  0  0
   -3.2722   -4.0077   -8.2864 S   0  0  0  0  0  0  0  0  0  0  0  0
   -3.3397   -3.0319  -10.9077 C   0  0  0  0  0  0  0  0  0  0  0  0
   -2.7980   -1.8497  -12.0647 S   0  0  0  0  0  0  0  0  0  0  0  0
   -4.0531   -2.2802  -13.1869 C   0  0  0  0  0  0  0  0  0  0  0  0
   -4.8410   -3.2853  -12.6732 C   0  0  0  0  0  0  0  0  0  0  0  0
   -4.4208   -3.7403  -11.3994 C   0  0  0  0  0  0  0  0  0  0  0  0
   -5.0516   -4.8986  -10.7003 C   0  0  0  0  0  0  0  0  0  0  0  0
   -3.7649   -6.2259  -10.4806 S   0  0  0  0  0  0  0  0  0  0  0  0
   -6.2277   -5.4971  -11.4688 C   0  0  0  0  0  0  0  0  0  0  0  0
   -6.9853   -4.4268  -12.2382 C   0  0  0  0  0  0  0  0  0  0  0  0
   -6.0795   -3.8402  -13.3258 C   0  0  0  0  0  0  0  0  0  0  0  0
   -6.7433   -2.8217  -14.0462 O   0  0  0  0  0  0  0  0  0  0  0  0
   -4.1448   -1.6261  -14.4629 C   0  0  0  0  0  0  0  0  0  0  0  0
   -3.3031   -0.6871  -14.8868 C   0  0  0  0  0  0  0  0  0  0  0  0
    7.1198    6.4122   11.0918 H   0  0  0  0  0  0  0  0  0  0  0  0
    8.3086    5.3480    7.8418 H   0  0  0  0  0  0  0  0  0  0  0  0
    9.7499    7.4360    8.0708 H   0  0  0  0  0  0  0  0  0  0  0  0
    6.5839    7.8203    7.3701 H   0  0  0  0  0  0  0  0  0  0  0  0
    7.8697    7.2730    6.2966 H   0  0  0  0  0  0  0  0  0  0  0  0
    5.1941    6.6463    5.9884 H   0  0  0  0  0  0  0  0  0  0  0  0
    6.5130    5.7221    5.2760 H   0  0  0  0  0  0  0  0  0  0  0  0
    4.6477    4.4717    6.5954 H   0  0  0  0  0  0  0  0  0  0  0  0
    6.6157    3.4906    5.9132 H   0  0  0  0  0  0  0  0  0  0  0  0
    3.1533    3.7535    8.0603 H   0  0  0  0  0  0  0  0  0  0  0  0
    2.6438    3.9152   11.0691 H   0  0  0  0  0  0  0  0  0  0  0  0
    0.7646    3.6452   12.3925 H   0  0  0  0  0  0  0  0  0  0  0  0
    1.8143    2.0288   14.0248 H   0  0  0  0  0  0  0  0  0  0  0  0
   -1.6027    3.0673   12.5731 H   0  0  0  0  0  0  0  0  0  0  0  0
   -0.7505    2.2932   13.9222 H   0  0  0  0  0  0  0  0  0  0  0  0
   -2.2433    0.6226   12.9450 H   0  0  0  0  0  0  0  0  0  0  0  0
   -0.5937    0.1953   12.4655 H   0  0  0  0  0  0  0  0  0  0  0  0
   -1.9468    0.0119   10.4885 H   0  0  0  0  0  0  0  0  0  0  0  0
   -3.6527    1.4436   11.2631 H   0  0  0  0  0  0  0  0  0  0  0  0
   -2.5372    0.9096    8.3219 H   0  0  0  0  0  0  0  0  0  0  0  0
   -2.4268    0.4675    6.0380 H   0  0  0  0  0  0  0  0  0  0  0  0
   -2.3521    1.9282    4.1764 H   0  0  0  0  0  0  0  0  0  0  0  0
   -1.3899   -0.3956    2.0940 H   0  0  0  0  0  0  0  0  0  0  0  0
   -1.7613    3.4038    2.5205 H   0  0  0  0  0  0  0  0  0  0  0  0
   -1.7233    2.0230    1.4346 H   0  0  0  0  0  0  0  0  0  0  0  0
    0.3685    3.1039    1.1383 H   0  0  0  0  0  0  0  0  0  0  0  0
    0.6040    3.3544    2.8721 H   0  0  0  0  0  0  0  0  0  0  0  0
    0.5988    0.6100    1.5329 H   0  0  0  0  0  0  0  0  0  0  0  0
    2.4692    1.8230    1.0345 H   0  0  0  0  0  0  0  0  0  0  0  0
    3.9343    0.1810    4.8152 H   0  0  0  0  0  0  0  0  0  0  0  0
    4.4115   -1.1567    2.8613 H   0  0  0  0  0  0  0  0  0  0  0  0
    1.1431   -1.9634    4.6929 H   0  0  0  0  0  0  0  0  0  0  0  0
    1.9161   -4.0634    5.7377 H   0  0  0  0  0  0  0  0  0  0  0  0
   -1.1310   -2.4422    3.9293 H   0  0  0  0  0  0  0  0  0  0  0  0
   -0.6235   -3.7282    5.0254 H   0  0  0  0  0  0  0  0  0  0  0  0
    0.0766   -5.1087    3.0480 H   0  0  0  0  0  0  0  0  0  0  0  0
   -1.6634   -4.7862    3.0682 H   0  0  0  0  0  0  0  0  0  0  0  0
   -0.4386   -4.5180    0.8220 H   0  0  0  0  0  0  0  0  0  0  0  0
   -2.1135   -2.5205    1.8498 H   0  0  0  0  0  0  0  0  0  0  0  0
   -0.3826   -3.0824   -1.0463 H   0  0  0  0  0  0  0  0  0  0  0  0
    1.9226   -1.3816   -2.1379 H   0  0  0  0  0  0  0  0  0  0  0  0
   -1.2285   -3.4825   -3.1042 H   0  0  0  0  0  0  0  0  0  0  0  0
   -1.3578   -5.5970   -3.9127 H   0  0  0  0  0  0  0  0  0  0  0  0
   -3.1907   -7.0725   -2.9643 H   0  0  0  0  0  0  0  0  0  0  0  0
   -5.0169   -8.1489   -2.1591 H   0  0  0  0  0  0  0  0  0  0  0  0
   -6.7807   -8.1047   -1.9913 H   0  0  0  0  0  0  0  0  0  0  0  0
   -5.6876   -6.6948   -0.2243 H   0  0  0  0  0  0  0  0  0  0  0  0
   -4.9250   -5.7159   -1.4819 H   0  0  0  0  0  0  0  0  0  0  0  0
   -6.6819   -5.7131   -1.3082 H   0  0  0  0  0  0  0  0  0  0  0  0
    1.1214   -2.2500   -9.8545 H   0  0  0  0  0  0  0  0  0  0  0  0
    2.7623   -0.5099  -10.7575 H   0  0  0  0  0  0  0  0  0  0  0  0
    2.5180    3.1435   -7.6443 H   0  0  0  0  0  0  0  0  0  0  0  0
    3.8824    2.2374   -6.9351 H   0  0  0  0  0  0  0  0  0  0  0  0
    4.3520    4.7040   -6.9455 H   0  0  0  0  0  0  0  0  0  0  0  0
    4.1371    4.7336   -8.7007 H   0  0  0  0  0  0  0  0  0  0  0  0
    5.4852    3.8406   -7.9935 H   0  0  0  0  0  0  0  0  0  0  0  0
   -1.0697   -1.7048   -9.9982 H   0  0  0  0  0  0  0  0  0  0  0  0
   -5.3481   -4.6045   -9.6897 H   0  0  0  0  0  0  0  0  0  0  0  0
   -4.4153   -6.8840   -9.5255 H   0  0  0  0  0  0  0  0  0  0  0  0
   -6.8920   -6.0126  -10.7732 H   0  0  0  0  0  0  0  0  0  0  0  0
   -5.8480   -6.2356  -12.1797 H   0  0  0  0  0  0  0  0  0  0  0  0
   -7.2984   -3.6224  -11.5684 H   0  0  0  0  0  0  0  0  0  0  0  0
   -7.8776   -4.8601  -12.6979 H   0  0  0  0  0  0  0  0  0  0  0  0
   -5.7859   -4.6487  -14.0227 H   0  0  0  0  0  0  0  0  0  0  0  0
   -7.6034   -3.1561  -14.3233 H   0  0  0  0  0  0  0  0  0  0  0  0
   -4.9685   -1.9487  -15.0811 H   0  0  0  0  0  0  0  0  0  0  0  0
   -2.4801   -0.3490  -14.2778 H   0  0  0  0  0  0  0  0  0  0  0  0
   -3.4096   -0.2312  -15.8550 H   0  0  0  0  0  0  0  0  0  0  0  0
  1  2  1  0  0  0  0
  2  3  1  0  0  0  0
  3  4  2  0  0  0  0
  4  5  1  0  0  0  0
  5  6  1  0  0  0  0
  6  7  1  0  0  0  0
  6  8  1  0  0  0  0
  8  9  1  0  0  0  0
  9 10  1  0  0  0  0
 10 11  1  0  0  0  0
  3 12  1  0  0  0  0
 12 13  2  0  0  0  0
 13 14  1  0  0  0  0
 14 15  1  0  0  0  0
 15 16  1  0  0  0  0
 16 17  2  0  0  0  0
 17 18  1  0  0  0  0
 18 19  1  0  0  0  0
 19 20  1  0  0  0  0
 19 21  1  0  0  0  0
 21 22  1  0  0  0  0
 22 23  1  0  0  0  0
 23 24  1  0  0  0  0
 16 25  1  0  0  0  0
 25 26  2  0  0  0  0
 26 27  1  0  0  0  0
 27 28  1  0  0  0  0
 28 29  1  0  0  0  0
 29 30  2  0  0  0  0
 30 31  1  0  0  0  0
 31 32  1  0  0  0  0
 32 33  1  0  0  0  0
 32 34  1  0  0  0  0
 34 35  1  0  0  0  0
 35 36  1  0  0  0  0
 36 37  1  0  0  0  0
 29 38  1  0  0  0  0
 38 39  2  0  0  0  0
 39 40  1  0  0  0  0
 40 41  1  0  0  0  0
 41 42  1  0  0  0  0
 42 43  2  0  0  0  0
 43 44  1  0  0  0  0
 44 45  1  0  0  0  0
 45 46  1  0  0  0  0
 45 47  1  0  0  0  0
 47 48  1  0  0  0  0
 48 49  1  0  0  0  0
 49 50  1  0  0  0  0
 42 51  1  0  0  0  0
 51 52  2  0  0  0  0
 52 53  1  0  0  0  0
 53 54  2  0  0  0  0
 54 55  1  0  0  0  0
 55 56  2  0  0  0  0
 56 57  1  0  0  0  0
 57 58  2  0  0  0  0
 58 59  1  0  0  0  0
 59 60  2  0  0  0  0
 60 61  1  0  0  0  0
 61 62  1  0  0  0  0
 62 63  1  0  0  0  0
 60 64  1  0  0  0  0
 56 65  1  0  0  0  0
 65 66  2  0  0  0  0
 66 67  1  0  0  0  0
 67 68  1  0  0  0  0
 68 69  2  0  0  0  0
 69 70  1  0  0  0  0
 70 71  2  0  0  0  0
 71 72  1  0  0  0  0
 72 73  1  0  0  0  0
 73 74  1  0  0  0  0
 71 75  1  0  0  0  0
 67 76  2  0  0  0  0
 76 77  1  0  0  0  0
 66 78  1  0  0  0  0
 78 79  2  0  0  0  0
 79 80  1  0  0  0  0
 79 81  1  0  0  0  0
 81 82  1  0  0  0  0
 82 83  1  0  0  0  0
 83 84  2  0  0  0  0
 84 85  1  0  0  0  0
 85 86  1  0  0  0  0
 86 87  1  0  0  0  0
 86 88  1  0  0  0  0
 88 89  1  0  0  0  0
 89 90  1  0  0  0  0
 90 91  1  0  0  0  0
 83 92  1  0  0  0  0
 92 93  2  0  0  0  0
  5  1  2  0  0  0  0
 18 14  2  0  0  0  0
 31 27  2  0  0  0  0
 44 40  2  0  0  0  0
 77 53  1  0  0  0  0
 85 81  2  0  0  0  0
 10  4  1  0  0  0  0
 23 17  1  0  0  0  0
 36 30  1  0  0  0  0
 49 43  1  0  0  0  0
 76 55  1  0  0  0  0
 90 84  1  0  0  0  0
 64 57  1  0  0  0  0
 80 65  1  0  0  0  0
 75 68  1  0  0  0  0
  1 94  1  0  0  0  0
  6 95  1  0  0  0  0
  7 96  1  0  0  0  0
  8 97  1  0  0  0  0
  8 98  1  0  0  0  0
  9 99  1  0  0  0  0
  9100  1  0  0  0  0
 10101  1  0  0  0  0
 11102  1  0  0  0  0
 12103  1  0  0  0  0
 13104  1  0  0  0  0
 19105  1  0  0  0  0
 20106  1  0  0  0  0
 21107  1  0  0  0  0
 21108  1  0  0  0  0
 22109  1  0  0  0  0
 22110  1  0  0  0  0
 23111  1  0  0  0  0
 24112  1  0  0  0  0
 25113  1  0  0  0  0
 26114  1  0  0  0  0
 32115  1  0  0  0  0
 33116  1  0  0  0  0
 34117  1  0  0  0  0
 34118  1  0  0  0  0
 35119  1  0  0  0  0
 35120  1  0  0  0  0
 36121  1  0  0  0  0
 37122  1  0  0  0  0
 38123  1  0  0  0  0
 39124  1  0  0  0  0
 45125  1  0  0  0  0
 46126  1  0  0  0  0
 47127  1  0  0  0  0
 47128  1  0  0  0  0
 48129  1  0  0  0  0
 48130  1  0  0  0  0
 49131  1  0  0  0  0
 50132  1  0  0  0  0
 51133  1  0  0  0  0
 52134  1  0  0  0  0
 54135  1  0  0  0  0
 58136  1  0  0  0  0
 59137  1  0  0  0  0
 62138  1  0  0  0  0
 62139  1  0  0  0  0
 63140  1  0  0  0  0
 63141  1  0  0  0  0
 63142  1  0  0  0  0
 69143  1  0  0  0  0
 70144  1  0  0  0  0
 73145  1  0  0  0  0
 73146  1  0  0  0  0
 74147  1  0  0  0  0
 74148  1  0  0  0  0
 74149  1  0  0  0  0
 78150  1  0  0  0  0
 86151  1  0  0  0  0
 87152  1  0  0  0  0
 88153  1  0  0  0  0
 88154  1  0  0  0  0
 89155  1  0  0  0  0
 89156  1  0  0  0  0
 90157  1  0  0  0  0
 91158  1  0  0  0  0
 92159  1  0  0  0  0
 93160  1  0  0  0  0
 93161  1  0  0  0  0
M  END
