278

C        -15.57810      -16.58180        4.65270
C        -14.66290      -16.47930        3.66280
C        -14.22610      -15.11820        3.66410
C        -13.29100      -14.40070        2.90500
C        -12.53530      -14.96350        1.78410
C        -11.20420      -14.60590        1.57860
C        -10.51680      -15.12370        0.50100
F         -9.22910      -14.75830        0.33130
C        -11.08350      -15.99850       -0.42030
C        -10.30140      -16.56750       -1.56650
C         -9.52460      -17.81010       -1.12480
C        -12.41200      -16.33070       -0.18110
F        -13.03190      -17.17080       -1.03780
C        -13.13950      -15.83650        0.88270
C        -13.13830      -13.07710        3.29950
C        -13.88010      -12.45140        4.33600
C        -14.82910      -13.16580        5.08180
C        -15.62640      -12.56090        6.14920
C        -16.15660      -11.28120        5.99890
C        -16.90240      -10.72870        7.01930
C        -17.16590      -11.38460        8.21710
C        -17.94430      -10.73770        9.32390
C        -17.03730       -9.83140       10.16020
C        -16.62480      -12.66080        8.32560
C        -15.87780      -13.25590        7.32950
F        -16.84060      -13.35710        9.46140
F        -17.40690       -9.48910        6.84090
C        -14.94680      -14.50520        4.72170
O        -15.77100      -15.41180        5.29970
C        -13.38650      -11.11720        4.39380
C        -12.42840      -11.01640        3.42240
O        -12.27930      -12.19110        2.75120
C        -11.55520       -9.95410        3.03850
C        -11.49410       -8.67000        3.49310
C        -10.44330       -7.91610        2.91200
C        -10.11460       -6.56170        3.14120
C        -10.79690       -5.73760        4.11430
C        -11.06990       -4.40070        4.01660
C        -11.63740       -3.79500        5.15340
C        -11.82590       -4.62490        6.22090
S        -12.59920       -4.13060        7.70810
C        -12.08050       -5.45730        8.85230
C        -10.61710       -5.35070        9.22940
Se       -11.29490       -6.38630        5.81630
C         -9.05090       -6.05510        2.39610
C         -8.31500       -6.82930        1.46670
C         -8.64990       -8.17790        1.22420
C         -7.94940       -8.99370        0.25650
C         -7.65180      -10.32570        0.35090
C         -6.99990      -10.89930       -0.75710
C         -6.77080      -10.04920       -1.80100
S         -6.04210      -10.53320       -3.31390
C         -5.50590       -8.92370       -3.99550
C         -4.32040       -8.34380       -3.25160
Se        -7.43430       -8.32630       -1.43380
C         -9.70930       -8.68320        1.97240
S        -10.32680      -10.30600        1.84970
C         -7.22680       -6.10690        0.92700
C         -7.13080       -4.82830        1.39360
S         -8.39060       -4.44370        2.53720
C         -6.12300       -3.88670        1.02880
C         -5.11820       -4.02650        0.10850
C         -4.35780       -2.83050        0.15550
C         -3.21320       -2.39460       -0.52760
C         -2.51380       -3.21100       -1.52060
C         -2.34980       -4.58100       -1.33110
C         -1.72320       -5.33550       -2.30200
F         -1.59710       -6.66350       -2.08780
C         -1.23620       -4.80200       -3.48910
C         -0.55550       -5.63420       -4.53490
C          0.95280       -5.38110       -4.52990
C         -1.39300       -3.42600       -3.62730
F         -0.94030       -2.83940       -4.75530
C         -2.00950       -2.63210       -2.68340
C         -2.80520       -1.11270       -0.18300
C         -3.44870       -0.29190        0.78240
C         -4.58470       -0.73900        1.47900
C         -5.26060        0.04330        2.51510
C         -6.64940        0.02520        2.62290
C         -7.26640        0.76030        3.61410
C         -6.57230        1.53780        4.53510
C         -7.26200        2.29890        5.62770
C         -7.39780        1.43130        6.88150
C         -5.18820        1.51700        4.40420
C         -4.52830        0.79900        3.42810
F         -4.44770        2.23760        5.27290
F         -8.61310        0.73000        3.68510
C         -5.00810       -2.01280        1.11910
O         -6.06740       -2.67440        1.64260
C         -2.69340        0.91370        0.80110
C         -1.66630        0.74160       -0.08730
O         -1.72610       -0.47780       -0.68560
C         -0.54800        1.57210       -0.42100
C         -0.22860        2.85490       -0.06680
C          1.05530        3.11650       -0.61950
C          1.90940        4.23130       -0.61220
C          1.63320        5.49240        0.07700
C          2.02620        6.70110       -0.49540
C          1.80350        7.88140        0.18110
F          2.19460        9.03540       -0.40430
C          1.19290        7.94640        1.42820
C          1.00680        9.23760        2.16840
C          2.17130        9.47470        3.13330
C          0.81550        6.72050        1.96600
F          0.22030        6.70670        3.17720
C          1.01840        5.51440        1.32670
C          3.09990        4.03590       -1.30120
C          3.46710        2.83720       -1.96910
C          2.59970        1.73360       -2.00600
C          2.92090        0.49180       -2.70950
C          2.55290       -0.74670       -2.18870
C          2.91390       -1.90160       -2.85310
C          3.63520       -1.90800       -4.04160
C          4.09980       -3.16730       -4.71030
C          5.57700       -3.42180       -4.39960
C          3.94770       -0.65120       -4.54980
C          3.60860        0.52800       -3.92160
F          4.61980       -0.57950       -5.71850
F          2.55260       -3.08490       -2.31170
C          1.41560        1.92180       -1.30140
O          0.43210        1.00620       -1.17450
C          4.79150        3.06220       -2.43560
C          5.12810        4.33150       -2.04990
O          4.10960        4.92950       -1.37400
C          6.31850        5.09730       -2.22090
C          7.47510        4.76940       -2.86260
C          8.44930        5.79760       -2.81970
C          9.74980        5.77740       -3.36590
C         10.32680        4.58990       -3.95950
C         11.16280        4.52340       -5.03840
C         11.67290        3.24870       -5.36180
C         11.27410        2.24700       -4.52670
S         11.66800        0.54640       -4.55730
C         12.88340        0.46160       -5.92560
C         13.41540       -0.95400       -6.03280
Se        10.12550        2.86830       -3.18230
C         10.46640        6.96740       -3.26970
C          9.98190        8.13070       -2.62140
C          8.72150        8.11410       -1.98290
C          8.25100        9.22350       -1.18910
C          8.99840       10.07500       -0.41760
C          8.29180       11.07750        0.26920
C          6.93760       11.06780        0.07610
S          5.84860       12.18650        0.86360
C          4.21250       11.59020        0.31120
C          3.85160       12.07560       -1.07730
Se         6.42160        9.67070       -1.07600
C          7.97670        6.94710       -2.14390
S          6.36840        6.69900       -1.52510
C         10.89840        9.20710       -2.72200
C         12.05940        8.88450       -3.35870
S         12.07390        7.21770       -3.89550
C         13.18130        9.72040       -3.62860
C         14.35330        9.35920       -4.22220
C         15.27850       10.42390       -4.35660
C         16.58540       10.37150       -4.88200
C         17.10320        9.16680       -5.48930
C         16.43210        8.29160       -6.29840
C         17.16300        7.17360       -6.74300
C         18.44990        7.10700       -6.29000
S         19.51810        5.76220       -6.62130
C         21.14600        6.46630       -6.18530
C         21.62930        7.47160       -7.21020
Se        18.86900        8.58020       -5.18890
C         17.33220       11.54200       -4.77960
C         16.83480       12.74460       -4.22980
C         15.51800       12.80800       -3.73490
C         14.94950       14.00290       -3.14290
C         13.66410       14.44490       -3.28070
C         13.30720       15.58550       -2.53090
C         14.30340       16.08230       -1.74400
S         14.29290       17.45350       -0.66250
C         12.59310       18.10140       -0.88170
C         12.41480       19.33110       -0.01280
Se        15.88880       15.09630       -1.91030
C         14.77590       11.63130       -3.81610
S         13.15680       11.41860       -3.19960
C         17.80400       13.78930       -4.30130
C         18.96730       13.39590       -4.85620
S         18.96880       11.73740       -5.34690
H        -16.15510      -17.41770        4.99800
H        -14.32200      -17.26770        3.02520
H        -10.69730      -13.93320        2.24990
H         -9.60020      -15.81510       -1.93210
H        -10.98420      -16.83360       -2.37470
H        -10.20690      -18.57560       -0.76160
H         -8.96290      -18.21510       -1.96250
H         -8.82740      -17.55840       -0.32890
H        -14.17740      -16.10880        0.98270
H        -16.01820      -10.72660        5.08520
H        -18.37730      -11.50900        9.96220
H        -18.75220      -10.14120        8.89580
H        -16.22340      -10.40700       10.59610
H        -16.61480       -9.04310        9.54130
H        -17.60780       -9.37290       10.96360
H        -15.48750      -14.24820        7.48350
H        -13.67480      -10.34720        5.07790
H        -12.20410       -8.27870        4.20080
H        -10.89320       -3.84250        3.11320
H        -11.89750       -2.75140        5.18790
H        -12.30680       -6.41170        8.36600
H        -12.72480       -5.33870        9.72280
H         -9.98420       -5.45090        8.34790
H        -10.41420       -4.38830        9.69320
H        -10.35780       -6.14110        9.93060
H         -7.84240      -10.89620        1.24360
H         -6.69420      -11.93060       -0.78030
H         -5.25710       -9.13510       -5.03480
H         -6.37190       -8.25460       -3.96390
H         -3.47320       -9.02390       -3.28860
H         -4.02930       -7.39710       -3.70170
H         -4.57030       -8.16510       -2.20570
H         -6.50410       -6.52500        0.24970
H         -4.96380       -4.86710       -0.53380
H         -2.67820       -5.06040       -0.42370
H         -0.95740       -5.37440       -5.51730
H         -0.75370       -6.68970       -4.34430
H          1.44020       -6.01580       -5.26590
H          1.37000       -5.59570       -3.54840
H          1.15670       -4.34230       -4.77570
H         -2.10530       -1.57480       -2.86600
H         -7.25360       -0.54910        1.94050
H         -8.25370        2.60180        5.28780
H         -6.68350        3.19280        5.86690
H         -7.97840        0.53780        6.66300
H         -6.41670        1.12990        7.24180
H         -7.90020        1.98890        7.66750
H         -3.45100        0.80610        3.40710
H         -2.88310        1.79210        1.38080
H         -0.84420        3.52330        0.49700
H          2.50160        6.73320       -1.46130
H          0.07380        9.19970        2.73350
H          0.95070       10.05990        1.45320
H          3.11610        9.49590        2.59460
H          2.21410        8.68130        3.87570
H          2.04300       10.42340        3.64800
H          0.73110        4.60150        1.82180
H          2.00380       -0.82300       -1.26520
H          3.97080       -3.07190       -5.79030
H          3.50560       -4.01000       -4.35780
H          5.72770       -3.51830       -3.32650
H          5.90460       -4.34020       -4.87990
H          6.19120       -2.60210       -4.76440
H          3.86060        1.46540       -4.38950
H          5.42670        2.37330       -2.95100
H          7.60820        3.83460       -3.37820
H         11.39120        5.38330       -5.64480
H         12.32350        3.09860       -6.20510
H         13.68180        1.16700       -5.69560
H         12.37060        0.76020       -6.84020
H         13.90360       -1.24820       -5.10650
H         12.60550       -1.65180       -6.23260
H         14.13800       -1.01450       -6.84350
H         10.05980        9.94840       -0.28790
H          8.77350       11.79130        0.91510
H          3.51280       11.96820        1.05580
H          4.23600       10.49850        0.35610
H          3.80650       13.16170       -1.10510
H          2.88330       11.66910       -1.35930
H          4.59000       11.73750       -1.80510
H         10.69960       10.20270       -2.36950
H         14.55660        8.34590       -4.51760
H         15.42320        8.47660       -6.62720
H         16.74710        6.42730       -7.39770
H         21.04700        6.91450       -5.19150
H         21.81230        5.60630       -6.12600
H         21.69690        7.00970       -8.19240
H         22.61180        7.84310       -6.92710
H         20.94520        8.31830       -7.26960
H         12.96450       13.97900       -3.95390
H         12.32130       16.01200       -2.58660
H         12.46820       18.34220       -1.93760
H         11.90040       17.31070       -0.59310
H         13.12800       20.10250       -0.29380
H         11.40780       19.72430       -0.13330
H         12.57040       19.08260        1.03450
H         17.62400       14.79600       -3.96480
H         19.85020       13.98000       -5.02620
