278

C          9.26050      -20.43580        2.18680
C          9.97070      -19.30250        2.01960
C          9.20110      -18.12060        2.23490
C          9.61380      -16.77420        2.13730
C         10.90050      -16.40650        1.59650
C         11.59450      -17.03690        0.59740
C         12.82670      -16.46370        0.23570
C         13.16960      -15.34050        0.93600
S         14.63710      -14.43620        0.63450
C         14.41230      -12.96210        1.69070
C         14.79130      -13.22160        3.13530
Se        11.84940      -14.89490        2.20220
C          8.69260      -15.82460        2.57590
C          7.38090      -16.14400        2.99480
C          6.92190      -17.47600        2.94740
C          5.53940      -17.79030        3.22140
C          4.44740      -17.04830        2.85780
C          3.19650      -17.54550        3.26620
C          3.24250      -18.70460        3.98780
S          1.82550      -19.44740        4.69420
C          2.43690      -21.12640        5.06880
C          2.60870      -21.96520        3.81910
Se         5.01640      -19.31050        4.20500
C          7.87630      -18.43380        2.61450
S          7.60560      -20.15500        2.60680
C          6.67630      -15.00360        3.44930
C          7.38660      -13.84410        3.34910
S          8.98030      -14.10830        2.67610
C          6.93110      -12.53390        3.67540
C          5.73980      -12.20890        4.25620
C          5.50820      -10.81690        4.36080
C          4.34960      -10.15840        4.83080
C          3.16600      -10.87110        5.25520
C          2.26490      -10.49120        6.21410
C          1.15440      -11.33330        6.40280
C          1.10620      -12.42770        5.58540
S         -0.13890      -13.65150        5.68260
C          0.42190      -14.89000        4.46090
C          0.05920      -14.50620        3.04020
Se         2.58280      -12.46700        4.42680
C          4.40210       -8.76360        4.82650
C          5.52600       -8.02720        4.37890
C          6.65990       -8.68820        3.86310
C          7.78120       -7.96040        3.31150
C          7.74890       -6.84490        2.52180
C          8.99810       -6.32420        2.13200
C         10.08190       -7.00300        2.61170
S         11.73310       -6.49350        2.33810
C         12.67580       -7.95470        2.89580
C         12.60370       -9.10440        1.91120
Se         9.55880       -8.47850        3.66360
C          6.61580      -10.07570        3.88480
S          7.87060      -11.11700        3.27070
C          5.32770       -6.63200        4.49000
C          4.08520       -6.28650        4.93690
S          3.10830       -7.69040        5.29630
C          3.56930       -4.96070        5.05480
C          4.25400       -3.80490        4.81200
C          3.45320       -2.64060        4.88900
C          3.83880       -1.32370        4.58170
C          5.24040       -1.01380        4.27250
C          6.25430       -1.40760        5.14520
C          7.57700       -1.16330        4.84230
C          7.93700       -0.52040        3.66170
S          9.66090       -0.24530        3.34700
C          9.84860       -0.90810        1.65010
C          9.51480       -2.38540        1.58310
C          6.91410       -0.09390        2.82110
F          7.19790        0.56960        1.67980
C          5.58570       -0.33830        3.10700
C          2.83370       -0.37110        4.56820
C          1.49080       -0.67720        4.90240
C          1.10380       -1.99200        5.21740
C         -0.30760       -2.29550        5.48090
C         -1.29530       -1.83340        4.61300
C         -2.63590       -2.01710        4.88550
C         -3.04150       -2.67660        6.04050
S         -4.71270       -2.90340        6.54500
C         -5.66140       -1.74770        5.49090
C         -6.11800       -2.36890        4.18460
C         -2.04060       -3.19280        6.86740
C         -0.69970       -3.01350        6.60810
F         -2.39610       -3.86680        7.97880
C          2.10550       -2.94850        5.20410
S          1.88670       -4.66330        5.43900
C          0.66100        0.46510        4.83510
C          1.30160        1.58990        4.40210
S          3.01160        1.31400        4.14440
C          0.65540        2.80970        4.04230
C         -0.69580        2.97960        3.94980
C         -1.08040        4.21800        3.39110
C         -2.39080        4.63720        3.07690
C         -3.53360        3.86430        3.50130
C         -3.67870        3.19460        4.68650
C         -4.85140        2.42930        4.82770
C         -5.68680        2.44980        3.74700
S         -7.13650        1.47650        3.63500
C         -8.02340        2.29040        2.26230
C         -8.59700        3.63330        2.66430
Se        -5.01110        3.55250        2.37110
C         -2.48250        5.77250        2.28140
C         -1.36610        6.54940        1.88930
C         -0.06790        6.21420        2.34350
C          1.06560        7.05970        2.07070
C          1.07210        8.42810        1.97020
C          2.30790        9.02420        1.67060
C          3.35020        8.15030        1.51860
S          4.99030        8.66290        1.20890
C          5.83560        7.07190        0.90880
C          5.53330        6.50880       -0.46500
Se         2.80020        6.37160        1.79840
C          0.03600        5.00760        3.03400
S          1.52680        4.22500        3.49530
C         -1.73310        7.55310        0.95940
C         -3.06660        7.57390        0.66800
S         -3.95660        6.37160        1.57880
C         -3.74400        8.37390       -0.29930
C         -3.22730        9.36540       -1.08210
C         -4.15530        9.89400       -2.01420
C         -3.93630       10.87990       -2.99170
C         -2.61720       11.48720       -3.20140
C         -2.47140       12.86890       -3.28280
C         -1.23840       13.44570       -3.51560
C         -0.10510       12.65950       -3.68960
S          1.51880       13.27000       -3.99660
C          1.23970       14.97150       -4.59810
C          0.55250       14.99940       -5.95000
C         -0.26290       11.27580       -3.59050
F          0.81460       10.47950       -3.74180
C         -1.48480       10.68830       -3.35270
C         -5.02300       11.22630       -3.78050
C         -6.29380       10.61210       -3.66030
C         -6.50750        9.60990       -2.69960
C         -7.80130        8.92470       -2.59930
C         -8.46230        8.79470       -1.37950
C         -9.69930        8.19110       -1.31370
C        -10.32130        7.67640       -2.45070
S        -11.90120        6.91710       -2.22630
C        -12.83100        7.33140       -3.74900
C        -12.89540        8.82310       -4.00540
C         -9.62430        7.76600       -3.65150
C         -8.39720        8.38990       -3.73760
F        -10.13070        7.24300       -4.79450
C         -5.43270        9.29090       -1.88610
S         -5.43270        8.06460       -0.64870
C         -7.22180       11.12740       -4.59700
C         -6.69150       12.06440       -5.43490
S         -5.00720       12.38780       -5.08300
C         -7.35540       12.71350       -6.51800
C         -8.62150       12.47260       -6.96520
C         -8.98260       13.23160       -8.10460
C        -10.20170       13.20550       -8.81170
C        -11.27890       12.29590       -8.48820
C        -12.62200       12.53390       -8.59600
C        -13.47380       11.44160       -8.34880
C        -12.83890       10.26820       -8.05530
S        -13.66000        8.76450       -7.71450
C        -12.24270        7.60450       -7.70590
C        -12.73660        6.17730       -7.59130
Se       -10.97280       10.49090       -8.01480
C        -10.29310       14.07750       -9.89760
C         -9.25000       14.94460      -10.29690
C         -8.04370       14.99010       -9.56910
C         -6.97740       15.90410       -9.91300
C         -7.09480       17.19920      -10.33650
C         -5.89110       17.86890      -10.62910
C         -4.75880       17.12570      -10.45230
S         -3.14460       17.76260      -10.67340
C         -2.13440       16.24030      -10.64920
C         -2.26460       15.44350      -11.93110
Se        -5.16390       15.39680       -9.81780
C         -7.94210       14.10340       -8.50190
S         -6.54600       13.93450       -7.47210
C         -9.57260       15.63250      -11.50410
C        -10.79440       15.31990      -11.97980
S        -11.64350       14.17910      -10.99830
H          9.59980      -21.44870        2.09410
H         11.02080      -19.29430        1.79250
H         11.19290      -17.88580        0.07030
H         13.44840      -16.86290       -0.54700
H         15.05490      -12.20290        1.24480
H         13.36690      -12.65470        1.59380
H         14.15350      -13.99410        3.56670
H         15.82590      -13.54880        3.20340
H         14.67050      -12.31170        3.71950
H          4.53340      -16.16820        2.24260
H          2.26730      -17.05970        3.02340
H          1.68710      -21.55230        5.73470
H          3.37920      -21.01100        5.61380
H          3.34910      -21.51800        3.15540
H          1.66580      -22.04620        3.28340
H          2.94740      -22.96310        4.08890
H          5.68540      -15.04880        3.86080
H          5.06900      -12.96330        4.62790
H          2.41780       -9.62540        6.83510
H          0.39930      -11.14160        7.14510
H          1.50250      -15.00480        4.59050
H         -0.07170      -15.81510        4.75840
H         -1.01520      -14.36670        2.94820
H          0.36940      -15.29090        2.35300
H          0.55550      -13.57940        2.75050
H          6.82340       -6.42440        2.16480
H          9.09730       -5.46100        1.49690
H         13.69780       -7.59460        3.01060
H         12.28080       -8.23630        3.87710
H         11.57560       -9.44780        1.79450
H         13.20380       -9.93640        2.27410
H         12.97980       -8.79620        0.93850
H          6.08690       -5.91140        4.25200
H          5.29500       -3.78110        4.54790
H          5.99740       -1.90310        6.06930
H          8.36050       -1.47470        5.51550
H          9.23290       -0.31920        0.97360
H         10.89890       -0.73200        1.41990
H          8.46870       -2.55620        1.83480
H          9.69390       -2.75460        0.57480
H         10.13530       -2.95020        2.27610
H          4.83270       -0.00660        2.40930
H         -1.00870       -1.33460        3.69920
H         -3.36470       -1.63390        4.19020
H         -5.05640       -0.85610        5.33490
H         -6.52240       -1.47970        6.10280
H         -6.67970       -1.63150        3.61410
H         -5.27410       -2.70640        3.58730
H         -6.75940       -3.22480        4.37960
H          0.02680       -3.40520        7.30230
H         -0.37910        0.44830        5.10000
H         -1.40040        2.20890        4.19860
H         -2.96450        3.29140        5.48720
H         -5.08190        1.87490        5.72160
H         -8.80920        1.58820        1.98550
H         -7.31450        2.38380        1.43320
H         -9.27820        3.51980        3.50450
H         -9.13920        4.06650        1.82650
H         -7.80110        4.32120        2.95080
H          0.19150        9.01870        2.16050
H          2.43470       10.08830        1.57080
H          5.52830        6.38720        1.70570
H          6.89580        7.29720        1.01970
H          5.83460        7.21100       -1.23870
H          6.07290        5.57480       -0.60550
H          4.46660        6.31000       -0.57350
H         -1.02210        8.19050        0.46770
H         -2.21560        9.71560       -0.99440
H         -3.33100       13.50590       -3.14220
H         -1.16730       14.52030       -3.55430
H          2.24690       15.38290       -4.66560
H          0.69000       15.52720       -3.83950
H          1.14490       14.45610       -6.68260
H         -0.43330       14.54160       -5.89800
H          0.44030       16.02850       -6.28570
H         -1.55340        9.61210       -3.32110
H         -8.01790        9.19970       -0.48380
H        -10.21850        8.11280       -0.37120
H        -12.39020        6.78980       -4.58260
H        -13.82320        6.92700       -3.54800
H        -13.54150        9.01760       -4.85940
H        -13.29680        9.34360       -3.13860
H        -11.90820        9.22770       -4.22280
H         -7.89900        8.42370       -4.69450
H         -8.24990       10.81950       -4.63740
H         -9.28260       11.77960       -6.47430
H        -13.01330       13.50950       -8.82900
H        -14.54610       11.51430       -8.40140
H        -11.60360        7.87500       -6.86130
H        -11.69540        7.75870       -8.63940
H        -13.35520        6.05620       -6.70480
H        -11.88740        5.50170       -7.52030
H        -13.32950        5.90760       -8.46220
H         -8.04910       17.69460      -10.40220
H         -5.85880       18.89120      -10.96410
H         -1.11300       16.58920      -10.50100
H         -2.44750       15.65960       -9.77560
H         -1.96720       16.04720      -12.78520
H         -1.62880       14.56200      -11.88390
H         -3.29470       15.11780      -12.07690
H         -8.89690       16.30140      -12.00390
H        -11.27300       15.69050      -12.86500
