150

C          1.43300        1.66160       13.99020
S          2.21630        1.42430       12.49180
C          1.00200        2.33540       11.64260
C          0.06040        2.81540       12.51680
C          0.30150        2.41940       13.86770
C         -0.53930        2.75470       14.94980
N         -1.22740        3.00950       15.82820
C         -1.09350        3.71040       12.18890
F         -2.27840        3.08810       12.34670
F         -1.08010        4.16850       10.92880
F         -1.12230        4.78970       12.98090
C          1.12850        2.51480       10.20780
C          0.21300        2.18730        9.28480
C         -1.03730        1.51820        9.50190
S         -1.39690        0.53320       10.88180
C         -2.97620        0.12270       10.28270
C         -3.20910        0.74610        9.08220
C         -2.10460        1.51530        8.62090
C         -2.07400        2.19780        7.39090
N         -2.00840        2.72990        6.37770
C         -4.48880        0.74260        8.30620
F         -4.30620        0.33800        7.03410
F         -5.01740        1.97450        8.23130
F         -5.43570       -0.04660        8.82300
C         -3.80450       -0.73900       11.10520
C         -4.27840       -1.95730       10.78940
C         -4.07080       -2.69290        9.58480
S         -3.04490       -2.16850        8.28940
C         -3.45870       -3.53310        7.29650
C         -4.30270       -4.38850        7.98650
C         -4.65440       -3.91640        9.27230
C         -5.51680       -4.56750       10.17610
N         -6.19820       -5.06630       10.95050
C         -4.80140       -5.65510        7.37300
F         -3.78760       -6.43280        6.93720
F         -5.52160       -6.40860        8.20450
F         -5.57360       -5.42860        6.29130
C         -3.01720       -3.59640        5.94870
C         -2.38100       -2.54870        5.37390
C         -2.01640       -2.40520        4.01600
C         -1.52410       -1.24550        3.47300
C         -1.33020       -1.30260        2.08030
C         -0.91530       -0.25640        1.22400
C         -0.72380        1.08880        1.70840
C         -1.44730        1.73160        2.67680
C         -1.02890        3.03140        3.02100
C          0.05970        3.47710        2.32890
S          0.89850        5.00270        2.45560
C         -0.13470        5.90290        3.67380
C          0.42910        7.29600        3.87360
Se         0.66410        2.21440        1.07380
C         -0.71880       -0.61250       -0.10440
C         -0.95790       -1.90730       -0.62460
C         -1.45720       -2.92810        0.21520
C         -1.82300       -4.23740       -0.28160
C         -1.66910       -5.43470        0.36330
C         -2.18250       -6.56840       -0.29600
C         -2.79430       -6.30850       -1.48750
S         -3.54260       -7.42150       -2.61000
C         -4.08840       -8.77700       -1.51010
C         -5.14760       -8.32290       -0.52630
Se        -2.75630       -4.48490       -1.91280
C         -1.61510       -2.59120        1.55790
S         -2.21160       -3.65540        2.80710
C         -0.62160       -1.98880       -1.99960
C         -0.18480       -0.80870       -2.52550
S         -0.17050        0.48020       -1.33710
C          0.29360       -0.50040       -3.82940
C          0.70840        0.73660       -4.22870
C          1.23260        0.77930       -5.53840
C          1.83340        1.88330       -6.18400
C          2.06500        3.13820       -5.50560
C          2.07220        4.39850       -6.04440
C          2.33940        5.45600       -5.15620
C          2.58030        5.08500       -3.86250
S          2.89640        6.20490       -2.55820
C          2.31020        5.27380       -1.09150
C          3.37870        4.38590       -0.48990
Se         2.53600        3.21890       -3.67590
C          2.22840        1.66260       -7.50270
C          2.09340        0.41220       -8.15750
C          1.55710       -0.70830       -7.48200
C          1.48140       -2.02300       -8.07740
C          0.48600       -2.94660       -7.90870
C          0.68930       -4.19910       -8.51670
C          1.87270       -4.33610       -9.18470
S          2.30870       -5.75800      -10.10090
C          4.12030       -5.56320      -10.23740
C          4.82430       -5.81520       -8.91980
Se         2.88290       -2.74740       -9.11600
C          1.12830       -0.48020       -6.17800
S          0.46620       -1.68740       -5.09910
C          2.55580        0.47110       -9.49030
C          3.06330        1.69070       -9.84920
S          2.97700        2.84680       -8.54040
C          3.59610        2.02560      -11.12530
S          3.72630        0.80680      -12.35450
C          4.38440        1.92900      -13.50710
C          4.52630        3.17400      -12.94160
C          4.06750        3.24250      -11.59480
C          4.04230        4.42450      -10.83170
N          3.99140        5.39330      -10.22040
C          5.15750        4.34260      -13.62970
F          5.66050        5.24120      -12.77800
F          4.29090        5.01220      -14.41770
F          6.18100        3.97990      -14.42400
C          4.66060        1.43750      -14.83830
C          4.57170        2.14040      -15.96200
H          1.83490        1.23860       14.88950
H          2.06720        2.94060        9.88100
H          0.40670        2.44500        8.25180
H         -3.99010       -0.35760       12.10060
H         -4.89010       -2.46880       11.52120
H         -3.26330       -4.47460        5.37000
H         -2.17170       -1.67480        5.98150
H         -1.30110       -0.38290        4.07360
H         -2.32740        1.29990        3.12230
H         -1.53690        3.59700        3.78090
H         -0.12050        5.33240        4.60230
H         -1.14740        5.93990        3.27350
H          0.42360        7.84870        2.93670
H          1.45260        7.24550        4.23820
H         -0.17490        7.83450        4.60070
H         -1.13900       -5.52440        1.29620
H         -2.08460       -7.55750        0.11650
H         -3.20950       -9.18440       -1.01240
H         -4.48260       -9.52430       -2.19820
H         -4.75730       -7.55130        0.13450
H         -5.47300       -9.16600        0.07950
H         -6.00840       -7.92150       -1.05630
H         -0.66150       -2.89340       -2.58270
H          0.59480        1.59260       -3.58630
H          1.81380        4.59040       -7.07180
H          2.32740        6.48730       -5.46250
H          1.43680        4.69520       -1.40150
H          2.00040        6.04020       -0.38190
H          3.68870        3.61490       -1.19760
H          4.24970        4.97200       -0.20760
H          2.97990        3.89690        0.40020
H         -0.41840       -2.72310       -7.36910
H         -0.02790       -4.99900       -8.45670
H          4.30980       -4.55260      -10.61340
H          4.41980       -6.28820      -10.99340
H          4.50120       -5.09640       -8.16720
H          5.89970       -5.71630       -9.05090
H          4.60470       -6.81700       -8.55810
H          2.49070       -0.34440      -10.19160
H          4.90000        0.38240      -14.87820
H          4.28190        3.17570      -15.98560
H          4.78170        1.68320      -16.91270
