
  xtb     03072217093D
 energy: -316.515562671084 gnorm: 0.000427206360 xtb: 6.4.1 (unknown)
179199  0     0  0            999 V2000
    7.1777   -9.7474   11.9613 C   0  0  0  0  0  0  0  0  0  0  0  0
    5.8317   -9.0660   11.1599 S   0  0  0  0  0  0  0  0  0  0  0  0
    6.7420   -8.8506    9.6792 C   0  0  0  0  0  0  0  0  0  0  0  0
    8.0399   -9.3164    9.8402 C   0  0  0  0  0  0  0  0  0  0  0  0
    8.2784   -9.8198   11.1602 C   0  0  0  0  0  0  0  0  0  0  0  0
    9.5869  -10.2970   11.6262 C   0  0  0  0  0  0  0  0  0  0  0  0
    9.7565  -10.8277   12.6994 O   0  0  0  0  0  0  0  0  0  0  0  0
   10.7085  -10.0139   10.6521 C   0  0  0  0  0  0  0  0  0  0  0  0
   10.2751  -10.2174    9.2039 C   0  0  0  0  0  0  0  0  0  0  0  0
    9.0732   -9.3792    8.8188 C   0  0  0  0  0  0  0  0  0  0  0  0
    8.9977   -8.8496    7.7279 O   0  0  0  0  0  0  0  0  0  0  0  0
    6.0592   -8.2790    8.5681 C   0  0  0  0  0  0  0  0  0  0  0  0
    4.7295   -7.9374    8.5783 C   0  0  0  0  0  0  0  0  0  0  0  0
    4.2706   -7.3607    7.3787 C   0  0  0  0  0  0  0  0  0  0  0  0
    2.9552   -6.9315    7.0760 C   0  0  0  0  0  0  0  0  0  0  0  0
    1.8461   -7.2000    7.9584 C   0  0  0  0  0  0  0  0  0  0  0  0
    1.6507   -8.3110    8.7360 C   0  0  0  0  0  0  0  0  0  0  0  0
    0.4776   -8.3282    9.5125 C   0  0  0  0  0  0  0  0  0  0  0  0
   -0.3130   -7.2210    9.3904 C   0  0  0  0  0  0  0  0  0  0  0  0
   -1.7725   -6.9621   10.3161 S   0  0  0  0  0  0  0  0  0  0  0  0
   -2.6490   -5.7528    9.2621 C   0  0  0  0  0  0  0  0  0  0  0  0
   -3.1596   -6.3803    7.9813 C   0  0  0  0  0  0  0  0  0  0  0  0
    0.4305   -5.9743    8.1849 Se  0  0  0  0  0  2  0  0  0  0  0  0
    2.8098   -6.2531    5.8728 C   0  0  0  0  0  0  0  0  0  0  0  0
    3.8648   -6.0713    4.9457 C   0  0  0  0  0  0  0  0  0  0  0  0
    5.1443   -6.6186    5.1870 C   0  0  0  0  0  0  0  0  0  0  0  0
    6.1894   -6.5927    4.1911 C   0  0  0  0  0  0  0  0  0  0  0  0
    7.5464   -6.5865    4.3787 C   0  0  0  0  0  0  0  0  0  0  0  0
    8.3418   -6.6381    3.2201 C   0  0  0  0  0  0  0  0  0  0  0  0
    7.6549   -6.7074    2.0401 C   0  0  0  0  0  0  0  0  0  0  0  0
    8.4280   -6.7245    0.4712 S   0  0  0  0  0  0  0  0  0  0  0  0
    7.0149   -6.5365   -0.6739 C   0  0  0  0  0  0  0  0  0  0  0  0
    6.3111   -7.8506   -0.9481 C   0  0  0  0  0  0  0  0  0  0  0  0
    5.8031   -6.7236    2.3425 Se  0  0  0  0  0  2  0  0  0  0  0  0
    5.3211   -7.2180    6.4382 C   0  0  0  0  0  0  0  0  0  0  0  0
    6.8149   -7.8806    7.0426 S   0  0  0  0  0  0  0  0  0  0  0  0
    3.4484   -5.3009    3.8344 C   0  0  0  0  0  0  0  0  0  0  0  0
    2.1309   -4.9468    3.8624 C   0  0  0  0  0  0  0  0  0  0  0  0
    1.3253   -5.5426    5.2952 S   0  0  0  0  0  0  0  0  0  0  0  0
    1.4385   -4.1932    2.8715 C   0  0  0  0  0  0  0  0  0  0  0  0
    1.9004   -3.8682    1.6288 C   0  0  0  0  0  0  0  0  0  0  0  0
    0.9955   -3.0926    0.8677 C   0  0  0  0  0  0  0  0  0  0  0  0
    1.1741   -2.5881   -0.4406 C   0  0  0  0  0  0  0  0  0  0  0  0
    2.2904   -3.0055   -1.2525 C   0  0  0  0  0  0  0  0  0  0  0  0
    2.8792   -4.2432   -1.2692 C   0  0  0  0  0  0  0  0  0  0  0  0
    3.9823   -4.3956   -2.1266 C   0  0  0  0  0  0  0  0  0  0  0  0
    4.3221   -3.2780   -2.8379 C   0  0  0  0  0  0  0  0  0  0  0  0
    5.6340   -3.2521   -3.9936 S   0  0  0  0  0  0  0  0  0  0  0  0
    5.6127   -1.5189   -4.5679 C   0  0  0  0  0  0  0  0  0  0  0  0
    6.2725   -0.5761   -3.5821 C   0  0  0  0  0  0  0  0  0  0  0  0
    3.1567   -1.8461   -2.4601 Se  0  0  0  0  0  2  0  0  0  0  0  0
    0.2164   -1.6742   -0.8701 C   0  0  0  0  0  0  0  0  0  0  0  0
   -0.9366   -1.3390   -0.1215 C   0  0  0  0  0  0  0  0  0  0  0  0
   -1.1872   -1.9595    1.1220 C   0  0  0  0  0  0  0  0  0  0  0  0
   -2.4054   -1.7102    1.8540 C   0  0  0  0  0  0  0  0  0  0  0  0
   -3.6581   -1.5060    1.3400 C   0  0  0  0  0  0  0  0  0  0  0  0
   -4.6766   -1.2399    2.2733 C   0  0  0  0  0  0  0  0  0  0  0  0
   -4.2711   -1.2080    3.5780 C   0  0  0  0  0  0  0  0  0  0  0  0
   -5.3361   -0.8039    4.9055 S   0  0  0  0  0  0  0  0  0  0  0  0
   -4.3194   -1.2537    6.3541 C   0  0  0  0  0  0  0  0  0  0  0  0
   -4.2354   -2.7525    6.5609 C   0  0  0  0  0  0  0  0  0  0  0  0
   -2.4266   -1.5663    3.7338 Se  0  0  0  0  0  2  0  0  0  0  0  0
   -0.1773   -2.7899    1.5980 C   0  0  0  0  0  0  0  0  0  0  0  0
   -0.1689   -3.5652    3.1587 S   0  0  0  0  0  0  0  0  0  0  0  0
   -1.6892   -0.3172   -0.7471 C   0  0  0  0  0  0  0  0  0  0  0  0
   -1.1670    0.1070   -1.9326 C   0  0  0  0  0  0  0  0  0  0  0  0
    0.2880   -0.7712   -2.3610 S   0  0  0  0  0  0  0  0  0  0  0  0
   -1.6554    1.1643   -2.7493 C   0  0  0  0  0  0  0  0  0  0  0  0
   -1.0908    1.7222   -3.8569 C   0  0  0  0  0  0  0  0  0  0  0  0
   -1.8132    2.8275   -4.3726 C   0  0  0  0  0  0  0  0  0  0  0  0
   -1.4946    3.6407   -5.4812 C   0  0  0  0  0  0  0  0  0  0  0  0
   -0.2620    3.4839   -6.2170 C   0  0  0  0  0  0  0  0  0  0  0  0
    0.9700    3.1401   -5.7253 C   0  0  0  0  0  0  0  0  0  0  0  0
    2.0084    3.0388   -6.6676 C   0  0  0  0  0  0  0  0  0  0  0  0
    1.6428    3.3006   -7.9595 C   0  0  0  0  0  0  0  0  0  0  0  0
    2.7765    3.2947   -9.2916 S   0  0  0  0  0  0  0  0  0  0  0  0
    1.6856    3.6003  -10.7238 C   0  0  0  0  0  0  0  0  0  0  0  0
    0.9249    2.3581  -11.1418 C   0  0  0  0  0  0  0  0  0  0  0  0
   -0.1806    3.7596   -8.0788 Se  0  0  0  0  0  2  0  0  0  0  0  0
   -2.4212    4.6324   -5.8037 C   0  0  0  0  0  0  0  0  0  0  0  0
   -3.6070    4.8633   -5.0657 C   0  0  0  0  0  0  0  0  0  0  0  0
   -3.9425    4.0362   -3.9648 C   0  0  0  0  0  0  0  0  0  0  0  0
   -5.1852    4.1854   -3.2490 C   0  0  0  0  0  0  0  0  0  0  0  0
   -6.4017    4.5693   -3.7538 C   0  0  0  0  0  0  0  0  0  0  0  0
   -7.4655    4.6360   -2.8380 C   0  0  0  0  0  0  0  0  0  0  0  0
   -7.1407    4.3073   -1.5505 C   0  0  0  0  0  0  0  0  0  0  0  0
   -8.2667    4.3135   -0.2176 S   0  0  0  0  0  0  0  0  0  0  0  0
   -7.2248    3.5580    1.0855 C   0  0  0  0  0  0  0  0  0  0  0  0
   -8.0255    3.3561    2.3546 C   0  0  0  0  0  0  0  0  0  0  0  0
   -5.3221    3.8411   -1.3980 Se  0  0  0  0  0  2  0  0  0  0  0  0
   -3.0042    3.0629   -3.6408 C   0  0  0  0  0  0  0  0  0  0  0  0
   -3.1599    1.9490   -2.3101 S   0  0  0  0  0  0  0  0  0  0  0  0
   -4.2854    6.0003   -5.5393 C   0  0  0  0  0  0  0  0  0  0  0  0
   -3.6957    6.6027   -6.6260 C   0  0  0  0  0  0  0  0  0  0  0  0
   -2.2334    5.7726   -7.1055 S   0  0  0  0  0  0  0  0  0  0  0  0
   -4.2180    7.7678   -7.2518 C   0  0  0  0  0  0  0  0  0  0  0  0
   -5.6600    8.4472   -6.5589 S   0  0  0  0  0  0  0  0  0  0  0  0
   -5.7024    9.7511   -7.7013 C   0  0  0  0  0  0  0  0  0  0  0  0
   -4.6504    9.6433   -8.5983 C   0  0  0  0  0  0  0  0  0  0  0  0
   -3.8098    8.5108   -8.3562 C   0  0  0  0  0  0  0  0  0  0  0  0
   -2.6438    8.2318   -9.1769 C   0  0  0  0  0  0  0  0  0  0  0  0
   -1.9222    7.2623   -9.0376 O   0  0  0  0  0  0  0  0  0  0  0  0
   -2.3460    9.2659  -10.2423 C   0  0  0  0  0  0  0  0  0  0  0  0
   -3.6125    9.8647  -10.8423 C   0  0  0  0  0  0  0  0  0  0  0  0
   -4.4465   10.5046   -9.7580 C   0  0  0  0  0  0  0  0  0  0  0  0
   -4.8939   11.6281   -9.8695 O   0  0  0  0  0  0  0  0  0  0  0  0
   -6.7273   10.7487   -7.5940 C   0  0  0  0  0  0  0  0  0  0  0  0
   -6.4104   12.4010   -8.0423 S   0  0  0  0  0  0  0  0  0  0  0  0
   -7.9197   12.9062   -7.4430 C   0  0  0  0  0  0  0  0  0  0  0  0
   -8.6765   11.8729   -6.9582 C   0  0  0  0  0  0  0  0  0  0  0  0
   -7.9907   10.6254   -7.0226 C   0  0  0  0  0  0  0  0  0  0  0  0
   -8.6532    9.3940   -6.5880 C   0  0  0  0  0  0  0  0  0  0  0  0
   -8.2737    8.2755   -6.8665 O   0  0  0  0  0  0  0  0  0  0  0  0
   -9.8797    9.6299   -5.7339 C   0  0  0  0  0  0  0  0  0  0  0  0
  -10.7887   10.7248   -6.2837 C   0  0  0  0  0  0  0  0  0  0  0  0
  -10.0580   12.0335   -6.4872 C   0  0  0  0  0  0  0  0  0  0  0  0
  -10.5762   13.1124   -6.3146 O   0  0  0  0  0  0  0  0  0  0  0  0
    7.1072  -10.0490   12.9878 H   0  0  0  0  0  0  0  0  0  0  0  0
   11.5627  -10.6473   10.8963 H   0  0  0  0  0  0  0  0  0  0  0  0
   11.0100   -8.9723   10.8024 H   0  0  0  0  0  0  0  0  0  0  0  0
   11.0915   -9.9851    8.5180 H   0  0  0  0  0  0  0  0  0  0  0  0
    9.9965  -11.2649    9.0496 H   0  0  0  0  0  0  0  0  0  0  0  0
    4.1110   -8.0645    9.4490 H   0  0  0  0  0  0  0  0  0  0  0  0
    2.3161   -9.1571    8.7016 H   0  0  0  0  0  0  0  0  0  0  0  0
    0.2096   -9.1564   10.1455 H   0  0  0  0  0  0  0  0  0  0  0  0
   -3.4667   -5.3866    9.8818 H   0  0  0  0  0  0  0  0  0  0  0  0
   -1.9504   -4.9335    9.0635 H   0  0  0  0  0  0  0  0  0  0  0  0
   -2.3288   -6.7427    7.3757 H   0  0  0  0  0  0  0  0  0  0  0  0
   -3.7115   -5.6445    7.4008 H   0  0  0  0  0  0  0  0  0  0  0  0
   -3.8166   -7.2171    8.2060 H   0  0  0  0  0  0  0  0  0  0  0  0
    7.9947   -6.4941    5.3523 H   0  0  0  0  0  0  0  0  0  0  0  0
    9.4170   -6.6126    3.2534 H   0  0  0  0  0  0  0  0  0  0  0  0
    6.3399   -5.7968   -0.2335 H   0  0  0  0  0  0  0  0  0  0  0  0
    7.4499   -6.1250   -1.5848 H   0  0  0  0  0  0  0  0  0  0  0  0
    5.5007   -7.6965   -1.6579 H   0  0  0  0  0  0  0  0  0  0  0  0
    5.8899   -8.2630   -0.0303 H   0  0  0  0  0  0  0  0  0  0  0  0
    7.0073   -8.5742   -1.3650 H   0  0  0  0  0  0  0  0  0  0  0  0
    4.1114   -4.9470    3.0645 H   0  0  0  0  0  0  0  0  0  0  0  0
    2.8779   -4.1473    1.2828 H   0  0  0  0  0  0  0  0  0  0  0  0
    2.4896   -5.0704   -0.6999 H   0  0  0  0  0  0  0  0  0  0  0  0
    4.5177   -5.3234   -2.2304 H   0  0  0  0  0  0  0  0  0  0  0  0
    4.5663   -1.2535   -4.7473 H   0  0  0  0  0  0  0  0  0  0  0  0
    6.1468   -1.5353   -5.5175 H   0  0  0  0  0  0  0  0  0  0  0  0
    6.2573    0.4375   -3.9767 H   0  0  0  0  0  0  0  0  0  0  0  0
    5.7424   -0.5832   -2.6290 H   0  0  0  0  0  0  0  0  0  0  0  0
    7.3046   -0.8703   -3.4071 H   0  0  0  0  0  0  0  0  0  0  0  0
   -3.8668   -1.6013    0.2877 H   0  0  0  0  0  0  0  0  0  0  0  0
   -5.7016   -1.0778    1.9874 H   0  0  0  0  0  0  0  0  0  0  0  0
   -3.3300   -0.8104    6.2033 H   0  0  0  0  0  0  0  0  0  0  0  0
   -4.8072   -0.7644    7.1966 H   0  0  0  0  0  0  0  0  0  0  0  0
   -5.2299   -3.1732    6.6925 H   0  0  0  0  0  0  0  0  0  0  0  0
   -3.6395   -2.9661    7.4461 H   0  0  0  0  0  0  0  0  0  0  0  0
   -3.7627   -3.2327    5.7034 H   0  0  0  0  0  0  0  0  0  0  0  0
   -2.5606    0.1380   -0.3120 H   0  0  0  0  0  0  0  0  0  0  0  0
   -0.1910    1.3319   -4.2961 H   0  0  0  0  0  0  0  0  0  0  0  0
    1.1528    3.0109   -4.6719 H   0  0  0  0  0  0  0  0  0  0  0  0
    3.0190    2.7851   -6.3973 H   0  0  0  0  0  0  0  0  0  0  0  0
    1.0111    4.4162  -10.4461 H   0  0  0  0  0  0  0  0  0  0  0  0
    2.3547    3.9389  -11.5144 H   0  0  0  0  0  0  0  0  0  0  0  0
    1.6151    1.5553  -11.3906 H   0  0  0  0  0  0  0  0  0  0  0  0
    0.3107    2.5776  -12.0125 H   0  0  0  0  0  0  0  0  0  0  0  0
    0.2725    2.0195  -10.3362 H   0  0  0  0  0  0  0  0  0  0  0  0
   -6.5574    4.7458   -4.8045 H   0  0  0  0  0  0  0  0  0  0  0  0
   -8.4657    4.9094   -3.1263 H   0  0  0  0  0  0  0  0  0  0  0  0
   -6.3770    4.2303    1.2496 H   0  0  0  0  0  0  0  0  0  0  0  0
   -6.8595    2.6059    0.6898 H   0  0  0  0  0  0  0  0  0  0  0  0
   -8.8755    2.7041    2.1673 H   0  0  0  0  0  0  0  0  0  0  0  0
   -7.3973    2.9001    3.1166 H   0  0  0  0  0  0  0  0  0  0  0  0
   -8.3959    4.3080    2.7276 H   0  0  0  0  0  0  0  0  0  0  0  0
   -5.1715    6.3999   -5.0797 H   0  0  0  0  0  0  0  0  0  0  0  0
   -1.7278    8.8013  -11.0121 H   0  0  0  0  0  0  0  0  0  0  0  0
   -1.7527   10.0559   -9.7710 H   0  0  0  0  0  0  0  0  0  0  0  0
   -3.3728   10.6154  -11.5966 H   0  0  0  0  0  0  0  0  0  0  0  0
   -4.2068    9.0768  -11.3136 H   0  0  0  0  0  0  0  0  0  0  0  0
   -8.2263   13.9316   -7.5148 H   0  0  0  0  0  0  0  0  0  0  0  0
  -10.4232    8.6883   -5.6390 H   0  0  0  0  0  0  0  0  0  0  0  0
   -9.5240    9.9172   -4.7393 H   0  0  0  0  0  0  0  0  0  0  0  0
  -11.6416   10.8907   -5.6236 H   0  0  0  0  0  0  0  0  0  0  0  0
  -11.1782   10.4216   -7.2608 H   0  0  0  0  0  0  0  0  0  0  0  0
  1  2  1  0  0  0  0
  2  3  1  0  0  0  0
  3  4  2  0  0  0  0
  4  5  1  0  0  0  0
  5  6  1  0  0  0  0
  6  7  2  0  0  0  0
  6  8  1  0  0  0  0
  8  9  1  0  0  0  0
  9 10  1  0  0  0  0
 10 11  2  0  0  0  0
  3 12  1  0  0  0  0
 12 13  2  0  0  0  0
 13 14  1  0  0  0  0
 14 15  2  0  0  0  0
 15 16  1  0  0  0  0
 16 17  2  0  0  0  0
 17 18  1  0  0  0  0
 18 19  2  0  0  0  0
 19 20  1  0  0  0  0
 20 21  1  0  0  0  0
 21 22  1  0  0  0  0
 19 23  1  0  0  0  0
 15 24  1  0  0  0  0
 24 25  2  0  0  0  0
 25 26  1  0  0  0  0
 26 27  1  0  0  0  0
 27 28  2  0  0  0  0
 28 29  1  0  0  0  0
 29 30  2  0  0  0  0
 30 31  1  0  0  0  0
 31 32  1  0  0  0  0
 32 33  1  0  0  0  0
 30 34  1  0  0  0  0
 26 35  2  0  0  0  0
 35 36  1  0  0  0  0
 25 37  1  0  0  0  0
 37 38  2  0  0  0  0
 38 39  1  0  0  0  0
 38 40  1  0  0  0  0
 40 41  2  0  0  0  0
 41 42  1  0  0  0  0
 42 43  2  0  0  0  0
 43 44  1  0  0  0  0
 44 45  2  0  0  0  0
 45 46  1  0  0  0  0
 46 47  2  0  0  0  0
 47 48  1  0  0  0  0
 48 49  1  0  0  0  0
 49 50  1  0  0  0  0
 47 51  1  0  0  0  0
 43 52  1  0  0  0  0
 52 53  2  0  0  0  0
 53 54  1  0  0  0  0
 54 55  1  0  0  0  0
 55 56  2  0  0  0  0
 56 57  1  0  0  0  0
 57 58  2  0  0  0  0
 58 59  1  0  0  0  0
 59 60  1  0  0  0  0
 60 61  1  0  0  0  0
 58 62  1  0  0  0  0
 54 63  2  0  0  0  0
 63 64  1  0  0  0  0
 53 65  1  0  0  0  0
 65 66  2  0  0  0  0
 66 67  1  0  0  0  0
 66 68  1  0  0  0  0
 68 69  2  0  0  0  0
 69 70  1  0  0  0  0
 70 71  2  0  0  0  0
 71 72  1  0  0  0  0
 72 73  2  0  0  0  0
 73 74  1  0  0  0  0
 74 75  2  0  0  0  0
 75 76  1  0  0  0  0
 76 77  1  0  0  0  0
 77 78  1  0  0  0  0
 75 79  1  0  0  0  0
 71 80  1  0  0  0  0
 80 81  2  0  0  0  0
 81 82  1  0  0  0  0
 82 83  1  0  0  0  0
 83 84  2  0  0  0  0
 84 85  1  0  0  0  0
 85 86  2  0  0  0  0
 86 87  1  0  0  0  0
 87 88  1  0  0  0  0
 88 89  1  0  0  0  0
 86 90  1  0  0  0  0
 82 91  2  0  0  0  0
 91 92  1  0  0  0  0
 81 93  1  0  0  0  0
 93 94  2  0  0  0  0
 94 95  1  0  0  0  0
 94 96  1  0  0  0  0
 96 97  1  0  0  0  0
 97 98  1  0  0  0  0
 98 99  2  0  0  0  0
 99100  1  0  0  0  0
100101  1  0  0  0  0
101102  2  0  0  0  0
101103  1  0  0  0  0
103104  1  0  0  0  0
104105  1  0  0  0  0
105106  2  0  0  0  0
 98107  1  0  0  0  0
107108  1  0  0  0  0
108109  1  0  0  0  0
109110  2  0  0  0  0
110111  1  0  0  0  0
111112  1  0  0  0  0
112113  2  0  0  0  0
112114  1  0  0  0  0
114115  1  0  0  0  0
115116  1  0  0  0  0
116117  2  0  0  0  0
  5  1  2  0  0  0  0
 36 12  1  0  0  0  0
 64 40  1  0  0  0  0
 92 68  1  0  0  0  0
100 96  2  0  0  0  0
111107  2  0  0  0  0
 10  4  1  0  0  0  0
 35 14  1  0  0  0  0
 63 42  1  0  0  0  0
 91 70  1  0  0  0  0
105 99  1  0  0  0  0
116110  1  0  0  0  0
 23 16  1  0  0  0  0
 39 24  1  0  0  0  0
 51 44  1  0  0  0  0
 67 52  1  0  0  0  0
 79 72  1  0  0  0  0
 95 80  1  0  0  0  0
 34 27  1  0  0  0  0
 62 55  1  0  0  0  0
 90 83  1  0  0  0  0
  1118  1  0  0  0  0
  8119  1  0  0  0  0
  8120  1  0  0  0  0
  9121  1  0  0  0  0
  9122  1  0  0  0  0
 13123  1  0  0  0  0
 17124  1  0  0  0  0
 18125  1  0  0  0  0
 21126  1  0  0  0  0
 21127  1  0  0  0  0
 22128  1  0  0  0  0
 22129  1  0  0  0  0
 22130  1  0  0  0  0
 28131  1  0  0  0  0
 29132  1  0  0  0  0
 32133  1  0  0  0  0
 32134  1  0  0  0  0
 33135  1  0  0  0  0
 33136  1  0  0  0  0
 33137  1  0  0  0  0
 37138  1  0  0  0  0
 41139  1  0  0  0  0
 45140  1  0  0  0  0
 46141  1  0  0  0  0
 49142  1  0  0  0  0
 49143  1  0  0  0  0
 50144  1  0  0  0  0
 50145  1  0  0  0  0
 50146  1  0  0  0  0
 56147  1  0  0  0  0
 57148  1  0  0  0  0
 60149  1  0  0  0  0
 60150  1  0  0  0  0
 61151  1  0  0  0  0
 61152  1  0  0  0  0
 61153  1  0  0  0  0
 65154  1  0  0  0  0
 69155  1  0  0  0  0
 73156  1  0  0  0  0
 74157  1  0  0  0  0
 77158  1  0  0  0  0
 77159  1  0  0  0  0
 78160  1  0  0  0  0
 78161  1  0  0  0  0
 78162  1  0  0  0  0
 84163  1  0  0  0  0
 85164  1  0  0  0  0
 88165  1  0  0  0  0
 88166  1  0  0  0  0
 89167  1  0  0  0  0
 89168  1  0  0  0  0
 89169  1  0  0  0  0
 93170  1  0  0  0  0
103171  1  0  0  0  0
103172  1  0  0  0  0
104173  1  0  0  0  0
104174  1  0  0  0  0
109175  1  0  0  0  0
114176  1  0  0  0  0
114177  1  0  0  0  0
115178  1  0  0  0  0
115179  1  0  0  0  0
M  END
