191

C         11.27350       -4.11090        9.84590
S          9.94310       -3.57780        8.89670
C          8.82290       -4.52380        9.84710
C          9.48870       -5.21640       10.82080
C         10.88670       -4.96860       10.82220
C         11.70040       -5.72600       11.81430
S         13.50130       -5.49580       11.61450
C         11.31610       -7.20290       11.69630
C          9.80970       -7.44080       11.91060
C          8.93700       -6.16980       11.83260
O          8.91320       -5.48170       13.07380
C          7.42160       -4.47270        9.52660
S          6.92530       -4.54040        7.86300
C          5.24120       -4.28900        8.28450
C          5.10160       -4.19640        9.64690
C          6.33640       -4.28480       10.34440
C          6.36550       -3.96450       11.79580
S          5.74460       -5.38680       12.81480
C          5.50700       -2.71840       12.01660
C          4.07560       -2.86270       11.47830
C          3.88740       -4.05890       10.52560
O          2.65670       -3.87840        9.87170
C          4.33620       -4.12580        7.18610
C          4.60220       -4.46750        5.89080
C          3.61160       -4.05790        4.96550
C          3.58740       -4.25070        3.56800
C          4.55740       -5.07220        2.87890
C          5.08620       -4.87950        1.63310
C          5.92910       -5.89900        1.14990
C          6.09600       -6.96190        1.98950
S          7.16860       -8.30210        1.65460
C          6.52790       -9.57710        2.79590
C          5.19040      -10.12900        2.34730
Se         5.15540       -6.71160        3.60240
C          2.55290       -3.61450        2.88470
C          1.52810       -2.87410        3.52400
C          1.49640       -2.77670        4.93160
C          0.40430       -2.14210        5.63050
C         -0.92450       -2.16350        5.29840
C         -1.79120       -1.46530        6.15880
C         -1.18120       -0.84290        7.21220
S         -2.03620        0.13700        8.38080
C         -0.75440        0.41150        9.65350
C         -0.51160       -0.81320       10.51240
Se         0.67960       -1.13270        7.19750
C          2.57860       -3.33670        5.60450
S          2.81470       -3.27110        7.32740
C          0.64570       -2.27570        2.59180
C          0.93970       -2.56840        1.29190
S          2.33170       -3.61920        1.15600
C          0.29720       -2.08580        0.11360
C         -0.75660       -1.22370        0.01840
C         -1.11270       -0.90370       -1.31480
C         -2.10670       -0.00680       -1.76280
C         -3.04880        0.61560       -0.86120
C         -3.63430        0.06570        0.24790
C         -4.55680        0.87940        0.93250
C         -4.73630        2.12450        0.39860
S         -5.78240        3.34010        1.09590
C         -5.95320        4.52580       -0.28540
C         -6.83330        3.99650       -1.39940
Se        -3.66070        2.37880       -1.12820
C         -2.14080        0.22750       -3.13470
C         -1.30430       -0.41900       -4.07350
C         -0.32090       -1.32470       -3.62620
C          0.61780       -1.93700       -4.53860
C          1.22720       -1.35120       -5.61390
C          2.12380       -2.16470       -6.33340
C          2.25670       -3.43880       -5.85970
S          3.24220       -4.66320       -6.62670
C          3.49630       -5.83590       -5.24840
C          4.41430       -5.27800       -4.18040
Se         1.16430       -3.73050       -4.34890
C         -0.26780       -1.54360       -2.25290
S          0.90290       -2.55800       -1.45890
C         -1.61090       -0.04870       -5.40810
C         -2.58880        0.89540       -5.50330
S         -3.23270        1.32200       -3.92600
C         -3.16430        1.56900       -6.62310
S         -4.68700        2.35220       -6.35320
C         -4.72900        2.96870       -7.97490
C         -3.63230        2.53360       -8.69790
C         -2.71990        1.78040       -7.91540
C         -1.37180        1.37590       -8.42150
S         -0.06580        1.93970       -7.22660
C         -1.06920        2.00030       -9.77870
C         -2.28100        1.88720      -10.68760
C         -3.41700        2.77700      -10.17220
O         -4.58040        2.56350      -10.94450
C         -5.76970        3.90200       -8.27250
C         -6.09130        4.55040       -9.42670
C         -7.12430        5.51080       -9.27750
C         -7.63110        6.38950      -10.25630
C         -7.08760        6.44720      -11.59510
C         -7.76080        6.68190      -12.76260
C         -6.97750        6.74500      -13.93050
C         -5.63370        6.59410      -13.73640
S         -4.44920        6.69240      -15.02030
C         -2.93390        6.10790      -14.18370
C         -2.91850        4.60550      -13.98140
Se        -5.23400        6.33280      -11.92040
C         -8.65790        7.23820       -9.84140
C         -9.15440        7.27510       -8.51750
C         -8.62820        6.41750       -7.53480
C         -9.02520        6.44700       -6.14030
C         -9.16240        5.36530       -5.31630
C         -9.38860        5.64100       -3.95180
C         -9.42490        6.96660       -3.63770
S         -9.60730        7.73760       -2.07760
C        -10.37950        6.42570       -1.06470
C        -11.79240        6.11020       -1.51260
Se        -9.20180        8.05350       -5.15110
C         -7.63010        5.54470       -7.95760
S         -6.78140        4.42380       -6.93370
C        -10.17830        8.25550       -8.36520
C        -10.42650        8.93950       -9.50000
S         -9.44990        8.43500      -10.83380
H         12.25880       -3.75080        9.62620
H         11.48970       -5.35700       12.82200
H         13.57680       -6.02740       10.39510
H         11.59750       -7.53950       10.69460
H         11.89410       -7.78500       12.41510
H          9.44990       -8.14750       11.16220
H          9.64230       -7.88860       12.89280
H          7.91260       -6.46060       11.55570
H          8.48510       -6.04840       13.72560
H          7.39080       -3.80190       12.13460
H          5.93430       -4.77840       13.98210
H          5.48200       -2.47220       13.07960
H          6.01480       -1.89860       11.50230
H          3.78760       -1.97020       10.92210
H          3.36630       -2.98380       12.29710
H          3.84030       -4.97900       11.13100
H          2.36660       -4.71520        9.49420
H          5.51910       -4.96110        5.61270
H          4.89850       -3.98800        1.05970
H          6.40540       -5.85230        0.18580
H          6.46670       -9.12010        3.78870
H          7.29500      -10.35070        2.80470
H          4.43820       -9.34080        2.32430
H          4.85870      -10.90130        3.03810
H          5.27200      -10.55880        1.35170
H         -1.29590       -2.73640        4.46510
H         -2.85660       -1.42780        6.00970
H          0.15430        0.72760        9.13140
H         -1.13340        1.24290       10.24750
H          0.21620       -0.57900       11.28630
H         -0.11910       -1.63630        9.91490
H         -1.43680       -1.13440       10.98510
H         -0.14990       -1.61230        2.87510
H         -1.23480       -0.79150        0.87730
H         -3.45830       -0.95610        0.54040
H         -5.09660        0.54480        1.80160
H         -4.94440        4.75540       -0.64190
H         -6.38270        5.41760        0.17050
H         -6.95300        4.75790       -2.16780
H         -7.81160        3.72260       -1.00930
H         -6.38600        3.11510       -1.85960
H          1.08620       -0.30950       -5.84970
H          2.68300       -1.81030       -7.18230
H          3.92140       -6.72310       -5.71650
H          2.50740       -6.07890       -4.84690
H          4.56120       -6.01900       -3.39750
H          5.38070       -5.01930       -4.60710
H          3.98170       -4.38450       -3.72980
H         -1.13960       -0.50540       -6.25690
H         -1.29160        0.28460       -8.46660
H          0.95320        1.59490       -8.01380
H         -0.20700        1.50250      -10.22740
H         -0.82140        3.05540       -9.64070
H         -2.62730        0.84950      -10.71490
H         -2.03080        2.18530      -11.70620
H         -3.16870        3.83520      -10.33810
H         -4.90600        1.67070      -10.78310
H         -5.63760        4.30370      -10.36790
H         -8.83400        6.76000      -12.79980
H         -7.40050        6.89750      -14.90830
H         -2.12130        6.42610      -14.83650
H         -2.86100        6.64620      -13.23330
H         -3.72950        4.29080      -13.32400
H         -3.02680        4.09450      -14.93520
H         -1.97350        4.30950      -13.52970
H         -9.12790        4.35330       -5.68280
H         -9.50470        4.85180       -3.22960
H         -9.73030        5.55190       -1.09500
H        -10.36890        6.83790       -0.05590
H        -11.80090        5.74610       -2.53790
H        -12.22100        5.34540       -0.86780
H        -12.41370        7.00100       -1.45810
H        -10.70970        8.42270       -7.44360
H        -11.14380        9.72090       -9.65770
