278

C        -19.77540       -2.03610       11.05200
C        -18.98200       -0.96000       10.88110
C        -18.16950       -1.04920        9.71170
C        -17.23170       -0.12400        9.23510
C        -16.86120        1.10300        9.95310
C        -16.84420        2.33280        9.29600
C        -16.36720        3.45980        9.92730
C        -15.89410        3.41120       11.23820
S        -15.28040        4.91830       11.92460
C        -13.95570        4.37310       13.07710
C        -12.98110        5.51750       13.27300
C        -15.97330        2.19050       11.90160
F        -15.58730        2.07620       13.19290
C        -16.43490        1.04950       11.27510
C        -16.59290       -0.44360        8.04640
C        -16.80830       -1.65510        7.34700
C        -17.73130       -2.59310        7.83640
C        -17.93010       -3.87020        7.14120
C        -19.19920       -4.31710        6.78890
C        -19.37330       -5.49240        6.08280
C        -18.28220       -6.27050        5.71420
S        -18.34840       -7.75490        4.76620
C        -20.10100       -8.25640        4.83950
C        -20.50510       -8.73260        6.22160
C        -17.01610       -5.82090        6.09370
C        -16.82820       -4.65060        6.79110
F        -15.93470       -6.55480        5.75920
C        -18.40980       -2.24910        8.99750
S        -19.60130       -3.23110        9.81130
C        -15.99590       -1.74440        6.18640
C        -15.17280       -0.67400        6.01680
S        -15.37470        0.53350        7.27210
C        -14.16470       -0.48090        5.03020
C        -13.40980        0.63680        4.84370
C        -12.39040        0.48510        3.87360
C        -11.39350        1.41590        3.51370
C        -11.25210        2.69640        4.17430
C        -10.83840        3.87770        3.62150
C        -10.75520        4.98000        4.49510
C        -11.08810        4.71960        5.79240
S        -11.06260        5.90830        7.07850
C        -12.54770        5.44200        8.05160
C        -12.25280        4.42610        9.13600
Se       -11.51480        2.90400        6.03250
C        -10.51310        1.00210        2.51680
C        -10.55930       -0.27500        1.90370
C        -11.52070       -1.22540        2.31030
C        -11.52950       -2.57990        1.80620
C        -10.45280       -3.37320        1.51270
C        -10.74430       -4.67900        1.07620
C        -12.07460       -4.98030        0.99440
S        -12.69690       -6.50580        0.41650
C        -14.37890       -6.50990        1.13610
C        -14.36370       -6.70570        2.63740
Se       -13.14160       -3.50850        1.49140
C        -12.42760       -0.79570        3.27530
S        -13.68660       -1.78480        3.96710
C         -9.53690       -0.43190        0.93460
C         -8.70250        0.64060        0.83790
S         -9.17180        1.93890        1.91630
C         -7.51340        0.77320        0.06480
C         -6.67230        1.84520        0.03910
C         -5.48770        1.62280       -0.70470
C         -4.38970        2.48650       -0.85550
C         -4.38030        3.80350       -0.20740
C         -4.65960        3.92410        1.15140
C         -4.70670        5.15980        1.76530
C         -4.48740        6.32400        1.03760
S         -4.55700        7.95780        1.69260
C         -5.44930        7.76300        3.27520
C         -6.90640        7.38760        3.08220
C         -4.16640        6.18510       -0.31420
F         -3.92190        7.29060       -1.04480
C         -4.10630        4.95790       -0.93650
C         -3.32150        2.00880       -1.59690
C         -3.29860        0.71330       -2.17270
C         -4.40110       -0.14560       -2.03090
C         -4.39400       -1.50320       -2.59040
C         -3.34880       -2.38660       -2.32470
C         -3.34410       -3.65170       -2.87120
C         -4.37990       -4.09090       -3.69380
S         -4.27480       -5.74390       -4.31500
C         -4.88550       -5.61060       -6.03630
C         -4.08260       -4.61440       -6.84820
C         -5.43700       -3.21370       -3.91470
C         -5.44700       -1.93810       -3.38740
F         -6.49790       -3.58200       -4.66550
C         -5.47470        0.33740       -1.30030
S         -6.91290       -0.56590       -0.89510
C         -2.06230        0.44260       -2.80830
C         -1.15420        1.45310       -2.69530
S         -1.80820        2.84240       -1.84760
C          0.21980        1.40800       -3.07180
C          1.16700        2.38170       -2.96580
C          2.48060        1.93780       -3.26230
C          3.67580        2.68950       -3.23520
C          3.70550        4.08010       -2.84070
C          3.00610        4.68990       -1.83560
C          3.25130        6.06480       -1.65660
C          4.15300        6.61020       -2.52620
S          4.56950        8.30710       -2.55640
C          6.12250        8.28550       -3.52040
C          7.28070        7.70280       -2.73670
Se         4.80780        5.32100       -3.73520
C          4.83670        2.00350       -3.58030
C          4.85540        0.63160       -3.91910
C          3.66080       -0.11740       -3.98750
C          3.64930       -1.50270       -4.40430
C          2.81810       -2.50380       -3.97860
C          2.99490       -3.76460       -4.57860
C          3.96920       -3.81990       -5.53550
S          4.40920       -5.25990       -6.42130
C          5.89110       -4.66160       -7.31850
C          6.45860       -5.76380       -8.18740
Se         4.79160       -2.14670       -5.76790
C          2.50230        0.56940       -3.63360
S          0.90160       -0.11770       -3.59820
C          6.17350        0.15640       -4.08960
C          7.13820        1.11040       -3.93860
S          6.45190        2.66970       -3.55240
C          8.53880        0.86030       -4.03320
C          9.09050       -0.32290       -4.43200
C         10.49940       -0.35350       -4.34950
C         11.34760       -1.44400       -4.62590
C         10.80000       -2.74320       -4.95720
C          9.70860       -3.33500       -4.38050
C          9.30170       -4.56420       -4.93550
C         10.06610       -4.99580       -5.97980
S          9.86230       -6.43890       -6.95130
C          9.18260       -7.62710       -5.73440
C         10.15860       -7.91400       -4.61190
Se        11.48540       -3.82160       -6.34990
C         12.71020       -1.18890       -4.54740
C         13.25330        0.06520       -4.17320
C         12.39800        1.13180       -3.81450
C         12.91620        2.39870       -3.34470
C         14.00090        2.60170       -2.53550
C         14.33760        3.94370       -2.26590
C         13.52290        4.86370       -2.85850
S         13.60720        6.61090       -2.82020
C         14.54820        6.93640       -1.28580
C         13.77680        6.53430       -0.04480
Se        12.14790        4.05550       -3.84710
C         11.03250        0.88880       -3.93390
S          9.75960        2.02750       -3.57230
C         14.66930        0.05090       -4.22310
C         15.19650       -1.16110       -4.56610
S         13.95620       -2.35890       -4.86710
C         16.57260       -1.52950       -4.65720
C         17.66920       -0.73510       -4.48910
C         18.89870       -1.43170       -4.59970
C         20.20700       -0.91660       -4.48880
C         20.44830        0.45950       -4.11830
C         19.76410        1.20090       -3.19350
C         20.18380        2.53380       -3.03050
C         21.22390        2.91170       -3.83280
S         21.92060        4.51330       -3.83760
C         23.27680        4.27560       -5.04310
C         24.06750        5.55710       -5.20430
Se        21.80700        1.48920       -4.92280
C         21.24230       -1.81720       -4.72820
C         21.04280       -3.18550       -5.01910
C         19.73740       -3.70370       -5.11530
C         19.48970       -5.09610       -5.43070
C         20.13830       -5.86410       -6.35550
C         19.73200       -7.21300       -6.44580
C         18.74210       -7.56490       -5.57640
S         17.96400       -9.11150       -5.34140
C         18.83710      -10.17160       -6.55600
C         18.29060      -11.58310       -6.46580
Se        18.18230       -6.12000       -4.51700
C         18.70100       -2.80190       -4.89220
S         17.00800       -3.19300       -4.98770
C         22.28260       -3.88330       -5.12720
C         23.35490       -3.08610       -4.95430
S         22.94170       -1.43650       -4.63470
H        -20.47820       -2.21930       11.84110
H        -18.96780       -0.11460       11.54490
H        -17.20600        2.40260        8.28210
H        -16.34090        4.40670        9.41060
H        -14.41690        4.08270       14.01980
H        -13.46730        3.51190       12.62340
H        -12.53770        5.80980       12.32390
H        -13.48790        6.38150       13.69690
H        -12.18820        5.21110       13.95180
H        -16.43550        0.12000       11.82360
H        -20.06400       -3.72400        7.04390
H        -20.37260       -5.78810        5.80770
H        -20.16290       -9.06860        4.11520
H        -20.71570       -7.42970        4.48540
H        -21.54510       -9.05320        6.21280
H        -20.39160       -7.93980        6.95810
H        -19.88460       -9.57280        6.52450
H        -15.82810       -4.36330        7.07490
H        -16.02130       -2.56680        5.49430
H        -13.61310        1.54550        5.38480
H        -10.65600        3.98560        2.56600
H        -10.47910        5.96580        4.16260
H        -13.28740        5.06880        7.34200
H        -12.89900        6.37970        8.48130
H        -11.48210        4.79800        9.80730
H        -13.15920        4.23160        9.70600
H        -11.91060        3.48440        8.70240
H         -9.43900       -3.04990        1.67910
H         -9.97930       -5.39880        0.84190
H        -14.88890       -7.33060        0.63310
H        -14.85190       -5.56420        0.85180
H        -15.38160       -6.76020        3.01630
H        -13.85780       -5.87600        3.13140
H        -13.84940       -7.62750        2.89700
H         -9.42390       -1.30310        0.31560
H         -6.89450        2.76450        0.55070
H         -4.82310        3.03560        1.74250
H         -4.91500        5.20720        2.82180
H         -4.91270        7.04510        3.89440
H         -5.36170        8.74770        3.73430
H         -7.00190        6.42670        2.58070
H         -7.41060        8.14030        2.48070
H         -7.40170        7.32400        4.04950
H         -3.87560        4.91270       -1.98910
H         -2.54290       -2.08100       -1.67500
H         -2.53010       -4.33090       -2.67030
H         -5.94490       -5.36450       -6.01880
H         -4.76220       -6.62260       -6.42210
H         -3.02470       -4.86760       -6.82700
H         -4.20420       -3.60590       -6.45690
H         -4.42460       -4.62450       -7.88120
H         -6.28150       -1.29170       -3.61120
H         -1.84140       -0.47690       -3.32010
H          0.92080        3.39070       -2.69000
H          2.35970        4.14180       -1.17080
H          2.77670        6.64550       -0.88470
H          5.92540        7.71870       -4.43590
H          6.30110        9.32910       -3.77730
H          7.08360        6.66360       -2.47240
H          7.44350        8.26900       -1.82260
H          8.18650        7.73600       -3.33820
H          2.10420       -2.35850       -3.18610
H          2.41670       -4.62850       -4.30000
H          6.61510       -4.33260       -6.56750
H          5.57980       -3.80240       -7.92030
H          7.36840       -5.41860       -8.67280
H          6.69970       -6.63760       -7.58690
H          5.74040       -6.05710       -8.94920
H          6.41770       -0.87780       -4.25160
H          8.51100       -1.14360       -4.80990
H          9.20840       -2.90700       -3.52760
H          8.45140       -5.10650       -4.55750
H          8.23660       -7.23360       -5.36460
H          8.98690       -8.52030       -6.32710
H         11.09300       -8.30110       -5.01160
H         10.37360       -7.00870       -4.04740
H          9.73460       -8.65310       -3.93510
H         14.54460        1.78550       -2.08960
H         15.17800        4.20320       -1.64530
H         14.72040        8.01210       -1.31130
H         15.50680        6.42520       -1.36220
H         14.35830        6.77150        0.84390
H         13.56650        5.46680       -0.04890
H         12.83210        7.07080        0.00240
H         15.27570        0.91710       -4.03680
H         17.60220        0.32380       -4.32400
H         18.98600        0.77270       -2.58380
H         19.73120        3.20810       -2.32410
H         23.90410        3.46360       -4.66410
H         22.81720        3.96820       -5.98730
H         24.50090        5.85820       -4.25350
H         23.42420        6.35870       -5.55970
H         24.86990        5.40710       -5.92310
H         20.88530       -5.45730       -7.01690
H         20.17580       -7.89100       -7.15350
H         19.89910      -10.14370       -6.31200
H         18.66790       -9.74560       -7.54490
H         18.44220      -11.98640       -5.46730
H         18.80020      -12.22290       -7.18310
H         17.22520      -11.59270       -6.68320
H         22.35220       -4.94110       -5.30080
H         24.39230       -3.35590       -4.98360
