
  xtb     03082204063D
 energy: -429.716827364917 gnorm: 0.000589768542 xtb: 6.4.1 (unknown)
260289  0     0  0            999 V2000
    6.1732   -4.1624    3.7083 C   0  0  0  0  0  0  0  0  0  0  0  0
    5.3024   -5.1390    4.0290 C   0  0  0  0  0  0  0  0  0  0  0  0
    3.9391   -4.7368    3.9049 C   0  0  0  0  0  0  0  0  0  0  0  0
    2.7797   -5.5041    4.1134 C   0  0  0  0  0  0  0  0  0  0  0  0
    2.8125   -6.8976    4.5097 C   0  0  0  0  0  0  0  0  0  0  0  0
    1.9870   -7.5287    5.3975 C   0  0  0  0  0  0  0  0  0  0  0  0
    2.2582   -8.9040    5.5371 C   0  0  0  0  0  0  0  0  0  0  0  0
    3.2827   -9.3375    4.7547 C   0  0  0  0  0  0  0  0  0  0  0  0
    3.8232  -10.7171    4.6037 C   0  0  0  0  0  0  0  0  0  0  0  0
    3.3786  -11.3446    3.2807 C   0  0  0  0  0  0  0  0  0  0  0  0
    3.9406   -8.0328    3.8246 S   0  0  0  0  0  0  0  0  0  0  0  0
    1.5653   -4.8541    3.9102 C   0  0  0  0  0  0  0  0  0  0  0  0
    1.4609   -3.4875    3.5589 C   0  0  0  0  0  0  0  0  0  0  0  0
    2.6199   -2.7144    3.3580 C   0  0  0  0  0  0  0  0  0  0  0  0
    2.5795   -1.3100    3.0017 C   0  0  0  0  0  0  0  0  0  0  0  0
    3.3954   -0.3121    3.4567 C   0  0  0  0  0  0  0  0  0  0  0  0
    3.1239    0.9454    2.8833 C   0  0  0  0  0  0  0  0  0  0  0  0
    2.1085    0.9202    1.9784 C   0  0  0  0  0  0  0  0  0  0  0  0
    1.5540    2.0385    1.1655 C   0  0  0  0  0  0  0  0  0  0  0  0
    0.0891    2.3144    1.5060 C   0  0  0  0  0  0  0  0  0  0  0  0
    1.4379   -0.6716    1.8503 S   0  0  0  0  0  0  0  0  0  0  0  0
    3.8325   -3.3799    3.5190 C   0  0  0  0  0  0  0  0  0  0  0  0
    5.4081   -2.6805    3.2494 S   0  0  0  0  0  0  0  0  0  0  0  0
    0.1109   -3.0831    3.4235 C   0  0  0  0  0  0  0  0  0  0  0  0
   -0.7880   -4.0939    3.5956 C   0  0  0  0  0  0  0  0  0  0  0  0
   -0.0076   -5.6052    3.9950 S   0  0  0  0  0  0  0  0  0  0  0  0
   -2.1966   -3.9846    3.3750 C   0  0  0  0  0  0  0  0  0  0  0  0
   -2.9222   -2.8313    3.3510 C   0  0  0  0  0  0  0  0  0  0  0  0
   -4.2323   -2.9932    2.8394 C   0  0  0  0  0  0  0  0  0  0  0  0
   -5.1792   -1.9870    2.5717 C   0  0  0  0  0  0  0  0  0  0  0  0
   -4.9254   -0.5828    2.8401 C   0  0  0  0  0  0  0  0  0  0  0  0
   -3.7924    0.1215    2.5375 C   0  0  0  0  0  0  0  0  0  0  0  0
   -3.8334    1.4995    2.8323 C   0  0  0  0  0  0  0  0  0  0  0  0
   -5.0041    1.9331    3.3745 C   0  0  0  0  0  0  0  0  0  0  0  0
   -5.4010    3.6032    3.7525 S   0  0  0  0  0  0  0  0  0  0  0  0
   -5.7309    4.1992    2.0465 C   0  0  0  0  0  0  0  0  0  0  0  0
   -6.9422    3.5323    1.4294 C   0  0  0  0  0  0  0  0  0  0  0  0
   -6.2388    0.5293    3.5978 Se  0  0  0  0  0  2  0  0  0  0  0  0
   -6.3133   -2.3841    1.8758 C   0  0  0  0  0  0  0  0  0  0  0  0
   -6.5570   -3.7139    1.4605 C   0  0  0  0  0  0  0  0  0  0  0  0
   -5.6907   -4.7513    1.8822 C   0  0  0  0  0  0  0  0  0  0  0  0
   -6.0103   -6.1303    1.6252 C   0  0  0  0  0  0  0  0  0  0  0  0
   -7.2678   -6.6710    1.5213 C   0  0  0  0  0  0  0  0  0  0  0  0
   -7.3332   -8.0485    1.2567 C   0  0  0  0  0  0  0  0  0  0  0  0
   -6.1209   -8.6721    1.1391 C   0  0  0  0  0  0  0  0  0  0  0  0
   -5.9531  -10.3918    0.8755 S   0  0  0  0  0  0  0  0  0  0  0  0
   -4.1560  -10.5571    0.5935 C   0  0  0  0  0  0  0  0  0  0  0  0
   -3.7460  -10.0950   -0.7899 C   0  0  0  0  0  0  0  0  0  0  0  0
   -4.6989   -7.4654    1.4076 Se  0  0  0  0  0  2  0  0  0  0  0  0
   -4.5144   -4.3399    2.5101 C   0  0  0  0  0  0  0  0  0  0  0  0
   -3.1546   -5.3669    2.8811 S   0  0  0  0  0  0  0  0  0  0  0  0
   -7.5626   -3.7695    0.4605 C   0  0  0  0  0  0  0  0  0  0  0  0
   -8.0820   -2.5510    0.1316 C   0  0  0  0  0  0  0  0  0  0  0  0
   -7.4493   -1.2722    1.1608 S   0  0  0  0  0  0  0  0  0  0  0  0
   -8.7155   -2.1559   -1.0837 C   0  0  0  0  0  0  0  0  0  0  0  0
   -9.0134   -0.8745   -1.4500 C   0  0  0  0  0  0  0  0  0  0  0  0
   -9.0298   -0.6689   -2.8506 C   0  0  0  0  0  0  0  0  0  0  0  0
   -8.9959    0.5642   -3.5399 C   0  0  0  0  0  0  0  0  0  0  0  0
   -9.4012    1.8373   -2.9895 C   0  0  0  0  0  0  0  0  0  0  0  0
   -9.9503    2.8686   -3.7055 C   0  0  0  0  0  0  0  0  0  0  0  0
  -10.2655    3.9941   -2.9227 C   0  0  0  0  0  0  0  0  0  0  0  0
   -9.9498    3.8461   -1.6071 C   0  0  0  0  0  0  0  0  0  0  0  0
  -10.1468    4.8148   -0.4922 C   0  0  0  0  0  0  0  0  0  0  0  0
  -10.9742    4.2149    0.6441 C   0  0  0  0  0  0  0  0  0  0  0  0
   -9.2584    2.2845   -1.3125 S   0  0  0  0  0  0  0  0  0  0  0  0
   -8.4253    0.5103   -4.8099 C   0  0  0  0  0  0  0  0  0  0  0  0
   -8.0874   -0.6901   -5.4799 C   0  0  0  0  0  0  0  0  0  0  0  0
   -8.4208   -1.9342   -4.8983 C   0  0  0  0  0  0  0  0  0  0  0  0
   -8.2627   -3.2194   -5.5408 C   0  0  0  0  0  0  0  0  0  0  0  0
   -9.0334   -4.3289   -5.3120 C   0  0  0  0  0  0  0  0  0  0  0  0
   -8.6302   -5.4591   -6.0475 C   0  0  0  0  0  0  0  0  0  0  0  0
   -7.5461   -5.2328   -6.8380 C   0  0  0  0  0  0  0  0  0  0  0  0
   -6.8225   -6.1815   -7.7297 C   0  0  0  0  0  0  0  0  0  0  0  0
   -5.4047   -6.4539   -7.2241 C   0  0  0  0  0  0  0  0  0  0  0  0
   -7.0084   -3.5932   -6.6902 S   0  0  0  0  0  0  0  0  0  0  0  0
   -8.7983   -1.8734   -3.5580 C   0  0  0  0  0  0  0  0  0  0  0  0
   -8.7007   -3.2377   -2.4668 S   0  0  0  0  0  0  0  0  0  0  0  0
   -7.1977   -0.4537   -6.5553 C   0  0  0  0  0  0  0  0  0  0  0  0
   -6.7834    0.8449   -6.6530 C   0  0  0  0  0  0  0  0  0  0  0  0
   -7.7132    1.8993   -5.6011 S   0  0  0  0  0  0  0  0  0  0  0  0
   -5.5040    1.2619   -7.1280 C   0  0  0  0  0  0  0  0  0  0  0  0
   -4.8553    2.4198   -6.8069 C   0  0  0  0  0  0  0  0  0  0  0  0
   -3.4422    2.3118   -6.8342 C   0  0  0  0  0  0  0  0  0  0  0  0
   -2.4897    3.2468   -6.3770 C   0  0  0  0  0  0  0  0  0  0  0  0
   -2.7902    4.6233   -6.0420 C   0  0  0  0  0  0  0  0  0  0  0  0
   -1.9739    5.7014   -6.2499 C   0  0  0  0  0  0  0  0  0  0  0  0
   -2.5134    6.9145   -5.7806 C   0  0  0  0  0  0  0  0  0  0  0  0
   -3.7323    6.7740   -5.1932 C   0  0  0  0  0  0  0  0  0  0  0  0
   -4.6135    7.8231   -4.6083 C   0  0  0  0  0  0  0  0  0  0  0  0
   -5.8599    8.0467   -5.4668 C   0  0  0  0  0  0  0  0  0  0  0  0
   -4.2482    5.1201   -5.2290 S   0  0  0  0  0  0  0  0  0  0  0  0
   -1.2042    2.7503   -6.1691 C   0  0  0  0  0  0  0  0  0  0  0  0
   -0.8190    1.4292   -6.4875 C   0  0  0  0  0  0  0  0  0  0  0  0
   -1.7137    0.5677   -7.1557 C   0  0  0  0  0  0  0  0  0  0  0  0
   -1.2890   -0.7251   -7.6472 C   0  0  0  0  0  0  0  0  0  0  0  0
   -1.9596   -1.9157   -7.6815 C   0  0  0  0  0  0  0  0  0  0  0  0
   -1.2281   -2.9503   -8.2966 C   0  0  0  0  0  0  0  0  0  0  0  0
   -0.0026   -2.5617   -8.7434 C   0  0  0  0  0  0  0  0  0  0  0  0
    1.0184   -3.3636   -9.4740 C   0  0  0  0  0  0  0  0  0  0  0  0
    1.0890   -2.9610  -10.9485 C   0  0  0  0  0  0  0  0  0  0  0  0
    0.2775   -0.8877   -8.3998 S   0  0  0  0  0  0  0  0  0  0  0  0
   -3.0242    1.0206   -7.2485 C   0  0  0  0  0  0  0  0  0  0  0  0
   -4.3884    0.0329   -7.7026 S   0  0  0  0  0  0  0  0  0  0  0  0
    0.4108    1.0750   -5.8787 C   0  0  0  0  0  0  0  0  0  0  0  0
    0.9653    2.0758   -5.1409 C   0  0  0  0  0  0  0  0  0  0  0  0
    0.0469    3.5667   -5.2609 S   0  0  0  0  0  0  0  0  0  0  0  0
    2.0303    1.9543   -4.1940 C   0  0  0  0  0  0  0  0  0  0  0  0
    2.8388    2.9104   -3.6618 C   0  0  0  0  0  0  0  0  0  0  0  0
    3.6683    2.4383   -2.6106 C   0  0  0  0  0  0  0  0  0  0  0  0
    4.6478    3.1531   -1.8848 C   0  0  0  0  0  0  0  0  0  0  0  0
    5.1071    4.4554   -2.3029 C   0  0  0  0  0  0  0  0  0  0  0  0
    5.1881    4.9314   -3.5865 C   0  0  0  0  0  0  0  0  0  0  0  0
    5.7366    6.2171   -3.7430 C   0  0  0  0  0  0  0  0  0  0  0  0
    6.1270    6.8255   -2.5843 C   0  0  0  0  0  0  0  0  0  0  0  0
    6.8427    8.4195   -2.5072 S   0  0  0  0  0  0  0  0  0  0  0  0
    8.0125    8.2328   -1.1065 C   0  0  0  0  0  0  0  0  0  0  0  0
    7.3830    8.5515    0.2332 C   0  0  0  0  0  0  0  0  0  0  0  0
    5.7591    5.7411   -1.0881 Se  0  0  0  0  0  2  0  0  0  0  0  0
    5.1662    2.4996   -0.7689 C   0  0  0  0  0  0  0  0  0  0  0  0
    4.8304    1.1765   -0.3955 C   0  0  0  0  0  0  0  0  0  0  0  0
    3.9422    0.4199   -1.1905 C   0  0  0  0  0  0  0  0  0  0  0  0
    3.5720   -0.9412   -0.8686 C   0  0  0  0  0  0  0  0  0  0  0  0
    2.3383   -1.5167   -1.0257 C   0  0  0  0  0  0  0  0  0  0  0  0
    2.2215   -2.8638   -0.6406 C   0  0  0  0  0  0  0  0  0  0  0  0
    3.3717   -3.4330   -0.1727 C   0  0  0  0  0  0  0  0  0  0  0  0
    3.4907   -5.0705    0.4231 S   0  0  0  0  0  0  0  0  0  0  0  0
    5.3029   -5.3117    0.2951 C   0  0  0  0  0  0  0  0  0  0  0  0
    5.6763   -6.7255    0.6836 C   0  0  0  0  0  0  0  0  0  0  0  0
    4.7870   -2.1988   -0.1583 Se  0  0  0  0  0  2  0  0  0  0  0  0
    3.3877    1.0896   -2.2823 C   0  0  0  0  0  0  0  0  0  0  0  0
    2.2463    0.4015   -3.4084 S   0  0  0  0  0  0  0  0  0  0  0  0
    5.4524    0.8012    0.8226 C   0  0  0  0  0  0  0  0  0  0  0  0
    6.2458    1.7702    1.3567 C   0  0  0  0  0  0  0  0  0  0  0  0
    6.2902    3.2078    0.3572 S   0  0  0  0  0  0  0  0  0  0  0  0
    6.9575    1.7566    2.5893 C   0  0  0  0  0  0  0  0  0  0  0  0
    7.7525    2.7401    3.0981 C   0  0  0  0  0  0  0  0  0  0  0  0
    8.2863    2.4391    4.3761 C   0  0  0  0  0  0  0  0  0  0  0  0
    9.1477    3.2217    5.1685 C   0  0  0  0  0  0  0  0  0  0  0  0
    9.5269    4.5679    4.7928 C   0  0  0  0  0  0  0  0  0  0  0  0
   10.7446    5.1660    4.9534 C   0  0  0  0  0  0  0  0  0  0  0  0
   10.8135    6.5310    4.6079 C   0  0  0  0  0  0  0  0  0  0  0  0
    9.6398    7.0832    4.1897 C   0  0  0  0  0  0  0  0  0  0  0  0
    9.4602    8.7462    3.6661 S   0  0  0  0  0  0  0  0  0  0  0  0
    7.9825    9.2601    4.6285 C   0  0  0  0  0  0  0  0  0  0  0  0
    6.6849    8.9940    3.8938 C   0  0  0  0  0  0  0  0  0  0  0  0
    8.2628    5.7982    4.1263 Se  0  0  0  0  0  2  0  0  0  0  0  0
    9.5743    2.6457    6.3642 C   0  0  0  0  0  0  0  0  0  0  0  0
    9.1493    1.3742    6.8164 C   0  0  0  0  0  0  0  0  0  0  0  0
    8.2715    0.6020    6.0333 C   0  0  0  0  0  0  0  0  0  0  0  0
    7.7848   -0.6949    6.4583 C   0  0  0  0  0  0  0  0  0  0  0  0
    8.4809   -1.7234    7.0259 C   0  0  0  0  0  0  0  0  0  0  0  0
    7.7320   -2.8720    7.3530 C   0  0  0  0  0  0  0  0  0  0  0  0
    6.3987   -2.7965    7.0659 C   0  0  0  0  0  0  0  0  0  0  0  0
    5.2739   -4.1179    7.3085 S   0  0  0  0  0  0  0  0  0  0  0  0
    3.6650   -3.2912    7.0684 C   0  0  0  0  0  0  0  0  0  0  0  0
    3.2698   -2.4417    8.2585 C   0  0  0  0  0  0  0  0  0  0  0  0
    5.9662   -1.1473    6.2770 Se  0  0  0  0  0  2  0  0  0  0  0  0
    7.8731    1.1641    4.8255 C   0  0  0  0  0  0  0  0  0  0  0  0
    6.8380    0.3824    3.6634 S   0  0  0  0  0  0  0  0  0  0  0  0
    9.6613    1.0794    8.1144 C   0  0  0  0  0  0  0  0  0  0  0  0
   10.4409    2.0611    8.6090 C   0  0  0  0  0  0  0  0  0  0  0  0
   10.6106    3.4110    7.5405 S   0  0  0  0  0  0  0  0  0  0  0  0
    7.2450   -4.2003    3.7205 H   0  0  0  0  0  0  0  0  0  0  0  0
    5.6084   -6.1130    4.3620 H   0  0  0  0  0  0  0  0  0  0  0  0
    1.2268   -7.0185    5.9613 H   0  0  0  0  0  0  0  0  0  0  0  0
    1.7112   -9.5491    6.2017 H   0  0  0  0  0  0  0  0  0  0  0  0
    3.4681  -11.3263    5.4377 H   0  0  0  0  0  0  0  0  0  0  0  0
    4.9152  -10.6911    4.6384 H   0  0  0  0  0  0  0  0  0  0  0  0
    2.2931  -11.3945    3.2323 H   0  0  0  0  0  0  0  0  0  0  0  0
    3.7345  -10.7484    2.4433 H   0  0  0  0  0  0  0  0  0  0  0  0
    3.7786  -12.3511    3.1873 H   0  0  0  0  0  0  0  0  0  0  0  0
    4.1504   -0.4632    4.2097 H   0  0  0  0  0  0  0  0  0  0  0  0
    3.6711    1.8377    3.1316 H   0  0  0  0  0  0  0  0  0  0  0  0
    1.6337    1.7917    0.1022 H   0  0  0  0  0  0  0  0  0  0  0  0
    2.1551    2.9322    1.3480 H   0  0  0  0  0  0  0  0  0  0  0  0
   -0.2883    3.1392    0.9064 H   0  0  0  0  0  0  0  0  0  0  0  0
   -0.5142    1.4316    1.3033 H   0  0  0  0  0  0  0  0  0  0  0  0
   -0.0122    2.5710    2.5587 H   0  0  0  0  0  0  0  0  0  0  0  0
   -0.1873   -2.0836    3.1708 H   0  0  0  0  0  0  0  0  0  0  0  0
   -2.5301   -1.8878    3.6811 H   0  0  0  0  0  0  0  0  0  0  0  0
   -2.9453   -0.3336    2.0519 H   0  0  0  0  0  0  0  0  0  0  0  0
   -3.0104    2.1641    2.6285 H   0  0  0  0  0  0  0  0  0  0  0  0
   -5.8802    5.2720    2.1617 H   0  0  0  0  0  0  0  0  0  0  0  0
   -4.8298    4.0183    1.4612 H   0  0  0  0  0  0  0  0  0  0  0  0
   -7.8280    3.7181    2.0325 H   0  0  0  0  0  0  0  0  0  0  0  0
   -7.1060    3.9204    0.4262 H   0  0  0  0  0  0  0  0  0  0  0  0
   -6.7964    2.4549    1.3525 H   0  0  0  0  0  0  0  0  0  0  0  0
   -8.1560   -6.0824    1.6776 H   0  0  0  0  0  0  0  0  0  0  0  0
   -8.2636   -8.5808    1.1593 H   0  0  0  0  0  0  0  0  0  0  0  0
   -3.6522   -9.9845    1.3784 H   0  0  0  0  0  0  0  0  0  0  0  0
   -3.9502  -11.6179    0.7345 H   0  0  0  0  0  0  0  0  0  0  0  0
   -2.6748  -10.2319   -0.9218 H   0  0  0  0  0  0  0  0  0  0  0  0
   -3.9769   -9.0378   -0.9252 H   0  0  0  0  0  0  0  0  0  0  0  0
   -4.2713  -10.6651   -1.5525 H   0  0  0  0  0  0  0  0  0  0  0  0
   -7.8045   -4.6608   -0.0909 H   0  0  0  0  0  0  0  0  0  0  0  0
   -9.0799   -0.0833   -0.7263 H   0  0  0  0  0  0  0  0  0  0  0  0
  -10.1599    2.8062   -4.7582 H   0  0  0  0  0  0  0  0  0  0  0  0
  -10.7154    4.8850   -3.3240 H   0  0  0  0  0  0  0  0  0  0  0  0
  -10.6468    5.7008   -0.8898 H   0  0  0  0  0  0  0  0  0  0  0  0
   -9.1749    5.1266   -0.0982 H   0  0  0  0  0  0  0  0  0  0  0  0
  -11.1121    4.9455    1.4373 H   0  0  0  0  0  0  0  0  0  0  0  0
  -10.4714    3.3428    1.0564 H   0  0  0  0  0  0  0  0  0  0  0  0
  -11.9522    3.9088    0.2798 H   0  0  0  0  0  0  0  0  0  0  0  0
   -9.8886   -4.3257   -4.6602 H   0  0  0  0  0  0  0  0  0  0  0  0
   -9.1318   -6.4091   -5.9925 H   0  0  0  0  0  0  0  0  0  0  0  0
   -7.3856   -7.1161   -7.7764 H   0  0  0  0  0  0  0  0  0  0  0  0
   -6.7668   -5.7657   -8.7397 H   0  0  0  0  0  0  0  0  0  0  0  0
   -5.4348   -6.8769   -6.2223 H   0  0  0  0  0  0  0  0  0  0  0  0
   -4.8969   -7.1540   -7.8829 H   0  0  0  0  0  0  0  0  0  0  0  0
   -4.8335   -5.5287   -7.1908 H   0  0  0  0  0  0  0  0  0  0  0  0
   -6.7499   -1.2305   -7.1463 H   0  0  0  0  0  0  0  0  0  0  0  0
   -5.3850    3.2822   -6.4467 H   0  0  0  0  0  0  0  0  0  0  0  0
   -1.0283    5.6325   -6.7572 H   0  0  0  0  0  0  0  0  0  0  0  0
   -2.0094    7.8603   -5.8731 H   0  0  0  0  0  0  0  0  0  0  0  0
   -4.0458    8.7529   -4.5312 H   0  0  0  0  0  0  0  0  0  0  0  0
   -4.9218    7.5259   -3.6023 H   0  0  0  0  0  0  0  0  0  0  0  0
   -5.5773    8.3539   -6.4712 H   0  0  0  0  0  0  0  0  0  0  0  0
   -6.4385    7.1281   -5.5359 H   0  0  0  0  0  0  0  0  0  0  0  0
   -6.4859    8.8205   -5.0294 H   0  0  0  0  0  0  0  0  0  0  0  0
   -2.9322   -2.0613   -7.2487 H   0  0  0  0  0  0  0  0  0  0  0  0
   -1.6006   -3.9542   -8.4013 H   0  0  0  0  0  0  0  0  0  0  0  0
    0.7577   -4.4210   -9.3927 H   0  0  0  0  0  0  0  0  0  0  0  0
    1.9997   -3.2161   -9.0159 H   0  0  0  0  0  0  0  0  0  0  0  0
    1.3605   -1.9116  -11.0390 H   0  0  0  0  0  0  0  0  0  0  0  0
    0.1241   -3.1105  -11.4278 H   0  0  0  0  0  0  0  0  0  0  0  0
    1.8330   -3.5593  -11.4683 H   0  0  0  0  0  0  0  0  0  0  0  0
    0.8351    0.0878   -5.9186 H   0  0  0  0  0  0  0  0  0  0  0  0
    2.8028    3.9356   -3.9827 H   0  0  0  0  0  0  0  0  0  0  0  0
    4.9283    4.3265   -4.4385 H   0  0  0  0  0  0  0  0  0  0  0  0
    5.8754    6.6780   -4.7058 H   0  0  0  0  0  0  0  0  0  0  0  0
    8.3863    7.2082   -1.1423 H   0  0  0  0  0  0  0  0  0  0  0  0
    8.8248    8.9232   -1.3311 H   0  0  0  0  0  0  0  0  0  0  0  0
    8.1321    8.4605    1.0178 H   0  0  0  0  0  0  0  0  0  0  0  0
    6.9891    9.5653    0.2345 H   0  0  0  0  0  0  0  0  0  0  0  0
    6.5663    7.8595    0.4499 H   0  0  0  0  0  0  0  0  0  0  0  0
    1.4840   -0.9647   -1.3776 H   0  0  0  0  0  0  0  0  0  0  0  0
    1.2964   -3.4100   -0.7033 H   0  0  0  0  0  0  0  0  0  0  0  0
    5.7725   -4.5811    0.9607 H   0  0  0  0  0  0  0  0  0  0  0  0
    5.5797   -5.0935   -0.7388 H   0  0  0  0  0  0  0  0  0  0  0  0
    5.1857   -7.4411    0.0281 H   0  0  0  0  0  0  0  0  0  0  0  0
    5.3728   -6.9296    1.7073 H   0  0  0  0  0  0  0  0  0  0  0  0
    6.7531   -6.8567    0.6040 H   0  0  0  0  0  0  0  0  0  0  0  0
    5.2992   -0.1391    1.3263 H   0  0  0  0  0  0  0  0  0  0  0  0
    7.9641    3.6404    2.5452 H   0  0  0  0  0  0  0  0  0  0  0  0
   11.6072    4.6261    5.3053 H   0  0  0  0  0  0  0  0  0  0  0  0
   11.7192    7.1072    4.6854 H   0  0  0  0  0  0  0  0  0  0  0  0
    8.1237   10.3257    4.8052 H   0  0  0  0  0  0  0  0  0  0  0  0
    8.0281    8.7271    5.5780 H   0  0  0  0  0  0  0  0  0  0  0  0
    6.5860    7.9327    3.6566 H   0  0  0  0  0  0  0  0  0  0  0  0
    5.8426    9.2861    4.5175 H   0  0  0  0  0  0  0  0  0  0  0  0
    6.6485    9.5588    2.9660 H   0  0  0  0  0  0  0  0  0  0  0  0
    9.5468   -1.6770    7.1774 H   0  0  0  0  0  0  0  0  0  0  0  0
    8.1726   -3.7496    7.7938 H   0  0  0  0  0  0  0  0  0  0  0  0
    2.9581   -4.1039    6.9027 H   0  0  0  0  0  0  0  0  0  0  0  0
    3.7395   -2.6944    6.1535 H   0  0  0  0  0  0  0  0  0  0  0  0
    3.2204   -3.0478    9.1600 H   0  0  0  0  0  0  0  0  0  0  0  0
    2.2954   -1.9918    8.0808 H   0  0  0  0  0  0  0  0  0  0  0  0
    3.9950   -1.6425    8.4154 H   0  0  0  0  0  0  0  0  0  0  0  0
    9.4287    0.1776    8.6504 H   0  0  0  0  0  0  0  0  0  0  0  0
   10.9459    2.0907    9.5546 H   0  0  0  0  0  0  0  0  0  0  0  0
  1  2  2  0  0  0  0
  2  3  1  0  0  0  0
  3  4  2  0  0  0  0
  4  5  1  0  0  0  0
  5  6  2  0  0  0  0
  6  7  1  0  0  0  0
  7  8  2  0  0  0  0
  8  9  1  0  0  0  0
  9 10  1  0  0  0  0
  8 11  1  0  0  0  0
  4 12  1  0  0  0  0
 12 13  2  0  0  0  0
 13 14  1  0  0  0  0
 14 15  1  0  0  0  0
 15 16  2  0  0  0  0
 16 17  1  0  0  0  0
 17 18  2  0  0  0  0
 18 19  1  0  0  0  0
 19 20  1  0  0  0  0
 18 21  1  0  0  0  0
 14 22  2  0  0  0  0
 22 23  1  0  0  0  0
 13 24  1  0  0  0  0
 24 25  2  0  0  0  0
 25 26  1  0  0  0  0
 25 27  1  0  0  0  0
 27 28  2  0  0  0  0
 28 29  1  0  0  0  0
 29 30  2  0  0  0  0
 30 31  1  0  0  0  0
 31 32  2  0  0  0  0
 32 33  1  0  0  0  0
 33 34  2  0  0  0  0
 34 35  1  0  0  0  0
 35 36  1  0  0  0  0
 36 37  1  0  0  0  0
 34 38  1  0  0  0  0
 30 39  1  0  0  0  0
 39 40  2  0  0  0  0
 40 41  1  0  0  0  0
 41 42  1  0  0  0  0
 42 43  2  0  0  0  0
 43 44  1  0  0  0  0
 44 45  2  0  0  0  0
 45 46  1  0  0  0  0
 46 47  1  0  0  0  0
 47 48  1  0  0  0  0
 45 49  1  0  0  0  0
 41 50  2  0  0  0  0
 50 51  1  0  0  0  0
 40 52  1  0  0  0  0
 52 53  2  0  0  0  0
 53 54  1  0  0  0  0
 53 55  1  0  0  0  0
 55 56  2  0  0  0  0
 56 57  1  0  0  0  0
 57 58  2  0  0  0  0
 58 59  1  0  0  0  0
 59 60  2  0  0  0  0
 60 61  1  0  0  0  0
 61 62  2  0  0  0  0
 62 63  1  0  0  0  0
 63 64  1  0  0  0  0
 62 65  1  0  0  0  0
 58 66  1  0  0  0  0
 66 67  2  0  0  0  0
 67 68  1  0  0  0  0
 68 69  1  0  0  0  0
 69 70  2  0  0  0  0
 70 71  1  0  0  0  0
 71 72  2  0  0  0  0
 72 73  1  0  0  0  0
 73 74  1  0  0  0  0
 72 75  1  0  0  0  0
 68 76  2  0  0  0  0
 76 77  1  0  0  0  0
 67 78  1  0  0  0  0
 78 79  2  0  0  0  0
 79 80  1  0  0  0  0
 79 81  1  0  0  0  0
 81 82  2  0  0  0  0
 82 83  1  0  0  0  0
 83 84  2  0  0  0  0
 84 85  1  0  0  0  0
 85 86  2  0  0  0  0
 86 87  1  0  0  0  0
 87 88  2  0  0  0  0
 88 89  1  0  0  0  0
 89 90  1  0  0  0  0
 88 91  1  0  0  0  0
 84 92  1  0  0  0  0
 92 93  2  0  0  0  0
 93 94  1  0  0  0  0
 94 95  1  0  0  0  0
 95 96  2  0  0  0  0
 96 97  1  0  0  0  0
 97 98  2  0  0  0  0
 98 99  1  0  0  0  0
 99100  1  0  0  0  0
 98101  1  0  0  0  0
 94102  2  0  0  0  0
102103  1  0  0  0  0
 93104  1  0  0  0  0
104105  2  0  0  0  0
105106  1  0  0  0  0
105107  1  0  0  0  0
107108  2  0  0  0  0
108109  1  0  0  0  0
109110  2  0  0  0  0
110111  1  0  0  0  0
111112  2  0  0  0  0
112113  1  0  0  0  0
113114  2  0  0  0  0
114115  1  0  0  0  0
115116  1  0  0  0  0
116117  1  0  0  0  0
114118  1  0  0  0  0
110119  1  0  0  0  0
119120  2  0  0  0  0
120121  1  0  0  0  0
121122  1  0  0  0  0
122123  2  0  0  0  0
123124  1  0  0  0  0
124125  2  0  0  0  0
125126  1  0  0  0  0
126127  1  0  0  0  0
127128  1  0  0  0  0
125129  1  0  0  0  0
121130  2  0  0  0  0
130131  1  0  0  0  0
120132  1  0  0  0  0
132133  2  0  0  0  0
133134  1  0  0  0  0
133135  1  0  0  0  0
135136  2  0  0  0  0
136137  1  0  0  0  0
137138  2  0  0  0  0
138139  1  0  0  0  0
139140  2  0  0  0  0
140141  1  0  0  0  0
141142  2  0  0  0  0
142143  1  0  0  0  0
143144  1  0  0  0  0
144145  1  0  0  0  0
142146  1  0  0  0  0
138147  1  0  0  0  0
147148  2  0  0  0  0
148149  1  0  0  0  0
149150  1  0  0  0  0
150151  2  0  0  0  0
151152  1  0  0  0  0
152153  2  0  0  0  0
153154  1  0  0  0  0
154155  1  0  0  0  0
155156  1  0  0  0  0
153157  1  0  0  0  0
149158  2  0  0  0  0
158159  1  0  0  0  0
148160  1  0  0  0  0
160161  2  0  0  0  0
161162  1  0  0  0  0
 23  1  1  0  0  0  0
 51 27  1  0  0  0  0
 77 55  1  0  0  0  0
103 81  1  0  0  0  0
131107  1  0  0  0  0
159135  1  0  0  0  0
 22  3  1  0  0  0  0
 50 29  1  0  0  0  0
 76 57  1  0  0  0  0
102 83  1  0  0  0  0
130109  1  0  0  0  0
158137  1  0  0  0  0
 11  5  1  0  0  0  0
 26 12  1  0  0  0  0
 38 31  1  0  0  0  0
 54 39  1  0  0  0  0
 65 59  1  0  0  0  0
 80 66  1  0  0  0  0
 91 85  1  0  0  0  0
106 92  1  0  0  0  0
118111  1  0  0  0  0
134119  1  0  0  0  0
146139  1  0  0  0  0
162147  1  0  0  0  0
 21 15  1  0  0  0  0
 49 42  1  0  0  0  0
 75 69  1  0  0  0  0
101 95  1  0  0  0  0
129122  1  0  0  0  0
157150  1  0  0  0  0
  1163  1  0  0  0  0
  2164  1  0  0  0  0
  6165  1  0  0  0  0
  7166  1  0  0  0  0
  9167  1  0  0  0  0
  9168  1  0  0  0  0
 10169  1  0  0  0  0
 10170  1  0  0  0  0
 10171  1  0  0  0  0
 16172  1  0  0  0  0
 17173  1  0  0  0  0
 19174  1  0  0  0  0
 19175  1  0  0  0  0
 20176  1  0  0  0  0
 20177  1  0  0  0  0
 20178  1  0  0  0  0
 24179  1  0  0  0  0
 28180  1  0  0  0  0
 32181  1  0  0  0  0
 33182  1  0  0  0  0
 36183  1  0  0  0  0
 36184  1  0  0  0  0
 37185  1  0  0  0  0
 37186  1  0  0  0  0
 37187  1  0  0  0  0
 43188  1  0  0  0  0
 44189  1  0  0  0  0
 47190  1  0  0  0  0
 47191  1  0  0  0  0
 48192  1  0  0  0  0
 48193  1  0  0  0  0
 48194  1  0  0  0  0
 52195  1  0  0  0  0
 56196  1  0  0  0  0
 60197  1  0  0  0  0
 61198  1  0  0  0  0
 63199  1  0  0  0  0
 63200  1  0  0  0  0
 64201  1  0  0  0  0
 64202  1  0  0  0  0
 64203  1  0  0  0  0
 70204  1  0  0  0  0
 71205  1  0  0  0  0
 73206  1  0  0  0  0
 73207  1  0  0  0  0
 74208  1  0  0  0  0
 74209  1  0  0  0  0
 74210  1  0  0  0  0
 78211  1  0  0  0  0
 82212  1  0  0  0  0
 86213  1  0  0  0  0
 87214  1  0  0  0  0
 89215  1  0  0  0  0
 89216  1  0  0  0  0
 90217  1  0  0  0  0
 90218  1  0  0  0  0
 90219  1  0  0  0  0
 96220  1  0  0  0  0
 97221  1  0  0  0  0
 99222  1  0  0  0  0
 99223  1  0  0  0  0
100224  1  0  0  0  0
100225  1  0  0  0  0
100226  1  0  0  0  0
104227  1  0  0  0  0
108228  1  0  0  0  0
112229  1  0  0  0  0
113230  1  0  0  0  0
116231  1  0  0  0  0
116232  1  0  0  0  0
117233  1  0  0  0  0
117234  1  0  0  0  0
117235  1  0  0  0  0
123236  1  0  0  0  0
124237  1  0  0  0  0
127238  1  0  0  0  0
127239  1  0  0  0  0
128240  1  0  0  0  0
128241  1  0  0  0  0
128242  1  0  0  0  0
132243  1  0  0  0  0
136244  1  0  0  0  0
140245  1  0  0  0  0
141246  1  0  0  0  0
144247  1  0  0  0  0
144248  1  0  0  0  0
145249  1  0  0  0  0
145250  1  0  0  0  0
145251  1  0  0  0  0
151252  1  0  0  0  0
152253  1  0  0  0  0
155254  1  0  0  0  0
155255  1  0  0  0  0
156256  1  0  0  0  0
156257  1  0  0  0  0
156258  1  0  0  0  0
160259  1  0  0  0  0
161260  1  0  0  0  0
M  END
