
  xtb     03082203413D
 energy: -232.481254628764 gnorm: 0.000279874937 xtb: 6.4.1 (unknown)
156165  0     0  0            999 V2000
    7.9087    3.1852   -0.8961 C   0  0  0  0  0  0  0  0  0  0  0  0
    6.7738    2.3447   -1.3879 C   0  0  0  0  0  0  0  0  0  0  0  0
    5.7254    1.9838   -0.6543 C   0  0  0  0  0  0  0  0  0  0  0  0
    4.7765    1.1394   -1.1956 O   0  0  0  0  0  0  0  0  0  0  0  0
    3.5857    1.7348   -1.6824 C   0  0  0  0  0  0  0  0  0  0  0  0
    2.9605    2.7855   -0.7667 C   0  0  0  0  0  0  0  0  0  0  0  0
    2.5446    2.1961    0.6021 C   0  0  0  0  0  0  0  0  0  0  0  0
    3.3901    1.1564    1.0360 O   0  0  0  0  0  0  0  0  0  0  0  0
    4.6123    1.5332    1.6212 C   0  0  0  0  0  0  0  0  0  0  0  0
    5.5516    2.4175    0.7868 C   0  0  0  0  0  0  0  0  0  0  0  0
    1.1487    1.6437    0.5693 C   0  0  0  0  0  0  0  0  0  0  0  0
    0.6971    0.4948    1.1142 C   0  0  0  0  0  0  0  0  0  0  0  0
   -0.7165    0.3259    1.0221 C   0  0  0  0  0  0  0  0  0  0  0  0
   -1.5117   -0.7016    1.5728 C   0  0  0  0  0  0  0  0  0  0  0  0
   -0.9641   -1.7854    2.3621 C   0  0  0  0  0  0  0  0  0  0  0  0
   -1.4831   -3.0500    2.4853 C   0  0  0  0  0  0  0  0  0  0  0  0
   -0.8249   -3.9076    3.3837 C   0  0  0  0  0  0  0  0  0  0  0  0
    0.2372   -3.3506    4.0345 C   0  0  0  0  0  0  0  0  0  0  0  0
    1.2588   -4.2177    5.1675 S   0  0  0  0  0  0  0  0  0  0  0  0
    1.1834   -3.0942    6.6191 C   0  0  0  0  0  0  0  0  0  0  0  0
    2.2710   -2.0404    6.5868 C   0  0  0  0  0  0  0  0  0  0  0  0
    0.5404   -1.5983    3.4571 Se  0  0  0  0  0  2  0  0  0  0  0  0
   -2.8852   -0.5941    1.3403 C   0  0  0  0  0  0  0  0  0  0  0  0
   -3.4806    0.4551    0.6055 C   0  0  0  0  0  0  0  0  0  0  0  0
   -2.6876    1.4841    0.0661 C   0  0  0  0  0  0  0  0  0  0  0  0
   -3.2250    2.5990   -0.6868 C   0  0  0  0  0  0  0  0  0  0  0  0
   -2.6491    3.2056   -1.7677 C   0  0  0  0  0  0  0  0  0  0  0  0
   -3.3241    4.3236   -2.2920 C   0  0  0  0  0  0  0  0  0  0  0  0
   -4.4644    4.6762   -1.6315 C   0  0  0  0  0  0  0  0  0  0  0  0
   -5.4070    6.0966   -2.0348 S   0  0  0  0  0  0  0  0  0  0  0  0
   -6.9327    5.8334   -1.0661 C   0  0  0  0  0  0  0  0  0  0  0  0
   -7.8359    4.7927   -1.6961 C   0  0  0  0  0  0  0  0  0  0  0  0
   -4.8046    3.5083   -0.1967 Se  0  0  0  0  0  2  0  0  0  0  0  0
   -1.3180    1.3859    0.3088 C   0  0  0  0  0  0  0  0  0  0  0  0
   -0.1342    2.5825   -0.1497 S   0  0  0  0  0  0  0  0  0  0  0  0
   -4.8990    0.3170    0.5373 C   0  0  0  0  0  0  0  0  0  0  0  0
   -5.3812   -0.7456    1.2149 C   0  0  0  0  0  0  0  0  0  0  0  0
   -4.1081   -1.6780    1.9575 S   0  0  0  0  0  0  0  0  0  0  0  0
   -6.8007   -1.1804    1.3968 C   0  0  0  0  0  0  0  0  0  0  0  0
   -7.7199   -0.5242    0.4112 C   0  0  0  0  0  0  0  0  0  0  0  0
   -7.9388   -0.9343   -0.8336 C   0  0  0  0  0  0  0  0  0  0  0  0
   -8.8292   -0.2552   -1.6423 O   0  0  0  0  0  0  0  0  0  0  0  0
   -8.4299    1.0290   -2.0896 C   0  0  0  0  0  0  0  0  0  0  0  0
   -7.9591    0.9878   -3.5486 C   0  0  0  0  0  0  0  0  0  0  0  0
   -6.4996    0.5095   -3.7330 C   0  0  0  0  0  0  0  0  0  0  0  0
   -6.1286   -0.5166   -2.8376 O   0  0  0  0  0  0  0  0  0  0  0  0
   -6.8518   -1.7316   -2.9097 C   0  0  0  0  0  0  0  0  0  0  0  0
   -7.2878   -2.1246   -1.4921 C   0  0  0  0  0  0  0  0  0  0  0  0
   -5.4840    1.6461   -3.4958 C   0  0  0  0  0  0  0  0  0  0  0  0
   -4.2609    1.5098   -4.3468 C   0  0  0  0  0  0  0  0  0  0  0  0
   -3.1805    0.7653   -4.1168 C   0  0  0  0  0  0  0  0  0  0  0  0
   -2.1338    0.9337   -5.0033 O   0  0  0  0  0  0  0  0  0  0  0  0
   -1.5880   -0.2015   -5.6446 C   0  0  0  0  0  0  0  0  0  0  0  0
   -0.5428   -0.9763   -4.8262 C   0  0  0  0  0  0  0  0  0  0  0  0
   -0.9963   -2.3428   -4.2883 C   0  0  0  0  0  0  0  0  0  0  0  0
   -1.8068   -2.2956   -3.1347 O   0  0  0  0  0  0  0  0  0  0  0  0
   -3.0523   -1.6470   -3.2318 C   0  0  0  0  0  0  0  0  0  0  0  0
   -2.9891   -0.1337   -2.9317 C   0  0  0  0  0  0  0  0  0  0  0  0
    0.2351   -3.1908   -3.8986 C   0  0  0  0  0  0  0  0  0  0  0  0
    1.1957   -2.4056   -3.0582 C   0  0  0  0  0  0  0  0  0  0  0  0
    1.1339   -2.2224   -1.7424 C   0  0  0  0  0  0  0  0  0  0  0  0
    2.0043   -1.3630   -1.0982 O   0  0  0  0  0  0  0  0  0  0  0  0
    3.3708   -1.7180   -1.1011 C   0  0  0  0  0  0  0  0  0  0  0  0
    3.6200   -3.0842   -0.4595 C   0  0  0  0  0  0  0  0  0  0  0  0
    3.0758   -3.2185    0.9726 C   0  0  0  0  0  0  0  0  0  0  0  0
    1.6771   -3.0277    1.0986 O   0  0  0  0  0  0  0  0  0  0  0  0
    0.8314   -3.7557    0.2318 C   0  0  0  0  0  0  0  0  0  0  0  0
    0.1450   -2.8471   -0.8038 C   0  0  0  0  0  0  0  0  0  0  0  0
    3.7057   -2.1954    1.9332 C   0  0  0  0  0  0  0  0  0  0  0  0
    5.1947   -2.2657    1.9739 C   0  0  0  0  0  0  0  0  0  0  0  0
    5.9602   -2.7326    2.9576 C   0  0  0  0  0  0  0  0  0  0  0  0
    7.3261   -2.5756    2.7966 O   0  0  0  0  0  0  0  0  0  0  0  0
    8.1909   -3.6235    3.1884 C   0  0  0  0  0  0  0  0  0  0  0  0
    8.7742   -3.5149    4.6081 C   0  0  0  0  0  0  0  0  0  0  0  0
    7.9268   -4.1415    5.7218 C   0  0  0  0  0  0  0  0  0  0  0  0
    6.9379   -3.3208    6.3031 O   0  0  0  0  0  0  0  0  0  0  0  0
    6.1595   -2.5295    5.4326 C   0  0  0  0  0  0  0  0  0  0  0  0
    5.4853   -3.2871    4.2702 C   0  0  0  0  0  0  0  0  0  0  0  0
    7.5464    4.1154   -0.4597 H   0  0  0  0  0  0  0  0  0  0  0  0
    8.4741    2.6578   -0.1272 H   0  0  0  0  0  0  0  0  0  0  0  0
    8.5849    3.4263   -1.7111 H   0  0  0  0  0  0  0  0  0  0  0  0
    6.8245    1.9943   -2.4084 H   0  0  0  0  0  0  0  0  0  0  0  0
    3.7895    2.2033   -2.6582 H   0  0  0  0  0  0  0  0  0  0  0  0
    2.8922    0.9017   -1.8165 H   0  0  0  0  0  0  0  0  0  0  0  0
    3.6596    3.6121   -0.6336 H   0  0  0  0  0  0  0  0  0  0  0  0
    2.0759    3.1868   -1.2635 H   0  0  0  0  0  0  0  0  0  0  0  0
    2.5556    3.0161    1.3478 H   0  0  0  0  0  0  0  0  0  0  0  0
    4.4207    2.0501    2.5772 H   0  0  0  0  0  0  0  0  0  0  0  0
    5.1059    0.5812    1.8339 H   0  0  0  0  0  0  0  0  0  0  0  0
    5.2087    3.4571    0.8170 H   0  0  0  0  0  0  0  0  0  0  0  0
    6.5277    2.3955    1.2761 H   0  0  0  0  0  0  0  0  0  0  0  0
    1.3707   -0.2346    1.5262 H   0  0  0  0  0  0  0  0  0  0  0  0
   -2.3176   -3.3949    1.8994 H   0  0  0  0  0  0  0  0  0  0  0  0
   -1.1349   -4.9246    3.5556 H   0  0  0  0  0  0  0  0  0  0  0  0
    0.1882   -2.6507    6.6204 H   0  0  0  0  0  0  0  0  0  0  0  0
    1.2919   -3.7447    7.4862 H   0  0  0  0  0  0  0  0  0  0  0  0
    2.2033   -1.4462    5.6723 H   0  0  0  0  0  0  0  0  0  0  0  0
    2.1680   -1.3727    7.4401 H   0  0  0  0  0  0  0  0  0  0  0  0
    3.2502   -2.5114    6.6266 H   0  0  0  0  0  0  0  0  0  0  0  0
   -1.7562    2.8264   -2.2323 H   0  0  0  0  0  0  0  0  0  0  0  0
   -2.9696    4.8644   -3.1518 H   0  0  0  0  0  0  0  0  0  0  0  0
   -6.6300    5.5472   -0.0542 H   0  0  0  0  0  0  0  0  0  0  0  0
   -7.4139    6.8103   -1.0331 H   0  0  0  0  0  0  0  0  0  0  0  0
   -8.7352    4.6687   -1.0966 H   0  0  0  0  0  0  0  0  0  0  0  0
   -7.3239    3.8328   -1.7555 H   0  0  0  0  0  0  0  0  0  0  0  0
   -8.1216    5.0974   -2.7003 H   0  0  0  0  0  0  0  0  0  0  0  0
   -5.5397    0.9817   -0.0161 H   0  0  0  0  0  0  0  0  0  0  0  0
   -6.8546   -2.2688    1.3170 H   0  0  0  0  0  0  0  0  0  0  0  0
   -7.1171   -0.9176    2.4112 H   0  0  0  0  0  0  0  0  0  0  0  0
   -8.2260    0.3684    0.7536 H   0  0  0  0  0  0  0  0  0  0  0  0
   -7.6459    1.4345   -1.4413 H   0  0  0  0  0  0  0  0  0  0  0  0
   -9.3160    1.6694   -2.0196 H   0  0  0  0  0  0  0  0  0  0  0  0
   -8.0534    1.9816   -3.9864 H   0  0  0  0  0  0  0  0  0  0  0  0
   -8.6419    0.3284   -4.0887 H   0  0  0  0  0  0  0  0  0  0  0  0
   -6.3941    0.1530   -4.7728 H   0  0  0  0  0  0  0  0  0  0  0  0
   -7.7317   -1.6291   -3.5493 H   0  0  0  0  0  0  0  0  0  0  0  0
   -6.2044   -2.5112   -3.3346 H   0  0  0  0  0  0  0  0  0  0  0  0
   -7.9884   -2.9603   -1.5507 H   0  0  0  0  0  0  0  0  0  0  0  0
   -6.4149   -2.4258   -0.9172 H   0  0  0  0  0  0  0  0  0  0  0  0
   -5.2210    1.6303   -2.4366 H   0  0  0  0  0  0  0  0  0  0  0  0
   -5.9524    2.6043   -3.7207 H   0  0  0  0  0  0  0  0  0  0  0  0
   -4.2540    2.1052   -5.2497 H   0  0  0  0  0  0  0  0  0  0  0  0
   -1.1060    0.2202   -6.5323 H   0  0  0  0  0  0  0  0  0  0  0  0
   -2.3896   -0.8697   -5.9873 H   0  0  0  0  0  0  0  0  0  0  0  0
    0.3206   -1.1593   -5.4669 H   0  0  0  0  0  0  0  0  0  0  0  0
   -0.2118   -0.3557   -3.9932 H   0  0  0  0  0  0  0  0  0  0  0  0
   -1.5492   -2.8677   -5.0914 H   0  0  0  0  0  0  0  0  0  0  0  0
   -3.6686   -2.1247   -2.4652 H   0  0  0  0  0  0  0  0  0  0  0  0
   -3.5204   -1.8372   -4.2070 H   0  0  0  0  0  0  0  0  0  0  0  0
   -3.7692    0.0960   -2.2112 H   0  0  0  0  0  0  0  0  0  0  0  0
   -2.0204    0.0666   -2.4678 H   0  0  0  0  0  0  0  0  0  0  0  0
   -0.1248   -4.0716   -3.3669 H   0  0  0  0  0  0  0  0  0  0  0  0
    0.7319   -3.5176   -4.8135 H   0  0  0  0  0  0  0  0  0  0  0  0
    1.9692   -1.8820   -3.6054 H   0  0  0  0  0  0  0  0  0  0  0  0
    3.8688   -0.9222   -0.5478 H   0  0  0  0  0  0  0  0  0  0  0  0
    3.7717   -1.7326   -2.1254 H   0  0  0  0  0  0  0  0  0  0  0  0
    4.6930   -3.2730   -0.4314 H   0  0  0  0  0  0  0  0  0  0  0  0
    3.1689   -3.8516   -1.0950 H   0  0  0  0  0  0  0  0  0  0  0  0
    3.3248   -4.2392    1.3215 H   0  0  0  0  0  0  0  0  0  0  0  0
    1.3776   -4.5642   -0.2660 H   0  0  0  0  0  0  0  0  0  0  0  0
    0.0564   -4.2142    0.8568 H   0  0  0  0  0  0  0  0  0  0  0  0
   -0.6066   -3.4105   -1.3498 H   0  0  0  0  0  0  0  0  0  0  0  0
   -0.3530   -2.0440   -0.2606 H   0  0  0  0  0  0  0  0  0  0  0  0
    3.3980   -1.2029    1.6005 H   0  0  0  0  0  0  0  0  0  0  0  0
    3.2693   -2.3710    2.9176 H   0  0  0  0  0  0  0  0  0  0  0  0
    5.7092   -1.8645    1.1111 H   0  0  0  0  0  0  0  0  0  0  0  0
    7.7080   -4.5992    3.0533 H   0  0  0  0  0  0  0  0  0  0  0  0
    9.0216   -3.5573    2.4770 H   0  0  0  0  0  0  0  0  0  0  0  0
    9.7301   -4.0412    4.6003 H   0  0  0  0  0  0  0  0  0  0  0  0
    8.9731   -2.4672    4.8363 H   0  0  0  0  0  0  0  0  0  0  0  0
    8.5730   -4.4004    6.5658 H   0  0  0  0  0  0  0  0  0  0  0  0
    7.4810   -5.0786    5.3495 H   0  0  0  0  0  0  0  0  0  0  0  0
    6.7673   -1.7113    5.0201 H   0  0  0  0  0  0  0  0  0  0  0  0
    5.4094   -2.0822    6.0882 H   0  0  0  0  0  0  0  0  0  0  0  0
    5.7217   -4.3499    4.3477 H   0  0  0  0  0  0  0  0  0  0  0  0
    4.4033   -3.2029    4.3326 H   0  0  0  0  0  0  0  0  0  0  0  0
  1  2  1  0  0  0  0
  2  3  2  0  0  0  0
  3  4  1  0  0  0  0
  4  5  1  0  0  0  0
  5  6  1  0  0  0  0
  6  7  1  0  0  0  0
  7  8  1  0  0  0  0
  8  9  1  0  0  0  0
  9 10  1  0  0  0  0
  7 11  1  0  0  0  0
 11 12  2  0  0  0  0
 12 13  1  0  0  0  0
 13 14  2  0  0  0  0
 14 15  1  0  0  0  0
 15 16  2  0  0  0  0
 16 17  1  0  0  0  0
 17 18  2  0  0  0  0
 18 19  1  0  0  0  0
 19 20  1  0  0  0  0
 20 21  1  0  0  0  0
 18 22  1  0  0  0  0
 14 23  1  0  0  0  0
 23 24  2  0  0  0  0
 24 25  1  0  0  0  0
 25 26  1  0  0  0  0
 26 27  2  0  0  0  0
 27 28  1  0  0  0  0
 28 29  2  0  0  0  0
 29 30  1  0  0  0  0
 30 31  1  0  0  0  0
 31 32  1  0  0  0  0
 29 33  1  0  0  0  0
 25 34  2  0  0  0  0
 34 35  1  0  0  0  0
 24 36  1  0  0  0  0
 36 37  2  0  0  0  0
 37 38  1  0  0  0  0
 37 39  1  0  0  0  0
 39 40  1  0  0  0  0
 40 41  2  0  0  0  0
 41 42  1  0  0  0  0
 42 43  1  0  0  0  0
 43 44  1  0  0  0  0
 44 45  1  0  0  0  0
 45 46  1  0  0  0  0
 46 47  1  0  0  0  0
 47 48  1  0  0  0  0
 45 49  1  0  0  0  0
 49 50  1  0  0  0  0
 50 51  2  0  0  0  0
 51 52  1  0  0  0  0
 52 53  1  0  0  0  0
 53 54  1  0  0  0  0
 54 55  1  0  0  0  0
 55 56  1  0  0  0  0
 56 57  1  0  0  0  0
 57 58  1  0  0  0  0
 55 59  1  0  0  0  0
 59 60  1  0  0  0  0
 60 61  2  0  0  0  0
 61 62  1  0  0  0  0
 62 63  1  0  0  0  0
 63 64  1  0  0  0  0
 64 65  1  0  0  0  0
 65 66  1  0  0  0  0
 66 67  1  0  0  0  0
 67 68  1  0  0  0  0
 65 69  1  0  0  0  0
 69 70  1  0  0  0  0
 70 71  2  0  0  0  0
 71 72  1  0  0  0  0
 72 73  1  0  0  0  0
 73 74  1  0  0  0  0
 74 75  1  0  0  0  0
 75 76  1  0  0  0  0
 76 77  1  0  0  0  0
 77 78  1  0  0  0  0
 10  3  1  0  0  0  0
 35 11  1  0  0  0  0
 48 41  1  0  0  0  0
 58 51  1  0  0  0  0
 68 61  1  0  0  0  0
 78 71  1  0  0  0  0
 34 13  1  0  0  0  0
 22 15  1  0  0  0  0
 38 23  1  0  0  0  0
 33 26  1  0  0  0  0
  1 79  1  0  0  0  0
  1 80  1  0  0  0  0
  1 81  1  0  0  0  0
  2 82  1  0  0  0  0
  5 83  1  0  0  0  0
  5 84  1  0  0  0  0
  6 85  1  0  0  0  0
  6 86  1  0  0  0  0
  7 87  1  0  0  0  0
  9 88  1  0  0  0  0
  9 89  1  0  0  0  0
 10 90  1  0  0  0  0
 10 91  1  0  0  0  0
 12 92  1  0  0  0  0
 16 93  1  0  0  0  0
 17 94  1  0  0  0  0
 20 95  1  0  0  0  0
 20 96  1  0  0  0  0
 21 97  1  0  0  0  0
 21 98  1  0  0  0  0
 21 99  1  0  0  0  0
 27100  1  0  0  0  0
 28101  1  0  0  0  0
 31102  1  0  0  0  0
 31103  1  0  0  0  0
 32104  1  0  0  0  0
 32105  1  0  0  0  0
 32106  1  0  0  0  0
 36107  1  0  0  0  0
 39108  1  0  0  0  0
 39109  1  0  0  0  0
 40110  1  0  0  0  0
 43111  1  0  0  0  0
 43112  1  0  0  0  0
 44113  1  0  0  0  0
 44114  1  0  0  0  0
 45115  1  0  0  0  0
 47116  1  0  0  0  0
 47117  1  0  0  0  0
 48118  1  0  0  0  0
 48119  1  0  0  0  0
 49120  1  0  0  0  0
 49121  1  0  0  0  0
 50122  1  0  0  0  0
 53123  1  0  0  0  0
 53124  1  0  0  0  0
 54125  1  0  0  0  0
 54126  1  0  0  0  0
 55127  1  0  0  0  0
 57128  1  0  0  0  0
 57129  1  0  0  0  0
 58130  1  0  0  0  0
 58131  1  0  0  0  0
 59132  1  0  0  0  0
 59133  1  0  0  0  0
 60134  1  0  0  0  0
 63135  1  0  0  0  0
 63136  1  0  0  0  0
 64137  1  0  0  0  0
 64138  1  0  0  0  0
 65139  1  0  0  0  0
 67140  1  0  0  0  0
 67141  1  0  0  0  0
 68142  1  0  0  0  0
 68143  1  0  0  0  0
 69144  1  0  0  0  0
 69145  1  0  0  0  0
 70146  1  0  0  0  0
 73147  1  0  0  0  0
 73148  1  0  0  0  0
 74149  1  0  0  0  0
 74150  1  0  0  0  0
 75151  1  0  0  0  0
 75152  1  0  0  0  0
 77153  1  0  0  0  0
 77154  1  0  0  0  0
 78155  1  0  0  0  0
 78156  1  0  0  0  0
M  END
