176

C          6.63380       -2.38840        7.27970
C          7.38850       -2.01540        6.18250
C          8.44350       -2.74650        5.44670
O          8.88010       -3.84630        5.63850
O          8.87370       -1.94880        4.44040
C          8.18420       -0.70960        4.42190
C          7.22590       -0.77720        5.56760
C          6.30540        0.13200        6.04890
C          5.53950       -0.23740        7.14240
C          5.68360       -1.48710        7.74830
C          4.80410       -1.86350        8.87190
C          5.33700       -2.02890       10.14330
C          6.72910       -1.85220       10.61600
O          7.70580       -1.52870       10.00220
O          6.74670       -2.10920       11.94720
C          5.45660       -2.44100       12.43510
C          4.55540       -2.36380       11.24500
C          3.19290       -2.54000       11.11180
C          2.64350       -2.37610        9.85270
C          3.41570       -2.05130        8.73100
C          2.76780       -1.90300        7.44080
C          3.29880       -2.06610        6.20130
C          2.40630       -1.77000        5.14240
C          2.69630       -1.73730        3.76760
C          4.00320       -2.01500        3.20830
C          4.59060       -1.34090        2.17300
C          5.79740       -1.87910        1.68970
C          6.21300       -3.02810        2.30330
S          7.67560       -3.87210        1.85620
C          7.28150       -5.61140        2.27110
C          7.53370       -5.95180        3.72440
Se         5.05710       -3.49570        3.71380
C          1.63010       -1.42170        2.93220
C          0.32080       -1.13310        3.38640
C          0.06210       -1.06360        4.77450
C         -1.22530       -0.65620        5.28310
C         -2.07860        0.26780        4.74220
C         -3.29840        0.45820        5.41700
C         -3.47020       -0.31360        6.53130
S         -4.86740       -0.19670        7.57540
C         -4.69350       -1.69800        8.60120
C         -5.04440       -2.95890        7.83800
Se        -1.96180       -1.39830        6.85270
C          1.12440       -1.40460        5.61030
S          1.08440       -1.40740        7.35290
C         -0.59060       -1.01160        2.30400
C         -0.00870       -1.17050        1.08180
S          1.71580       -1.45410        1.19810
C         -0.56910       -1.16930       -0.22750
C          0.15320       -1.38940       -1.36210
C         -0.60750       -1.38000       -2.55380
C         -0.12990       -1.51250       -3.87480
C          1.27270       -1.71750       -4.16610
C          1.98410       -1.17180       -5.20190
C          3.36560       -1.43980       -5.21630
C          3.81380       -2.23100       -4.19560
S          5.49300       -2.64990       -3.93260
C          5.56290       -2.79340       -2.10500
C          5.24700       -4.18920       -1.61020
Se         2.39450       -2.80180       -3.11230
C         -1.08460       -1.35570       -4.87780
C         -2.45040       -1.09130       -4.61420
C         -2.92920       -0.98090       -3.29220
C         -4.32130       -0.74180       -2.96390
C         -5.01140       -1.30970       -1.92790
C         -6.36260       -0.93390       -1.79640
C         -6.80090       -0.03010       -2.71710
S         -8.41890        0.63300       -2.77180
C         -8.66580        0.75260       -4.58010
C         -8.71750       -0.61100       -5.23470
Se        -5.41390        0.49030       -3.87860
C         -1.97410       -1.12230       -2.28970
S         -2.26400       -0.92150       -0.57490
C         -3.17910       -0.90930       -5.81770
C         -2.42230       -1.01430       -6.93950
S         -0.77210       -1.43880       -6.59160
C         -2.82310       -0.55580       -8.26390
C         -2.85230       -1.35510       -9.39630
C         -2.51360       -2.78490       -9.56490
O         -2.13310       -3.57580       -8.75050
O         -2.71990       -3.10250      -10.86770
C         -3.18590       -1.98870      -11.61240
C         -3.27530       -0.86530      -10.62870
C         -3.69150        0.44300      -10.76780
C         -3.65130        1.26110       -9.64760
C         -3.21350        0.79040       -8.41240
C         -3.12190        1.67230       -7.24750
C         -4.10910        2.33800       -6.60360
C         -3.69130        2.94200       -5.37910
C         -4.49030        3.59680       -4.41890
C         -5.87490        3.91400       -4.67030
C         -6.45260        4.26940       -5.86230
C         -7.84520        4.45630       -5.84430
C         -8.43700        4.24230       -4.62820
S        -10.15640        4.35210       -4.34270
C        -10.19500        4.10060       -2.52990
C        -11.62160        4.13950       -2.02440
Se        -7.17230        3.79780       -3.30970
C         -3.87310        3.86530       -3.19680
C         -2.52740        3.55300       -2.90630
C         -1.71130        2.95260       -3.88490
C         -0.34770        2.53530       -3.63540
C          0.67270        2.47130       -4.54630
C          1.87220        1.87780       -4.10630
C          1.84390        1.41710       -2.82360
S          3.09060        0.59240       -1.91570
C          4.61890        1.06430       -2.80070
C          4.92520        2.54240       -2.67050
Se         0.20550        1.77290       -1.99480
C         -2.32860        2.68520       -5.10720
S         -1.57960        1.84440       -6.43480
C         -2.17800        3.93880       -1.57790
C         -3.20110        4.49750       -0.90180
S         -4.65480        4.61010       -1.82950
H          6.77000       -3.35430        7.73930
H          8.91390        0.10070        4.52740
H          7.67910       -0.60550        3.45420
H          6.18010        1.09990        5.58870
H          4.80640        0.45070        7.53690
H          5.18350       -1.72750       13.22060
H          5.49210       -3.44480       12.87390
H          2.57280       -2.79380       11.95710
H          1.57960       -2.50760        9.71830
H          4.30270       -2.40910        6.03020
H          4.16150       -0.44730        1.75220
H          6.34450       -1.44410        0.87090
H          7.93240       -6.18960        1.61520
H          6.24090       -5.77940        1.98590
H          8.53750       -5.66220        4.02470
H          6.82920       -5.43180        4.37710
H          7.41220       -7.02250        3.87580
H         -1.81710        0.84730        3.87300
H         -4.04540        1.15850        5.08520
H         -5.37070       -1.53970        9.43980
H         -3.66250       -1.71870        8.96880
H         -4.95480       -3.82350        8.49220
H         -4.37050       -3.09520        6.99200
H         -6.06400       -2.90460        7.46390
H         -1.64900       -0.86340        2.41890
H          1.22070       -1.51760       -1.31630
H          1.53400       -0.50180       -5.91440
H          4.03240       -1.02650       -5.95430
H          6.58370       -2.51310       -1.84520
H          4.86340       -2.05960       -1.69860
H          4.22890       -4.47380       -1.88280
H          5.33400       -4.21400       -0.52580
H          5.93760       -4.91230       -2.03730
H         -4.57160       -2.05740       -1.28970
H         -7.01160       -1.34520       -1.04260
H         -7.84600        1.36060       -4.97890
H         -9.60390        1.29280       -4.70310
H         -8.89530       -0.50110       -6.30250
H         -7.77380       -1.13880       -5.09310
H         -9.51700       -1.20960       -4.80430
H         -4.23300       -0.68860       -5.86190
H         -2.47630       -1.78430      -12.42220
H         -4.15580       -2.24220      -12.05490
H         -4.03010        0.82530      -11.71800
H         -3.95100        2.29530       -9.72970
H         -5.13230        2.32100       -6.93480
H         -5.86870        4.44690       -6.75000
H         -8.40920        4.74490       -6.71450
H         -9.59050        4.89670       -2.08590
H         -9.72800        3.13150       -2.32830
H        -12.08140        5.09880       -2.25080
H        -12.21150        3.35430       -2.49120
H        -11.63240        3.99050       -0.94730
H          0.58880        2.88460       -5.53730
H          2.72760        1.78430       -4.75240
H          5.39260        0.46020       -2.32730
H          4.51460        0.74790       -3.83750
H          4.12990        3.14340       -3.10680
H          5.85600        2.77030       -3.18610
H          5.02940        2.81690       -1.62310
H         -1.19260        3.82300       -1.15730
H         -3.20450        4.87220        0.10290
