206

C          7.24920        1.83500        0.54850
C          7.15780        0.49160        0.59780
C          6.31810        0.02430        1.65270
C          5.97560       -1.30290        1.97020
C          6.50500       -2.45110        1.26350
C          5.83480       -3.59560        0.93560
C          6.59330       -4.60310        0.30740
C          7.91500       -4.31190        0.13560
S          9.08030       -5.43970       -0.52220
C         10.44200       -4.32080       -1.00360
C         10.09930       -3.49380       -2.22590
Se         8.32990       -2.60200        0.80940
C          5.08870       -1.47010        3.03110
C          4.54240       -0.39650        3.77000
C          4.86130        0.93310        3.43330
C          4.23290        2.05340        4.10150
C          2.92560        2.14300        4.49280
C          2.53320        3.35120        5.10590
C          3.53280        4.26900        5.23670
S          3.49930        5.88050        5.92280
C          1.80090        6.01360        6.58990
C          0.78780        6.40170        5.52950
Se         5.16140        3.64370        4.54160
C          5.76530        1.09700        2.38720
S          6.31220        2.62970        1.76510
C          3.70320       -0.85030        4.82180
C          3.58330       -2.20260        4.88820
S          4.53710       -3.00140        3.64830
C          2.70750       -3.01990        5.67670
S          3.20050       -4.63700        6.09500
C          1.57740       -5.04300        6.56850
C          0.74130       -3.96530        6.47300
C          1.38400       -2.80230        5.98100
C          0.64200       -1.52000        5.76190
C          0.84410       -0.56430        6.94290
C         -0.84170       -1.83000        5.53790
C         -1.41190       -2.69260        6.65920
C         -0.73900       -4.06240        6.68340
C          1.20620       -6.41890        6.88190
C          0.80120       -7.28930        5.94740
C          0.70250       -7.04260        4.53580
C          0.22230       -7.91470        3.60040
C          0.24900       -7.41880        2.27190
C         -0.20790       -8.03150        1.08270
C         -0.64990       -9.40560        1.06140
C         -0.13400      -10.45070        1.77960
C         -0.74270      -11.70370        1.57960
C         -1.78330      -11.70620        0.69480
S         -2.75520      -13.11920        0.35210
C         -3.58840      -12.62320       -1.19650
C         -2.64420      -12.61990       -2.38120
Se        -2.08510       -9.98510       -0.01490
C         -0.21020       -7.22600       -0.05380
C          0.33080       -5.92130       -0.09370
C          0.87420       -5.34550        1.06970
C          1.45060       -4.01750        1.05100
C          2.27570       -3.49840        0.09340
C          2.58680       -2.12910        0.22110
C          2.00000       -1.50580        1.27950
S          2.16630        0.19680        1.65310
C          0.39440        0.64280        1.81370
C         -0.33370        0.54500        0.48970
Se         1.02260       -2.71930        2.34600
C          0.76220       -6.10150        2.23000
S          1.22720       -5.54180        3.80230
C          0.14500       -5.31050       -1.35600
C         -0.50480       -6.08420       -2.27230
S         -0.88830       -7.66160       -1.59990
C         -1.01360       -5.57590       -3.51510
S         -1.42690       -3.87320       -3.40980
C         -2.05820       -3.84980       -5.03130
C         -1.93600       -5.09840       -5.59750
C         -1.33350       -6.07220       -4.75800
C         -1.03780       -7.39060       -5.41760
C         -0.17240       -8.35700       -4.62140
C         -0.34060       -7.04770       -6.74900
C         -1.21730       -6.21980       -7.69850
C         -2.36490       -5.50650       -6.96580
C         -2.61410       -2.64880       -5.56300
C         -2.50940       -1.47630       -4.89750
C         -3.04800       -0.18860       -5.16330
S         -2.60590        1.03260       -3.99770
C         -3.63650        2.21090       -4.75120
C         -4.26440        1.67130       -5.86230
C         -3.92720        0.32700       -6.10440
C         -4.45920       -0.43540       -7.28270
C         -3.36190       -0.58330       -8.34450
C         -5.70080        0.25960       -7.85270
C         -5.47180        1.75390       -8.04580
C         -5.24900        2.43060       -6.69680
C         -3.77390        3.51100       -4.19380
C         -2.99090        3.97550       -3.19590
C         -3.11930        5.23890       -2.55870
C         -2.25610        5.76940       -1.64140
C         -2.64860        7.03330       -1.13930
C         -1.99190        7.82060       -0.17260
C         -0.66950        7.49260        0.32100
C         -0.18860        7.66180        1.59190
C          1.18200        7.39030        1.77180
C          1.84610        7.00540        0.64620
S          3.54840        6.59900        0.51810
C          3.62000        5.19300        1.68720
C          2.82130        4.00970        1.18460
Se         0.70760        6.92240       -0.84200
C         -2.66150        8.97120        0.23780
C         -3.91080        9.37490       -0.28670
C         -4.54970        8.60530       -1.27750
C         -5.84130        8.95190       -1.83590
C         -6.23270        8.84460       -3.13950
C         -7.57910        9.16050       -3.41140
C         -8.32540        9.50490       -2.32240
S        -10.04430        9.82730       -2.38920
C        -10.32320       10.68860       -0.80350
C         -9.76470       12.09720       -0.80880
Se        -7.29520        9.45800       -0.74540
C         -3.88710        7.45090       -1.68260
S         -4.48380        6.30110       -2.85080
C         -4.33130       10.62200        0.26320
C         -3.45840       11.12690        1.15780
S         -2.06620       10.13020        1.39800
H          7.80890        2.43550       -0.14130
H          7.65590       -0.15520       -0.10490
H          4.77550       -3.70420        1.09510
H          6.16620       -5.53600       -0.01810
H         10.66470       -3.69050       -0.13690
H         11.28830       -4.97990       -1.19350
H         10.94170       -2.85840       -2.49100
H          9.23610       -2.85820       -2.02750
H          9.86670       -4.14060       -3.06870
H          2.21410        1.36180        4.28780
H          1.51920        3.51500        5.42710
H          1.56230        5.06460        7.06750
H          1.87400        6.78590        7.35540
H          1.02870        7.38090        5.12270
H          0.77720        5.68160        4.71390
H         -0.20760        6.44620        5.96770
H          3.25750       -0.18230        5.53170
H          1.04530       -1.03990        4.85740
H          1.89910       -0.35280        7.09400
H          0.32240        0.37330        6.76140
H          0.46510       -1.00110        7.86270
H         -0.94830       -2.36480        4.58750
H         -1.40160       -0.89520        5.46500
H         -1.26890       -2.19240        7.61770
H         -2.48640       -2.82140        6.51520
H         -0.95360       -4.57980        7.62180
H         -1.14790       -4.68030        5.87610
H          1.25600       -6.72820        7.91800
H          0.51310       -8.28890        6.24670
H         -0.18100       -8.87540        3.86560
H          0.73110      -10.33680        2.41100
H         -0.41050      -12.59950        2.07540
H         -4.38730      -13.35250       -1.32620
H         -4.02680      -11.63510       -1.02400
H         -3.18660      -12.34770       -3.28420
H         -1.84200      -11.89710       -2.23030
H         -2.20320      -13.60440       -2.51810
H          2.66910       -4.10130       -0.70860
H          3.21690       -1.60350       -0.47610
H          0.39870        1.66340        2.19470
H         -0.03780       -0.02850        2.56190
H         -0.31800       -0.48000        0.12190
H          0.13940        1.18550       -0.25110
H         -1.37020        0.85320        0.61010
H          0.44770       -4.30040       -1.56680
H         -1.99190       -7.88320       -5.64460
H         -0.72930       -8.78690       -3.79480
H          0.71020       -7.85620       -4.23040
H          0.15340       -9.17250       -5.26410
H          0.57040       -6.49460       -6.50950
H         -0.04020       -7.97270       -7.24290
H         -0.59700       -5.47510       -8.19940
H         -1.64510       -6.86120       -8.47090
H         -3.20860       -6.19730       -6.86570
H         -2.70490       -4.65140       -7.54870
H         -3.12500       -2.73380       -6.50800
H         -1.93740       -1.50550       -3.97530
H         -4.75340       -1.43690       -6.94820
H         -3.71990       -1.18660       -9.17640
H         -3.06310        0.38930       -8.72630
H         -2.48020       -1.05760       -7.92070
H         -6.53770        0.11670       -7.16470
H         -5.96590       -0.20560       -8.80410
H         -4.60370        1.91710       -8.68590
H         -6.33560        2.20210       -8.54010
H         -4.90490        3.45650       -6.84350
H         -6.19880        2.47840       -6.15250
H         -4.55640        4.14060       -4.59580
H         -2.18430        3.35380       -2.82680
H         -1.37700        5.24070       -1.31340
H         -0.81990        7.96230        2.41120
H          1.67730        7.49420        2.72210
H          3.26510        5.54540        2.65500
H          4.68050        4.95390        1.75760
H          2.93740        3.16570        1.86210
H          3.17000        3.70920        0.19920
H          1.76320        4.26270        1.11620
H         -5.54270        8.58280       -3.92380
H         -7.99480        9.13650       -4.40380
H         -9.87100       10.07580       -0.01710
H        -11.40540       10.69060       -0.67630
H        -10.21550       12.68090       -1.60800
H         -9.97380       12.58130        0.14280
H         -8.68490       12.08060       -0.95780
H         -5.23870       11.12670       -0.02210
H         -3.53460       12.04330        1.70950
