
  xtb     03082202323D
 energy: -333.271762080353 gnorm: 0.000580536638 xtb: 6.4.1 (unknown)
200223  0     0  0            999 V2000
    5.0511   -2.9510  -12.5065 C   0  0  0  0  0  0  0  0  0  0  0  0
    4.2801   -3.8404  -11.8503 C   0  0  0  0  0  0  0  0  0  0  0  0
    4.0761   -3.4983  -10.4809 C   0  0  0  0  0  0  0  0  0  0  0  0
    3.3297   -4.1918   -9.5089 C   0  0  0  0  0  0  0  0  0  0  0  0
    2.7183   -5.4762   -9.7725 C   0  0  0  0  0  0  0  0  0  0  0  0
    3.2313   -6.5198  -10.4915 C   0  0  0  0  0  0  0  0  0  0  0  0
    2.4211   -7.6689  -10.5846 C   0  0  0  0  0  0  0  0  0  0  0  0
    1.2133   -7.5771   -9.9531 C   0  0  0  0  0  0  0  0  0  0  0  0
    0.0068   -8.8449   -9.9752 S   0  0  0  0  0  0  0  0  0  0  0  0
   -1.2025   -8.2441   -8.7436 C   0  0  0  0  0  0  0  0  0  0  0  0
   -0.7289   -8.4320   -7.3164 C   0  0  0  0  0  0  0  0  0  0  0  0
    1.0021   -5.9013   -9.1176 Se  0  0  0  0  0  2  0  0  0  0  0  0
    3.2108   -3.5655   -8.2723 C   0  0  0  0  0  0  0  0  0  0  0  0
    3.8264   -2.3367   -7.9396 C   0  0  0  0  0  0  0  0  0  0  0  0
    4.6390   -1.6839   -8.8894 C   0  0  0  0  0  0  0  0  0  0  0  0
    5.3445   -0.4658   -8.5650 C   0  0  0  0  0  0  0  0  0  0  0  0
    5.9462   -0.1448   -7.3786 C   0  0  0  0  0  0  0  0  0  0  0  0
    6.5247    1.1361   -7.3016 C   0  0  0  0  0  0  0  0  0  0  0  0
    6.4014    1.8947   -8.4309 C   0  0  0  0  0  0  0  0  0  0  0  0
    7.1040    3.4873   -8.6019 S   0  0  0  0  0  0  0  0  0  0  0  0
    6.2718    4.1021  -10.1071 C   0  0  0  0  0  0  0  0  0  0  0  0
    4.8277    4.4820   -9.8506 C   0  0  0  0  0  0  0  0  0  0  0  0
    5.5076    0.9519   -9.7977 Se  0  0  0  0  0  2  0  0  0  0  0  0
    4.7104   -2.2809  -10.1476 C   0  0  0  0  0  0  0  0  0  0  0  0
    5.5883   -1.6411  -11.5124 S   0  0  0  0  0  0  0  0  0  0  0  0
    3.4778   -1.9104   -6.6302 C   0  0  0  0  0  0  0  0  0  0  0  0
    2.6652   -2.7805   -5.9705 C   0  0  0  0  0  0  0  0  0  0  0  0
    2.2901   -4.1950   -6.9369 S   0  0  0  0  0  0  0  0  0  0  0  0
    2.1046   -2.6996   -4.6641 C   0  0  0  0  0  0  0  0  0  0  0  0
    1.2151   -3.5789   -4.1234 C   0  0  0  0  0  0  0  0  0  0  0  0
    0.8291   -3.2616   -2.8012 C   0  0  0  0  0  0  0  0  0  0  0  0
   -0.0497   -3.9830   -1.9673 C   0  0  0  0  0  0  0  0  0  0  0  0
   -0.6276   -5.2377   -2.4018 C   0  0  0  0  0  0  0  0  0  0  0  0
    0.0047   -6.2372   -3.0867 C   0  0  0  0  0  0  0  0  0  0  0  0
   -0.8022   -7.3180   -3.4973 C   0  0  0  0  0  0  0  0  0  0  0  0
   -2.1153   -7.2117   -3.1491 C   0  0  0  0  0  0  0  0  0  0  0  0
   -3.4285   -8.3117   -3.5146 S   0  0  0  0  0  0  0  0  0  0  0  0
   -2.5881   -9.9377   -3.4598 C   0  0  0  0  0  0  0  0  0  0  0  0
   -2.0342  -10.2468   -2.0841 C   0  0  0  0  0  0  0  0  0  0  0  0
   -2.4604   -5.6480   -2.1669 Se  0  0  0  0  0  2  0  0  0  0  0  0
   -0.3241   -3.4099   -0.7352 C   0  0  0  0  0  0  0  0  0  0  0  0
    0.2536   -2.2024   -0.2821 C   0  0  0  0  0  0  0  0  0  0  0  0
    1.1915   -1.5218   -1.0857 C   0  0  0  0  0  0  0  0  0  0  0  0
    1.9060   -0.3563   -0.6140 C   0  0  0  0  0  0  0  0  0  0  0  0
    2.3038    0.7417   -1.3254 C   0  0  0  0  0  0  0  0  0  0  0  0
    3.0947    1.6774   -0.6310 C   0  0  0  0  0  0  0  0  0  0  0  0
    3.3866    1.3476    0.6627 C   0  0  0  0  0  0  0  0  0  0  0  0
    4.4163    2.3098    1.6964 S   0  0  0  0  0  0  0  0  0  0  0  0
    4.2845    1.4386    3.2940 C   0  0  0  0  0  0  0  0  0  0  0  0
    2.9468    1.6558    3.9674 C   0  0  0  0  0  0  0  0  0  0  0  0
    2.5945   -0.2883    1.1418 Se  0  0  0  0  0  2  0  0  0  0  0  0
    1.4315   -2.0661   -2.3457 C   0  0  0  0  0  0  0  0  0  0  0  0
    2.5065   -1.4062   -3.5543 S   0  0  0  0  0  0  0  0  0  0  0  0
   -0.2824   -1.7959    0.9660 C   0  0  0  0  0  0  0  0  0  0  0  0
   -1.2150   -2.6503    1.4697 C   0  0  0  0  0  0  0  0  0  0  0  0
   -1.4196   -4.0803    0.4447 S   0  0  0  0  0  0  0  0  0  0  0  0
   -1.9421   -2.4641    2.5980 N   0  0  0  0  0  0  0  0  0  0  0  0
   -3.2475   -3.1120    2.8741 C   0  0  0  0  0  0  0  0  0  0  0  0
   -3.8514   -2.2249    3.9911 C   0  0  0  0  0  0  0  0  0  0  0  0
   -4.7541   -1.2868    3.4594 N   0  0  0  0  0  0  0  0  0  0  0  0
   -4.7225   -0.8742    2.0894 C   0  0  0  0  0  0  0  0  0  0  0  0
   -4.7586   -2.1046    1.1558 C   0  0  0  0  0  0  0  0  0  0  0  0
   -4.1346   -1.7266   -0.2008 C   0  0  0  0  0  0  0  0  0  0  0  0
   -3.6290    0.0250   -0.1565 S   0  0  0  0  0  0  0  0  0  0  0  0
   -3.5507    0.0112    1.6470 C   0  0  0  0  0  0  0  0  0  0  0  0
   -4.1442   -3.2494    1.7939 N   0  0  0  0  0  0  0  0  0  0  0  0
   -2.6888   -1.6849    4.8000 N   0  0  0  0  0  0  0  0  0  0  0  0
   -1.2296   -2.2643    4.1647 S   0  0  0  0  0  0  0  0  0  0  0  0
   -2.5832   -0.3842    5.2599 N   0  0  0  0  0  0  0  0  0  0  0  0
   -3.5058    0.1005    6.2559 C   0  0  0  0  0  0  0  0  0  0  0  0
   -4.3630    1.2455    5.6286 C   0  0  0  0  0  0  0  0  0  0  0  0
   -5.6746    0.7358    5.3107 N   0  0  0  0  0  0  0  0  0  0  0  0
   -6.4422    0.2806    6.4594 C   0  0  0  0  0  0  0  0  0  0  0  0
   -5.5088   -0.4574    7.4494 C   0  0  0  0  0  0  0  0  0  0  0  0
   -6.2907   -1.6242    8.0271 C   0  0  0  0  0  0  0  0  0  0  0  0
   -7.1525   -2.3485    6.6066 S   0  0  0  0  0  0  0  0  0  0  0  0
   -7.5354   -0.6875    5.9759 C   0  0  0  0  0  0  0  0  0  0  0  0
   -4.3718   -0.9464    6.7049 N   0  0  0  0  0  0  0  0  0  0  0  0
   -3.7390    1.7182    4.4160 N   0  0  0  0  0  0  0  0  0  0  0  0
   -2.1218    0.9218    4.2651 S   0  0  0  0  0  0  0  0  0  0  0  0
   -3.8400    3.0570    4.2640 N   0  0  0  0  0  0  0  0  0  0  0  0
   -3.1225    3.5763    3.1212 C   0  0  0  0  0  0  0  0  0  0  0  0
   -2.7040    5.0325    3.4018 C   0  0  0  0  0  0  0  0  0  0  0  0
   -1.6596    5.4074    2.5086 N   0  0  0  0  0  0  0  0  0  0  0  0
   -1.3874    4.6868    1.2737 C   0  0  0  0  0  0  0  0  0  0  0  0
   -1.4667    3.1398    1.4858 C   0  0  0  0  0  0  0  0  0  0  0  0
   -0.0930    2.5189    1.2485 C   0  0  0  0  0  0  0  0  0  0  0  0
    1.1157    3.8045    1.6442 S   0  0  0  0  0  0  0  0  0  0  0  0
    0.0403    5.0217    0.8362 C   0  0  0  0  0  0  0  0  0  0  0  0
   -1.9063    2.8442    2.8319 N   0  0  0  0  0  0  0  0  0  0  0  0
   -2.2180    4.9995    4.7976 N   0  0  0  0  0  0  0  0  0  0  0  0
   -3.3948    4.1684    5.6826 S   0  0  0  0  0  0  0  0  0  0  0  0
   -0.8930    4.6791    5.0753 C   0  0  0  0  0  0  0  0  0  0  0  0
   -0.4369    3.6993    5.8968 C   0  0  0  0  0  0  0  0  0  0  0  0
    0.9689    3.7392    6.0886 C   0  0  0  0  0  0  0  0  0  0  0  0
    1.7467    2.8841    6.8873 C   0  0  0  0  0  0  0  0  0  0  0  0
    1.1664    1.6944    7.4759 C   0  0  0  0  0  0  0  0  0  0  0  0
    0.3548    0.8003    6.8387 C   0  0  0  0  0  0  0  0  0  0  0  0
   -0.0837   -0.2961    7.6084 C   0  0  0  0  0  0  0  0  0  0  0  0
    0.3552   -0.3035    8.8993 C   0  0  0  0  0  0  0  0  0  0  0  0
   -0.1559   -1.4782   10.0922 S   0  0  0  0  0  0  0  0  0  0  0  0
    1.2339   -1.4094   11.2761 C   0  0  0  0  0  0  0  0  0  0  0  0
    2.5040   -1.9997   10.6999 C   0  0  0  0  0  0  0  0  0  0  0  0
    1.4508    1.1939    9.2689 Se  0  0  0  0  0  2  0  0  0  0  0  0
    3.0920    3.2150    7.0120 C   0  0  0  0  0  0  0  0  0  0  0  0
    3.6970    4.2873    6.3188 C   0  0  0  0  0  0  0  0  0  0  0  0
    2.9311    5.0932    5.4571 C   0  0  0  0  0  0  0  0  0  0  0  0
    3.4952    6.1575    4.6498 C   0  0  0  0  0  0  0  0  0  0  0  0
    3.2353    6.3842    3.3295 C   0  0  0  0  0  0  0  0  0  0  0  0
    3.8678    7.5088    2.7616 C   0  0  0  0  0  0  0  0  0  0  0  0
    4.6404    8.2339    3.6195 C   0  0  0  0  0  0  0  0  0  0  0  0
    5.4323    9.7346    3.1927 S   0  0  0  0  0  0  0  0  0  0  0  0
    6.8257    9.7448    4.3752 C   0  0  0  0  0  0  0  0  0  0  0  0
    7.8519    8.6784    4.0528 C   0  0  0  0  0  0  0  0  0  0  0  0
    4.6182    7.4951    5.3556 Se  0  0  0  0  0  2  0  0  0  0  0  0
    1.5703    4.8086    5.3914 C   0  0  0  0  0  0  0  0  0  0  0  0
    0.3847    5.7184    4.4848 S   0  0  0  0  0  0  0  0  0  0  0  0
    5.0991    4.3475    6.5764 C   0  0  0  0  0  0  0  0  0  0  0  0
    5.5239    3.3869    7.4203 C   0  0  0  0  0  0  0  0  0  0  0  0
    4.2613    2.3269    7.9501 S   0  0  0  0  0  0  0  0  0  0  0  0
    5.3519   -2.9676  -13.5356 H   0  0  0  0  0  0  0  0  0  0  0  0
    3.8375   -4.7006  -12.3180 H   0  0  0  0  0  0  0  0  0  0  0  0
    4.2235   -6.4916  -10.9105 H   0  0  0  0  0  0  0  0  0  0  0  0
    2.7304   -8.5590  -11.1048 H   0  0  0  0  0  0  0  0  0  0  0  0
   -1.3959   -7.1907   -8.9693 H   0  0  0  0  0  0  0  0  0  0  0  0
   -2.1046   -8.8232   -8.9391 H   0  0  0  0  0  0  0  0  0  0  0  0
   -1.4981   -8.0844   -6.6291 H   0  0  0  0  0  0  0  0  0  0  0  0
   -0.5238   -9.4826   -7.1217 H   0  0  0  0  0  0  0  0  0  0  0  0
    0.1808   -7.8585   -7.1346 H   0  0  0  0  0  0  0  0  0  0  0  0
    6.0114   -0.8447   -6.5625 H   0  0  0  0  0  0  0  0  0  0  0  0
    7.0272    1.4967   -6.4207 H   0  0  0  0  0  0  0  0  0  0  0  0
    6.3570    3.3176  -10.8657 H   0  0  0  0  0  0  0  0  0  0  0  0
    6.8606    4.9652  -10.4159 H   0  0  0  0  0  0  0  0  0  0  0  0
    4.7675    5.2463   -9.0793 H   0  0  0  0  0  0  0  0  0  0  0  0
    4.2552    3.6133   -9.5248 H   0  0  0  0  0  0  0  0  0  0  0  0
    4.3792    4.8667  -10.7640 H   0  0  0  0  0  0  0  0  0  0  0  0
    3.7821   -0.9732   -6.2007 H   0  0  0  0  0  0  0  0  0  0  0  0
    0.8249   -4.4141   -4.6762 H   0  0  0  0  0  0  0  0  0  0  0  0
    1.0646   -6.2195   -3.2786 H   0  0  0  0  0  0  0  0  0  0  0  0
   -0.4003   -8.1494   -4.0508 H   0  0  0  0  0  0  0  0  0  0  0  0
   -3.3703  -10.6425   -3.7400 H   0  0  0  0  0  0  0  0  0  0  0  0
   -1.8135   -9.9459   -4.2256 H   0  0  0  0  0  0  0  0  0  0  0  0
   -1.5809  -11.2360   -2.0823 H   0  0  0  0  0  0  0  0  0  0  0  0
   -2.8293  -10.2249   -1.3423 H   0  0  0  0  0  0  0  0  0  0  0  0
   -1.2776   -9.5172   -1.8014 H   0  0  0  0  0  0  0  0  0  0  0  0
    1.9980    0.9058   -2.3451 H   0  0  0  0  0  0  0  0  0  0  0  0
    3.4534    2.5871   -1.0801 H   0  0  0  0  0  0  0  0  0  0  0  0
    5.0955    1.8506    3.8943 H   0  0  0  0  0  0  0  0  0  0  0  0
    4.4780    0.3783    3.1056 H   0  0  0  0  0  0  0  0  0  0  0  0
    2.9502    1.1944    4.9522 H   0  0  0  0  0  0  0  0  0  0  0  0
    2.7460    2.7186    4.0678 H   0  0  0  0  0  0  0  0  0  0  0  0
    2.1397    1.2092    3.3866 H   0  0  0  0  0  0  0  0  0  0  0  0
   -0.0489   -0.8652    1.4545 H   0  0  0  0  0  0  0  0  0  0  0  0
   -3.0516   -4.1190    3.2732 H   0  0  0  0  0  0  0  0  0  0  0  0
   -4.3942   -2.8484    4.7156 H   0  0  0  0  0  0  0  0  0  0  0  0
   -5.0942   -0.5994    4.1242 H   0  0  0  0  0  0  0  0  0  0  0  0
   -5.6391   -0.2967    1.9183 H   0  0  0  0  0  0  0  0  0  0  0  0
   -5.8075   -2.3840    0.9900 H   0  0  0  0  0  0  0  0  0  0  0  0
   -4.8375   -1.8380   -1.0237 H   0  0  0  0  0  0  0  0  0  0  0  0
   -3.2505   -2.3270   -0.4157 H   0  0  0  0  0  0  0  0  0  0  0  0
   -3.6582    1.0271    2.0120 H   0  0  0  0  0  0  0  0  0  0  0  0
   -2.5863   -0.3870    1.9497 H   0  0  0  0  0  0  0  0  0  0  0  0
   -3.8835   -3.9688    1.1342 H   0  0  0  0  0  0  0  0  0  0  0  0
   -2.8960    0.5516    7.0715 H   0  0  0  0  0  0  0  0  0  0  0  0
   -4.4126    2.0986    6.3459 H   0  0  0  0  0  0  0  0  0  0  0  0
   -6.1948    1.4228    4.7747 H   0  0  0  0  0  0  0  0  0  0  0  0
   -6.9131    1.1277    6.9871 H   0  0  0  0  0  0  0  0  0  0  0  0
   -5.2025    0.2303    8.2625 H   0  0  0  0  0  0  0  0  0  0  0  0
   -7.0271   -1.2850    8.7568 H   0  0  0  0  0  0  0  0  0  0  0  0
   -5.6480   -2.3773    8.4758 H   0  0  0  0  0  0  0  0  0  0  0  0
   -8.5174   -0.3982    6.3505 H   0  0  0  0  0  0  0  0  0  0  0  0
   -7.5587   -0.7449    4.8904 H   0  0  0  0  0  0  0  0  0  0  0  0
   -3.8502   -1.6497    7.2148 H   0  0  0  0  0  0  0  0  0  0  0  0
   -3.7915    3.5102    2.2529 H   0  0  0  0  0  0  0  0  0  0  0  0
   -3.5755    5.7066    3.4086 H   0  0  0  0  0  0  0  0  0  0  0  0
   -1.5797    6.4059    2.3875 H   0  0  0  0  0  0  0  0  0  0  0  0
   -2.0925    4.9821    0.4765 H   0  0  0  0  0  0  0  0  0  0  0  0
   -2.1919    2.6980    0.7916 H   0  0  0  0  0  0  0  0  0  0  0  0
    0.0401    2.2218    0.2078 H   0  0  0  0  0  0  0  0  0  0  0  0
    0.0654    1.6599    1.8971 H   0  0  0  0  0  0  0  0  0  0  0  0
    0.1571    4.9159   -0.2429 H   0  0  0  0  0  0  0  0  0  0  0  0
    0.3452    6.0178    1.1474 H   0  0  0  0  0  0  0  0  0  0  0  0
   -1.1695    3.1344    3.4801 H   0  0  0  0  0  0  0  0  0  0  0  0
   -1.0747    2.9801    6.3766 H   0  0  0  0  0  0  0  0  0  0  0  0
    0.1037    0.8933    5.7955 H   0  0  0  0  0  0  0  0  0  0  0  0
   -0.6994   -1.0776    7.1971 H   0  0  0  0  0  0  0  0  0  0  0  0
    1.3654   -0.3592   11.5556 H   0  0  0  0  0  0  0  0  0  0  0  0
    0.8883   -1.9713   12.1431 H   0  0  0  0  0  0  0  0  0  0  0  0
    2.8292   -1.4310    9.8288 H   0  0  0  0  0  0  0  0  0  0  0  0
    2.3407   -3.0321   10.3992 H   0  0  0  0  0  0  0  0  0  0  0  0
    3.2957   -1.9705   11.4454 H   0  0  0  0  0  0  0  0  0  0  0  0
    2.6384    5.7052    2.7435 H   0  0  0  0  0  0  0  0  0  0  0  0
    3.7651    7.7737    1.7236 H   0  0  0  0  0  0  0  0  0  0  0  0
    7.2500   10.7450    4.2967 H   0  0  0  0  0  0  0  0  0  0  0  0
    6.4018    9.6111    5.3755 H   0  0  0  0  0  0  0  0  0  0  0  0
    7.4032    7.6867    4.1105 H   0  0  0  0  0  0  0  0  0  0  0  0
    8.6740    8.7280    4.7637 H   0  0  0  0  0  0  0  0  0  0  0  0
    8.2451    8.8213    3.0490 H   0  0  0  0  0  0  0  0  0  0  0  0
    5.7559    5.0785    6.1363 H   0  0  0  0  0  0  0  0  0  0  0  0
    6.5198    3.2126    7.7775 H   0  0  0  0  0  0  0  0  0  0  0  0
  1  2  2  0  0  0  0
  2  3  1  0  0  0  0
  3  4  2  0  0  0  0
  4  5  1  0  0  0  0
  5  6  2  0  0  0  0
  6  7  1  0  0  0  0
  7  8  2  0  0  0  0
  8  9  1  0  0  0  0
  9 10  1  0  0  0  0
 10 11  1  0  0  0  0
  8 12  1  0  0  0  0
  4 13  1  0  0  0  0
 13 14  2  0  0  0  0
 14 15  1  0  0  0  0
 15 16  1  0  0  0  0
 16 17  2  0  0  0  0
 17 18  1  0  0  0  0
 18 19  2  0  0  0  0
 19 20  1  0  0  0  0
 20 21  1  0  0  0  0
 21 22  1  0  0  0  0
 19 23  1  0  0  0  0
 15 24  2  0  0  0  0
 24 25  1  0  0  0  0
 14 26  1  0  0  0  0
 26 27  2  0  0  0  0
 27 28  1  0  0  0  0
 27 29  1  0  0  0  0
 29 30  2  0  0  0  0
 30 31  1  0  0  0  0
 31 32  2  0  0  0  0
 32 33  1  0  0  0  0
 33 34  2  0  0  0  0
 34 35  1  0  0  0  0
 35 36  2  0  0  0  0
 36 37  1  0  0  0  0
 37 38  1  0  0  0  0
 38 39  1  0  0  0  0
 36 40  1  0  0  0  0
 32 41  1  0  0  0  0
 41 42  2  0  0  0  0
 42 43  1  0  0  0  0
 43 44  1  0  0  0  0
 44 45  2  0  0  0  0
 45 46  1  0  0  0  0
 46 47  2  0  0  0  0
 47 48  1  0  0  0  0
 48 49  1  0  0  0  0
 49 50  1  0  0  0  0
 47 51  1  0  0  0  0
 43 52  2  0  0  0  0
 52 53  1  0  0  0  0
 42 54  1  0  0  0  0
 54 55  2  0  0  0  0
 55 56  1  0  0  0  0
 55 57  1  0  0  0  0
 57 58  1  0  0  0  0
 58 59  1  0  0  0  0
 59 60  1  0  0  0  0
 60 61  1  0  0  0  0
 61 62  1  0  0  0  0
 62 63  1  0  0  0  0
 63 64  1  0  0  0  0
 64 65  1  0  0  0  0
 62 66  1  0  0  0  0
 59 67  1  0  0  0  0
 67 68  1  0  0  0  0
 67 69  1  0  0  0  0
 69 70  1  0  0  0  0
 70 71  1  0  0  0  0
 71 72  1  0  0  0  0
 72 73  1  0  0  0  0
 73 74  1  0  0  0  0
 74 75  1  0  0  0  0
 75 76  1  0  0  0  0
 76 77  1  0  0  0  0
 74 78  1  0  0  0  0
 71 79  1  0  0  0  0
 79 80  1  0  0  0  0
 79 81  1  0  0  0  0
 81 82  1  0  0  0  0
 82 83  1  0  0  0  0
 83 84  1  0  0  0  0
 84 85  1  0  0  0  0
 85 86  1  0  0  0  0
 86 87  1  0  0  0  0
 87 88  1  0  0  0  0
 88 89  1  0  0  0  0
 86 90  1  0  0  0  0
 83 91  1  0  0  0  0
 91 92  1  0  0  0  0
 91 93  1  0  0  0  0
 93 94  2  0  0  0  0
 94 95  1  0  0  0  0
 95 96  2  0  0  0  0
 96 97  1  0  0  0  0
 97 98  2  0  0  0  0
 98 99  1  0  0  0  0
 99100  2  0  0  0  0
100101  1  0  0  0  0
101102  1  0  0  0  0
102103  1  0  0  0  0
100104  1  0  0  0  0
 96105  1  0  0  0  0
105106  2  0  0  0  0
106107  1  0  0  0  0
107108  1  0  0  0  0
108109  2  0  0  0  0
109110  1  0  0  0  0
110111  2  0  0  0  0
111112  1  0  0  0  0
112113  1  0  0  0  0
113114  1  0  0  0  0
111115  1  0  0  0  0
107116  2  0  0  0  0
116117  1  0  0  0  0
106118  1  0  0  0  0
118119  2  0  0  0  0
119120  1  0  0  0  0
 25  1  1  0  0  0  0
 53 29  1  0  0  0  0
 68 57  1  0  0  0  0
 80 69  1  0  0  0  0
 92 81  1  0  0  0  0
117 93  1  0  0  0  0
 24  3  1  0  0  0  0
 52 31  1  0  0  0  0
 66 58  1  0  0  0  0
 78 70  1  0  0  0  0
 90 82  1  0  0  0  0
116 95  1  0  0  0  0
 12  5  1  0  0  0  0
 28 13  1  0  0  0  0
 40 33  1  0  0  0  0
 56 41  1  0  0  0  0
 65 61  1  0  0  0  0
 77 73  1  0  0  0  0
 89 85  1  0  0  0  0
104 97  1  0  0  0  0
120105  1  0  0  0  0
 23 16  1  0  0  0  0
 51 44  1  0  0  0  0
115108  1  0  0  0  0
  1121  1  0  0  0  0
  2122  1  0  0  0  0
  6123  1  0  0  0  0
  7124  1  0  0  0  0
 10125  1  0  0  0  0
 10126  1  0  0  0  0
 11127  1  0  0  0  0
 11128  1  0  0  0  0
 11129  1  0  0  0  0
 17130  1  0  0  0  0
 18131  1  0  0  0  0
 21132  1  0  0  0  0
 21133  1  0  0  0  0
 22134  1  0  0  0  0
 22135  1  0  0  0  0
 22136  1  0  0  0  0
 26137  1  0  0  0  0
 30138  1  0  0  0  0
 34139  1  0  0  0  0
 35140  1  0  0  0  0
 38141  1  0  0  0  0
 38142  1  0  0  0  0
 39143  1  0  0  0  0
 39144  1  0  0  0  0
 39145  1  0  0  0  0
 45146  1  0  0  0  0
 46147  1  0  0  0  0
 49148  1  0  0  0  0
 49149  1  0  0  0  0
 50150  1  0  0  0  0
 50151  1  0  0  0  0
 50152  1  0  0  0  0
 54153  1  0  0  0  0
 58154  1  0  0  0  0
 59155  1  0  0  0  0
 60156  1  0  0  0  0
 61157  1  0  0  0  0
 62158  1  0  0  0  0
 63159  1  0  0  0  0
 63160  1  0  0  0  0
 65161  1  0  0  0  0
 65162  1  0  0  0  0
 66163  1  0  0  0  0
 70164  1  0  0  0  0
 71165  1  0  0  0  0
 72166  1  0  0  0  0
 73167  1  0  0  0  0
 74168  1  0  0  0  0
 75169  1  0  0  0  0
 75170  1  0  0  0  0
 77171  1  0  0  0  0
 77172  1  0  0  0  0
 78173  1  0  0  0  0
 82174  1  0  0  0  0
 83175  1  0  0  0  0
 84176  1  0  0  0  0
 85177  1  0  0  0  0
 86178  1  0  0  0  0
 87179  1  0  0  0  0
 87180  1  0  0  0  0
 89181  1  0  0  0  0
 89182  1  0  0  0  0
 90183  1  0  0  0  0
 94184  1  0  0  0  0
 98185  1  0  0  0  0
 99186  1  0  0  0  0
102187  1  0  0  0  0
102188  1  0  0  0  0
103189  1  0  0  0  0
103190  1  0  0  0  0
103191  1  0  0  0  0
109192  1  0  0  0  0
110193  1  0  0  0  0
113194  1  0  0  0  0
113195  1  0  0  0  0
114196  1  0  0  0  0
114197  1  0  0  0  0
114198  1  0  0  0  0
118199  1  0  0  0  0
119200  1  0  0  0  0
M  END
