170

C         12.41370       -9.77170       -4.52570
C         12.66130       -8.93360       -3.49980
C         11.48970       -8.27670       -3.01900
C         11.39200       -7.30870       -2.00020
C         12.52500       -6.95620       -1.17360
C         13.48230       -7.79530       -0.67350
C         14.48310       -7.19520        0.11490
C         14.36840       -5.84200        0.26200
S         15.53310       -4.85970        1.12080
C         14.60210       -3.30520        1.35500
C         13.51130       -3.43710        2.39860
Se        12.85830       -5.17660       -0.65410
C         10.14430       -6.71600       -1.83330
C          9.00060       -7.07520       -2.58540
C          9.08240       -8.08360       -3.56650
C          7.94980       -8.50180       -4.36770
C          7.67350       -9.78000       -4.77010
C          6.55020       -9.94340       -5.60460
C          5.90330       -8.78720       -5.92330
S          4.48380       -8.57940       -6.93140
C          4.76520       -9.82920       -8.23750
C          6.02630       -9.55160       -9.02950
Se         6.70570       -7.29240       -5.12530
C         10.34230       -8.65160       -3.75470
S         10.74500       -9.83270       -4.97550
C          7.86440       -6.32900       -2.19090
C          8.11800       -5.42630       -1.19940
S          9.78050       -5.47250       -0.66490
C          7.20130       -4.50820       -0.62240
S          5.57900       -4.35880       -1.22010
C          5.21390       -3.10620       -0.07700
C          6.30970       -2.83060        0.73880
C          7.44520       -3.62750        0.41880
O          8.67360       -3.63660        0.97250
C          8.98570       -2.74190        2.01550
C          6.24960       -1.86920        1.75950
N          6.18570       -1.08870        2.60020
C          3.91490       -2.53330       -0.08870
C          2.92800       -2.85900       -0.98020
C          1.71230       -2.17460       -0.77530
C          0.52580       -2.28020       -1.53780
C          0.38120       -3.21970       -2.62580
C         -0.31720       -3.03910       -3.79000
C         -0.32040       -4.11850       -4.69120
C          0.36730       -5.22550       -4.27790
S          0.54020       -6.67360       -5.24190
C          1.93290       -7.53050       -4.42370
C          1.48250       -8.38470       -3.25620
Se         1.09380       -4.96760       -2.56500
C         -0.50210       -1.41300       -1.17640
C         -0.39680       -0.47660       -0.11740
C          0.77780       -0.39210        0.66480
C          0.93120        0.53470        1.76450
C          1.64490        0.33240        2.91660
C          1.69620        1.40680        3.82220
C          1.03500        2.53370        3.42280
S          0.93540        4.00520        4.35650
C         -0.34200        4.90870        3.40330
C         -0.72620        6.18940        4.11430
Se         0.24640        2.29620        1.73330
C          1.80370       -1.26430        0.30680
S          3.37880       -1.32760        1.05920
C         -1.59190        0.26090        0.03940
C         -2.57510       -0.08240       -0.84310
S         -2.08580       -1.36510       -1.91640
C         -3.85460        0.53070       -0.94410
S         -4.14940        2.06620       -0.18820
C         -5.78590        2.09180       -0.75530
C         -6.09550        0.93390       -1.46390
C         -4.97700        0.06070       -1.60310
O         -4.88750       -1.11250       -2.25890
C         -6.00270       -1.59990       -2.96940
C         -7.42250        0.64260       -1.82190
N         -8.52320        0.41230       -2.05500
C         -6.62340        3.19070       -0.39260
S         -6.35330        3.89460        1.19080
C         -7.63790        5.02480        0.98170
C         -8.23620        4.87490       -0.26390
C         -7.63860        3.85130       -1.06150
O         -8.04480        3.72480       -2.33900
C         -7.11030        3.35820       -3.33140
C         -9.24020        5.72700       -0.74380
N        -10.04200        6.45500       -1.13080
C         -7.92710        6.02450        1.94910
C         -9.08060        6.74900        2.05140
C         -9.01860        7.79610        2.99700
C        -10.01780        8.75720        3.27870
C        -11.21680        8.86230        2.48830
C        -12.43930        9.35680        2.86880
C        -13.41450        9.44320        1.86530
C        -13.00840        9.03390        0.62180
S        -14.05310        8.98110       -0.77370
C        -12.92170        8.36340       -2.06980
C        -12.01650        9.44980       -2.61270
Se       -11.23510        8.43430        0.64430
C         -9.71730        9.64070        4.31990
C         -8.49510        9.62450        5.03180
C         -7.48550        8.69400        4.71310
C         -6.20630        8.63840        5.39180
C         -4.98540        8.42000        4.81810
C         -3.89160        8.32870        5.70140
C         -4.20400        8.44410        7.02440
S         -3.03830        8.25310        8.31430
C         -3.86340        9.14200        9.68070
C         -3.87950       10.64040        9.45870
Se        -6.05590        8.69450        7.27180
C         -7.78220        7.80530        3.68600
S         -6.71620        6.55430        3.09890
C         -8.42680       10.68090        5.98610
C         -9.53400       11.45070        6.00360
S        -10.73280       10.95060        4.86800
H         13.11320      -10.37790       -5.06740
H         13.64570       -8.75040       -3.11060
H         13.43920       -8.86180       -0.81970
H         15.27560       -7.75690        0.57880
H         14.19690       -3.02280        0.37830
H         15.35350       -2.57620        1.65600
H         13.01550       -2.47790        2.53540
H         12.76830       -4.17100        2.08510
H         13.93240       -3.75400        3.34990
H          8.24800      -10.62570       -4.43250
H          6.23290      -10.91160       -5.95200
H          4.78420      -10.81110       -7.76640
H          3.87670       -9.75270       -8.86380
H          6.90230       -9.59110       -8.38440
H          5.97710       -8.56640       -9.48800
H          6.13990      -10.29710       -9.81370
H          6.87840       -6.45430       -2.60600
H          8.36720       -2.92380        2.89840
H          8.86890       -1.70140        1.70080
H         10.03000       -2.93630        2.25510
H          3.10990       -3.55110       -1.78500
H         -0.78120       -2.10030       -4.03940
H         -0.80430       -4.07500       -5.65140
H          2.64750       -6.76260       -4.11590
H          2.38200       -8.13780       -5.20880
H          2.33870       -8.89910       -2.82470
H          0.75650       -9.12510       -3.58480
H          1.02370       -7.76980       -2.48060
H          2.09580       -0.61550        3.15520
H          2.20790        1.34700        4.76670
H         -1.20130        4.23940        3.30450
H          0.07610        5.11150        2.41280
H          0.13860        6.83970        4.22500
H         -1.12300        5.97050        5.10320
H         -1.48760        6.71080        3.53780
H         -1.75860        1.00530        0.80000
H         -6.82730       -1.85300       -2.29790
H         -6.35230       -0.87920       -3.71460
H         -5.65280       -2.50010       -3.47160
H         -7.43630        3.85890       -4.24300
H         -7.10970        2.27940       -3.50100
H         -6.10070        3.68750       -3.07200
H         -9.96390        6.47910        1.50190
H        -12.66310        9.61940        3.88860
H        -14.41250        9.80170        2.04910
H        -13.58070        7.97360       -2.84530
H        -12.34280        7.54310       -1.63590
H        -12.60060       10.27030       -3.02370
H        -11.38480        9.03570       -3.39500
H        -11.37030        9.83900       -1.82500
H         -4.85330        8.37920        3.75010
H         -2.87880        8.18860        5.36580
H         -3.29120        8.87680       10.56920
H         -4.87500        8.73330        9.76920
H         -2.86490       11.02170        9.36970
H         -4.42340       10.88630        8.54650
H         -4.36910       11.13350       10.29560
H         -7.57230       10.86540        6.61460
H         -9.73610       12.30210        6.62360
