284

C          3.14120      -10.38980        4.41040
C          4.01770       -9.76720        3.59690
C          3.42190       -9.30390        2.38670
C          4.02420       -8.54480        1.36320
C          5.43720       -8.23320        1.38500
C          6.46080       -9.07460        1.71780
C          7.75780       -8.52780        1.64970
C          7.81370       -7.22070        1.26680
S          9.28900       -6.28690        1.19400
C          8.87530       -5.10380       -0.13660
C          8.74130       -5.78830       -1.48100
Se         6.08970       -6.51670        0.95620
C          3.18190       -8.10700        0.34810
C          1.80670       -8.42910        0.28350
C          1.19480       -9.17000        1.31490
C         -0.23330       -9.37760        1.37820
C         -0.90410      -10.44600        1.91120
C         -2.30250      -10.32160        1.99560
C         -2.80820       -9.13210        1.55160
S         -4.51220       -8.75750        1.48570
C         -4.47910       -6.93520        1.35510
C         -4.06570       -6.27280        2.65310
Se        -1.45030       -8.01870        0.89010
C          2.04030       -9.59960        2.33970
S          1.53850      -10.46240        3.76980
C          1.19850       -7.88750       -0.87670
C          2.03440       -7.12500       -1.63640
S          3.66300       -7.09170       -0.98830
C          1.65950       -6.31080       -2.74460
C          2.34220       -5.26390       -3.28880
C          1.57170       -4.49660       -4.20120
C          1.89000       -3.25640       -4.78160
C          3.16510       -2.57690       -4.52430
C          3.91970       -2.04940       -5.57080
C          5.09730       -1.38240       -5.31780
C          5.56880       -1.19100       -4.01660
S          7.03060       -0.20390       -3.88530
C          7.78560       -0.56220       -2.26290
C          8.24180       -2.00100       -2.14150
C          4.79800       -1.71560       -2.98360
F          5.16360       -1.57620       -1.68500
C          3.62460       -2.40160       -3.22460
C          0.88920       -2.63460       -5.51270
C         -0.39600       -3.19990       -5.70610
C         -0.71070       -4.44700       -5.14310
C         -2.06350       -5.01770       -5.20540
C         -2.26830       -6.33090       -5.61490
C         -3.53400       -6.88610       -5.63670
C         -4.64320       -6.14400       -5.24920
S         -6.30560       -6.72650       -5.18760
C         -6.26200       -8.32430       -6.06640
C         -6.10000       -8.15440       -7.56510
C         -4.42160       -4.82940       -4.83350
C         -3.16680       -4.26660       -4.80200
F         -5.47380       -4.08070       -4.43930
C          0.28430       -5.05670       -4.39760
S          0.05100       -6.48400       -3.42390
C         -1.29110       -2.28660       -6.30960
C         -0.76910       -1.03300       -6.47250
S          0.94040       -0.98790       -6.09040
C         -1.55580        0.15970       -6.54430
C         -2.92170        0.19140       -6.57220
C         -3.47320        1.37860       -6.03570
C         -4.80820        1.54290       -5.62890
C         -5.81610        0.53370       -5.98560
C         -6.49770       -0.18410       -5.00560
C         -7.39130       -1.17340       -5.35610
C         -7.65680       -1.46770       -6.69070
S         -8.85150       -2.72720       -7.03080
C         -8.06780       -3.69280       -8.37480
C         -6.69650       -4.19790       -7.97500
C         -6.99280       -0.72080       -7.65920
F         -7.22600       -0.92840       -8.97450
C         -6.06860        0.24780       -7.32310
C         -5.05730        2.58860       -4.75900
C         -4.07040        3.53960       -4.39950
C         -2.75470        3.43140       -4.89020
C         -1.74860        4.40940       -4.45470
C         -2.00760        5.77340       -4.59480
C         -1.12940        6.71320       -4.10130
C          0.03630        6.33000       -3.44120
S          1.08450        7.59780       -2.80030
C          1.66780        6.88150       -1.20960
C          1.85200        7.99900       -0.20280
C          0.30680        4.96750       -3.35310
C         -0.56460        4.01370       -3.84040
F          1.44480        4.53760       -2.76610
C         -2.47230        2.30470       -5.64700
S         -0.88170        1.70690       -6.05980
C         -4.49660        4.35220       -3.31710
C         -5.71750        4.00150       -2.81840
S         -6.50860        2.78470       -3.80490
C         -6.13710        4.21300       -1.46720
C         -6.77230        3.28390       -0.69620
C         -6.52810        3.43510        0.69340
C         -6.75810        2.46220        1.68460
C         -7.59450        1.29490        1.38040
C         -7.16270       -0.00960        1.61260
C         -7.95760       -1.08260        1.26990
C         -9.21430       -0.90390        0.69620
S        -10.16390       -2.35190        0.33220
C        -10.86140       -2.00410       -1.32550
C         -9.77710       -1.77110       -2.35830
C         -9.64710        0.40450        0.50020
F        -10.87180        0.65890       -0.00950
C         -8.85280        1.48760        0.81500
C         -6.05820        2.62320        2.87150
C         -5.29650        3.78360        3.15850
C         -5.17380        4.81720        2.21220
C         -4.37220        6.00830        2.52080
C         -4.62640        6.74470        3.67750
C         -3.87920        7.86370        3.97720
C         -2.83750        8.28140        3.15120
S         -1.90770        9.69990        3.65700
C         -1.66120       10.63240        2.10000
C         -2.97560       10.97150        1.42690
C         -2.57200        7.51600        2.02030
C         -3.32910        6.40970        1.69330
F         -1.54150        7.82560        1.20170
C         -5.72870        4.57220        0.96700
S         -5.38560        5.46660       -0.49670
C         -4.48880        3.61910        4.31120
C         -4.56600        2.36990        4.85770
S         -5.81120        1.40060        4.09770
C         -3.51600        1.77450        5.62970
C         -2.54050        2.42180        6.32930
C         -1.33680        1.68120        6.44240
C         -0.08120        2.18310        6.86440
C          0.00610        3.33500        7.71550
C         -0.92590        3.72450        8.64730
C         -0.64230        4.90210        9.35560
C          0.53760        5.50940        9.01890
S          1.13140        6.94880        9.80950
C          2.50670        7.43620        8.71060
C          2.01530        8.05260        7.41680
Se         1.46120        4.53380        7.69740
C          1.01570        1.54170        6.29290
C          0.92500        0.35390        5.52900
C         -0.30730       -0.33530        5.43210
C         -0.46860       -1.67980        4.93820
C         -1.49740       -2.52120        5.28370
C         -1.48950       -3.80310        4.70920
C         -0.45160       -4.05090        3.85610
S         -0.24110       -5.57560        3.02260
C          1.14770       -5.24380        1.88610
C          2.49440       -5.44750        2.54930
Se         0.69550       -2.57020        3.74690
C         -1.42250        0.42230        5.80960
S         -3.05590        0.11780        5.26610
C          2.12910        0.10710        4.81990
C          3.09520        1.04260        5.02450
S          2.62640        2.20800        6.24700
C          4.22690        1.31200        4.18240
C          4.16430        1.31020        2.82180
C          5.32130        1.83780        2.19500
C          5.53410        2.08260        0.82100
C          4.46110        1.96130       -0.13830
C          3.13040        2.21840        0.07640
C          2.27420        2.00550       -1.01680
C          2.88980        1.58050       -2.15910
S          2.04600        1.10060       -3.61470
C          3.24560        1.61850       -4.88860
C          3.28780        3.12360       -5.04150
Se         4.74220        1.41300       -1.91260
C          6.81670        2.50570        0.47420
C          7.84150        2.75500        1.41510
C          7.59630        2.59260        2.79210
C          8.61510        2.86640        3.78670
C          9.93360        2.50970        3.73360
C         10.73790        2.94330        4.80770
C         10.07760        3.66580        5.75680
S         10.71850        4.40400        7.21040
C         12.02400        3.21640        7.69690
C         11.45580        1.85400        8.03810
Se         8.25090        3.84620        5.36290
C          6.32210        2.15580        3.14140
S          5.76050        1.90540        4.77470
C          9.02480        3.24230        0.78320
C          8.90800        3.33640       -0.55560
S          7.35140        2.86210       -1.14690
H          3.32960      -10.82590        5.37190
H          5.04950       -9.60690        3.84920
H          6.29360      -10.11310        1.95050
H          8.64440       -9.09950        1.86310
H          9.69620       -4.38780       -0.13290
H          7.95060       -4.59670        0.15600
H          9.65620       -6.32230       -1.72720
H          7.91650       -6.50090       -1.46700
H          8.54580       -5.05010       -2.25540
H         -0.39900      -11.34340        2.22560
H         -2.93350      -11.09610        2.39580
H         -5.49540       -6.66120        1.07330
H         -3.79910       -6.68200        0.53480
H         -4.74210       -6.55730        3.45600
H         -4.09070       -5.19100        2.53790
H         -3.05200       -6.56250        2.93030
H          0.17160       -8.05260       -1.15990
H          3.35310       -5.02790       -3.00860
H          3.58550       -2.17830       -6.58880
H          5.68040       -0.97760       -6.13060
H          8.63450        0.12190       -2.23650
H          7.08600       -0.28230       -1.47500
H          8.91340       -2.25630       -2.95890
H          7.39320       -2.68070       -2.16090
H          8.76730       -2.13650       -1.19850
H          3.05360       -2.75210       -2.37890
H         -1.42590       -6.92790       -5.92960
H         -3.64390       -7.91060       -5.95190
H         -7.22780       -8.77080       -5.82990
H         -5.47930       -8.94070       -5.62650
H         -5.17000       -7.64240       -7.80350
H         -6.09470       -9.12910       -8.04910
H         -6.92530       -7.57150       -7.96710
H         -3.05270       -3.25870       -4.43420
H         -2.31390       -2.53000       -6.52720
H         -3.52880       -0.65020       -6.85040
H         -6.29590        0.00670       -3.96330
H         -7.89120       -1.75110       -4.59600
H         -8.03610       -3.08660       -9.27780
H         -8.76240       -4.51910       -8.52580
H         -6.75780       -4.74980       -7.03990
H         -6.00230       -3.37000       -7.84020
H         -6.30240       -4.85210       -8.75080
H         -5.56840        0.79120       -8.11040
H         -2.91120        6.09280       -5.09200
H         -1.33890        7.76670       -4.20130
H          2.60110        6.35080       -1.39500
H          0.90550        6.18070       -0.87440
H          0.90310        8.49480       -0.01370
H          2.56370        8.73460       -0.57060
H          2.22420        7.58980        0.73410
H         -0.31120        2.97220       -3.71470
H         -3.86140        5.07570       -2.83760
H         -7.27580        2.43180       -1.11680
H         -6.18400       -0.18770        2.02870
H         -7.61190       -2.09090        1.43580
H        -11.42980       -2.90620       -1.55080
H        -11.54640       -1.16240       -1.25330
H        -10.22870       -1.65880       -3.34220
H         -9.21310       -0.86710       -2.13290
H         -9.08850       -2.61360       -2.38180
H         -9.23640        2.48170        0.64230
H         -5.43210        6.44560        4.33060
H         -4.08870        8.43960        4.86510
H         -1.14290       11.53300        2.42900
H         -1.00270       10.06400        1.44700
H         -3.62580       11.51420        2.10990
H         -3.49090       10.06900        1.10240
H         -2.78900       11.59280        0.55330
H         -3.06690        5.84810        0.81080
H         -3.76740        4.35140        4.62590
H         -2.62990        3.44500        6.64620
H         -1.80790        3.13930        8.84770
H         -1.29650        5.30240       10.11080
H          3.08850        8.14880        9.29430
H          3.10990        6.54030        8.53160
H          1.41750        7.33680        6.85170
H          1.40380        8.92860        7.62000
H          2.86420        8.34940        6.80480
H         -2.25710       -2.23560        5.99120
H         -2.24490       -4.53980        4.92100
H          0.99820       -5.94600        1.06380
H          1.02680       -4.22370        1.51210
H          2.57080       -6.45530        2.95260
H          3.29380       -5.30070        1.82190
H          2.63500       -4.73510        3.36300
H          2.26640       -0.69050        4.10730
H          3.30600        0.94690        2.28830
H          2.76700        2.62550        1.00500
H          1.21300        2.17760       -0.96870
H          4.21870        1.21420       -4.59360
H          2.91460        1.12750       -5.80280
H          2.31320        3.50150       -5.34280
H          4.02110        3.39650       -5.79720
H          3.56740        3.59360       -4.09970
H         10.33220        1.90270        2.93760
H         11.78990        2.72010        4.85860
H         12.48670        3.68190        8.56660
H         12.75590        3.16700        6.89180
H         10.96680        1.41290        7.17170
H         12.25540        1.19060        8.36160
H         10.72600        1.93920        8.83990
H          9.90750        3.52980        1.32360
H          9.64140        3.67290       -1.26200
