182

C          7.30790       -8.25320       10.86830
C          6.90650       -9.25980       10.00020
C          7.45970      -10.62210       10.07570
O          8.25050      -11.04720       10.86330
S          6.75080      -11.59840        8.74850
C          5.75280      -10.23630        8.12970
O          5.06120      -10.35770        7.15920
C          5.96680       -9.05160        8.97860
C          5.36640       -7.79300        8.77920
C          5.78050       -6.78700        9.66200
C          6.72320       -7.01680       10.67120
C          6.90060       -5.75030       11.41400
O          7.61440       -5.49290       12.33260
O          6.04600       -4.83410       10.84640
C          5.33170       -5.38550        9.80820
O          4.49930       -4.76860        9.21390
C          4.40040       -7.53890        7.72970
C          3.29970       -8.27790        7.41590
C          2.56340       -7.76080        6.32370
C          1.42700       -8.32820        5.69870
C          0.94160       -9.63570        6.03530
C          1.67800      -10.72590        6.44440
C          0.94850      -11.88620        6.72520
C         -0.41310      -11.77130        6.56710
S         -1.52120      -13.06540        6.91910
C         -3.12360      -12.35860        6.39320
C         -3.30390      -12.38960        4.88930
Se        -0.89650      -10.05630        5.95790
C          0.81710       -7.53890        4.71910
C          1.30700       -6.27390        4.32790
C          2.52960       -5.77480        4.84300
C          3.15090       -4.59960        4.30170
C          3.94360       -3.67450        4.93980
C          4.46790       -2.65920        4.13060
C          4.14050       -2.75100        2.79970
S          4.69320       -1.63870        1.57900
C          3.57730       -2.03840        0.18490
C          2.19240       -1.45930        0.37950
Se         3.06300       -4.24510        2.44650
C          3.10990       -6.54020        5.85730
S          4.57480       -6.14390        6.69990
C          0.44290       -5.65340        3.40340
C         -0.62310       -6.42710        3.01980
S         -0.63340       -7.95150        3.86500
C         -1.59180       -6.00250        2.04210
C         -2.97500       -6.28600        2.05930
C         -3.64870       -7.26720        2.91880
O         -3.17030       -8.10970        3.62680
S         -5.43080       -7.12080        2.72530
C         -5.29400       -5.91540        1.41580
O         -6.22530       -5.47400        0.80580
C         -3.87470       -5.59630        1.23050
C         -3.46870       -4.63450        0.31430
C         -2.09540       -4.45100        0.19620
C         -1.17600       -5.12780        1.01270
C          0.15350       -4.78200        0.49820
O          1.25450       -5.18760        0.76240
O         -0.01580       -3.84160       -0.50120
C         -1.33610       -3.57740       -0.70940
O         -1.71270       -2.74580       -1.49300
C         -4.34610       -3.81170       -0.51940
C         -5.07760       -2.72430       -0.03840
C         -5.29050       -2.48240        1.39770
O         -4.88920       -3.13930        2.31600
S         -6.22930       -0.97710        1.59630
C         -6.22580       -0.61620       -0.17090
O         -6.76570        0.34870       -0.62640
C         -5.52090       -1.69210       -0.87710
C         -5.16240       -1.66420       -2.24120
C         -4.70070       -2.89350       -2.74170
C         -4.29220       -3.92210       -1.90390
C         -3.65800       -4.95840       -2.74520
O         -3.10790       -5.96630       -2.41700
O         -3.78710       -4.55280       -4.04440
C         -4.39050       -3.31260       -4.12450
O         -4.61430       -2.77550       -5.16460
C         -4.79200       -0.45820       -2.94180
C         -5.25340        0.81850       -3.02760
C         -4.26100        1.74310       -3.45270
C         -4.37320        3.14480       -3.60660
C         -5.64680        3.81900       -3.60580
C         -5.93560        5.08620       -3.16640
C         -7.24750        5.53260       -3.38480
C         -8.06690        4.64100       -4.02710
S         -9.74990        4.96610       -4.35280
C        -10.24080        3.51960       -5.35420
C         -9.75520        3.61700       -6.78630
Se        -7.16620        3.03420       -4.40120
C         -3.17200        3.83160       -3.79150
C         -1.89940        3.20870       -3.85950
C         -1.79910        1.80140       -3.81000
C         -0.54650        1.09070       -3.90460
C          0.53390        1.41810       -4.68110
C          1.65800        0.58160       -4.57220
C          1.51650       -0.44520       -3.68030
S          2.64130       -1.71290       -3.25830
C          4.17390       -1.22580       -4.13290
C          4.88140       -0.06070       -3.46760
Se        -0.18560       -0.47660       -2.88430
C         -2.99990        1.12280       -3.61030
S         -3.11170       -0.59270       -3.45580
C         -0.85040        4.15480       -3.95620
C         -1.28090        5.44680       -4.02030
S         -3.02540        5.56110       -3.95370
C         -0.50640        6.63750       -4.11580
C         -0.98270        7.91440       -4.13870
C          0.02380        8.90290       -4.25030
C         -0.14410       10.30380       -4.26440
C         -1.44780       10.92510       -4.27590
C         -1.82540       12.08410       -3.65050
C         -3.15630       12.49110       -3.84960
C         -3.89510       11.68500       -4.67180
S         -5.55170       12.00610       -5.11850
C         -6.09400       10.37280       -5.73730
C         -6.28080        9.36400       -4.62210
Se        -2.87090       10.24540       -5.31430
C          1.03070       11.05620       -4.28330
C          2.32360       10.48450       -4.30150
C          2.48960        9.08430       -4.29640
C          3.78700        8.44210       -4.26710
C          4.13850        7.28110       -4.90070
C          5.42310        6.77720       -4.61650
C          6.14110        7.51700       -3.72220
S          7.73310        7.23810       -3.05920
C          8.46100        6.03610       -4.22780
C          8.74710        6.65410       -5.58200
Se         5.20090        9.03440       -3.15230
C          1.31770        8.33110       -4.28340
S          1.23870        6.58770       -4.22390
C          3.33550       11.48490       -4.38720
C          2.83870       12.73850       -4.42300
S          1.11490       12.79610       -4.35430
H          8.03310       -8.43580       11.64470
H          2.98970       -9.13320        7.98610
H          2.75460      -10.70960        6.47950
H          1.41110      -12.80570        7.03930
H         -3.17020      -11.33850        6.78610
H         -3.87190      -12.97190        6.89420
H         -3.23850      -13.40940        4.51750
H         -4.27880      -11.98200        4.63220
H         -2.54330      -11.78560        4.39420
H          4.09480       -3.68510        6.00620
H          5.07720       -1.85980        4.51540
H          4.05930       -1.61350       -0.69380
H          3.54760       -3.12760        0.08510
H          2.23680       -0.37650        0.47380
H          1.72810       -1.87000        1.27720
H          1.56940       -1.71590       -0.47680
H          0.54800       -4.62950        3.09120
H         -6.24990        1.09700       -2.73140
H         -5.21780        5.69130       -2.64060
H         -7.59450        6.50160       -3.07050
H        -11.32930        3.50840       -5.30620
H         -9.84930        2.63050       -4.85060
H        -10.14700        4.51380       -7.26040
H         -8.66630        3.65020       -6.82420
H        -10.09130        2.74780       -7.34720
H          0.50870        2.23250       -5.38570
H          2.54230        0.74830       -5.16190
H          3.91200       -1.01470       -5.16840
H          4.78920       -2.12450       -4.10290
H          4.23150        0.80940       -3.41020
H          5.76930        0.20320       -4.03880
H          5.18850       -0.32580       -2.45870
H          0.19290        3.89790       -3.94520
H         -2.03440        8.12100       -4.03490
H         -1.16520       12.62050       -2.99070
H         -3.57480       13.36480       -3.38130
H         -5.35020       10.03890       -6.46730
H         -7.03350       10.57320       -6.25120
H         -7.01630        9.72240       -3.90580
H         -5.34100        9.18860       -4.09790
H         -6.62270        8.41730       -5.03530
H          3.49040        6.79210       -5.60810
H          5.78680        5.87110       -5.06870
H          9.38190        5.72260       -3.73670
H          7.78900        5.18150       -4.29370
H          9.20460        5.91410       -6.23560
H          9.42920        7.49430       -5.47610
H          7.83080        7.01100       -6.04750
H          4.38840       11.26820       -4.44560
H          3.38110       13.66120       -4.48710
