284

C         -9.20010      -20.59110        4.75740
C         -7.89440      -20.57190        4.41990
C         -7.53900      -19.44410        3.62250
C         -6.26850      -19.09870        3.11120
C         -5.06620      -19.78750        3.51990
C         -4.78650      -20.30180        4.75790
C         -3.51270      -20.87980        4.91720
C         -2.72340      -20.85360        3.80350
S         -1.12810      -21.56450        3.71780
C         -0.37820      -20.57590        2.37460
C         -0.13020      -19.14110        2.79330
Se        -3.61270      -20.04600        2.34830
C         -6.24240      -18.02740        2.22090
C         -7.38500      -17.25580        1.91280
C         -8.61890      -17.49850        2.54980
C         -9.71570      -16.57680        2.35950
C         -9.60010      -15.21640        2.24560
C        -10.78050      -14.50500        1.95720
C        -11.89370      -15.28430        1.83510
S        -13.53230      -14.82560        1.43610
C        -13.40400      -13.02070        1.17330
C        -13.38460      -12.24080        2.47340
Se       -11.52050      -17.10380        2.12890
C         -8.66710      -18.63480        3.35150
S        -10.09230      -19.23950        4.14790
C         -7.10910      -16.26310        0.94740
C         -5.79990      -16.20430        0.57060
S         -4.83760      -17.42650        1.37470
C         -5.24450      -15.19310       -0.26590
C         -5.94180      -14.12230       -0.74510
C         -5.14480      -13.15160       -1.38750
C         -5.56320      -11.90080       -1.88880
C         -6.93000      -11.43350       -1.78030
C         -7.59180      -10.61500       -2.65290
C         -8.90030      -10.22480       -2.29390
C         -9.32620      -10.70660       -1.09290
S        -10.85890      -10.50540       -0.27600
C        -11.82490       -9.53040       -1.48740
C        -13.22260       -9.30620       -0.94430
Se        -8.02990      -11.77590       -0.26820
C         -4.55420      -11.10660       -2.42930
C         -3.19660      -11.50560       -2.50790
C         -2.79610      -12.78530       -2.05830
C         -1.44170      -13.25580       -2.21790
C         -0.58900      -12.98980       -3.25760
C          0.67920      -13.59400       -3.19190
C          0.89500      -14.36660       -2.08550
S          2.41370      -15.15650       -1.73570
C          1.88640      -16.43670       -0.54220
C          1.09310      -17.54340       -1.20690
Se        -0.61440      -14.38530       -0.95540
C         -3.79020      -13.55190       -1.45650
S         -3.55070      -15.09950       -0.68430
C         -2.36430      -10.44910       -2.95410
C         -3.03670       -9.29560       -3.22800
S         -4.76190       -9.46500       -2.97840
C         -2.49980       -8.03460       -3.61520
C         -3.18010       -6.86440       -3.77560
C         -2.34720       -5.75820       -4.07390
C         -2.73250       -4.41910       -4.25650
C         -4.14780       -4.03410       -4.28790
C         -4.63000       -2.97140       -3.53060
C         -5.96190       -2.60560       -3.57340
C         -6.86150       -3.29000       -4.38270
S         -8.57670       -2.92900       -4.53170
C         -8.75390       -1.33930       -3.63880
C        -10.16400       -0.82000       -3.84750
C         -6.36610       -4.35950       -5.13200
F         -7.21270       -5.04950       -5.92440
C         -5.04320       -4.73390       -5.09710
C         -1.70750       -3.49760       -4.40220
C         -0.33840       -3.86060       -4.44770
C          0.04130       -5.20990       -4.34020
C          1.44640       -5.61300       -4.46450
C          2.21580       -5.16510       -5.53530
C          3.53590       -5.54520       -5.67940
C          4.13760       -6.39110       -4.75450
S          5.81020       -6.93950       -4.79410
C          6.41250       -6.44650       -6.44590
C          5.83200       -7.30580       -7.55320
C          3.35590       -6.82690       -3.68210
C          2.03920       -6.45780       -3.52830
F          3.91100       -7.63510       -2.75770
C         -0.97830       -6.12310       -4.11730
S         -0.77500       -7.83780       -3.85850
C          0.50710       -2.72550       -4.53600
C         -0.16810       -1.54260       -4.57530
S         -1.90760       -1.77060       -4.54810
C          0.36640       -0.22290       -4.53440
C         -0.33020        0.94280       -4.41260
C          0.48900        2.08640       -4.25390
C          0.07480        3.41150       -3.98650
C         -1.30930        3.80470       -4.08360
C         -2.24790        3.32600       -4.96120
C         -3.54150        3.86390       -4.84770
C         -3.69160        4.80090       -3.86300
S         -5.19320        5.61150       -3.49580
C         -4.60390        6.83340       -2.26570
C         -5.73640        7.74070       -1.83360
Se        -2.07240        5.10450       -2.94900
C          1.08280        4.28880       -3.59840
C          2.45530        3.94610       -3.56920
C          2.87900        2.65000       -3.93090
C          4.26660        2.24020       -3.91430
C          4.87280        1.36970       -4.77890
C          6.22960        1.08730       -4.53110
C          6.75950        1.70000       -3.43120
S          8.39850        1.45990       -2.87310
C          8.62480        2.87380       -1.73530
C          8.78310        4.19000       -2.46870
Se         5.47420        2.75700       -2.55750
C          1.86380        1.74880       -4.24530
S          2.09690        0.04040       -4.51760
C          3.25040        5.02100       -3.10680
C          2.53610        6.12130       -2.73980
S          0.82390        5.92340       -3.04750
C          3.03170        7.26490       -2.05300
C          2.33040        8.31950       -1.54970
C          3.11470        9.18630       -0.74790
C          2.70830       10.33600       -0.05440
C          1.31370       10.79310       -0.02880
C          0.27700        9.92720        0.31610
C         -1.01400       10.39420        0.43770
C         -1.32840       11.73200        0.20400
S         -3.01760       12.21590        0.40560
C         -2.92400       13.89330        1.13610
C         -2.13070       13.91890        2.42710
C         -0.29330       12.57060       -0.19820
F         -0.52860       13.86350       -0.50910
C          1.00870       12.12370       -0.29390
C          3.68400       10.99900        0.67390
C          5.03320       10.57300        0.75630
C          5.44030        9.42560        0.05750
C          6.81510        8.91180        0.09880
C          7.05720        7.57460        0.41350
C          8.33420        7.06400        0.37110
C          9.42490        7.85850        0.01530
S         10.99740        7.06030       -0.02230
C         11.97700        8.02200       -1.24290
C         13.11230        7.15170       -1.74470
C          9.17490        9.20320       -0.24300
C          7.89680        9.72650       -0.21280
F         10.18220       10.05510       -0.54150
C          4.46470        8.76260       -0.67180
S          4.72630        7.31300       -1.60390
C          5.78550       11.36910        1.65970
C          5.05580       12.35530        2.25160
S          3.39090       12.37740        1.69740
C          5.44080       13.29340        3.25410
C          4.60920       14.16350        3.89220
C          5.24920       14.93580        4.89190
C          4.67180       15.91330        5.71720
C          3.22560       16.15980        5.67590
C          2.33320       15.09460        5.77520
C          0.96910       15.29360        5.70430
C          0.44540       16.57040        5.53770
S         -1.27070       16.94330        5.37730
C         -2.10500       15.50060        6.12780
C         -1.86030       15.40900        7.62150
C          1.34960       17.63020        5.45230
F          0.87800       18.88110        5.28620
C          2.71310       17.44520        5.52280
C          5.53180       16.58710        6.57120
C          6.91750       16.30480        6.65200
C          7.48940       15.31380        5.83910
C          8.92410       15.00630        5.89070
C          9.87680       16.01270        5.76710
C         11.22890       15.72860        5.80120
C         11.67620       14.42240        5.96740
S         13.35860       13.91730        6.04020
C         14.28580       15.48630        5.85450
C         15.77060       15.17960        5.91070
C         10.70800       13.42230        6.08690
C          9.35980       13.69160        6.04680
F         11.10800       12.14590        6.25350
C          6.63190       14.64440        4.97810
S          7.08780       13.39480        3.84430
C          7.55130       17.09020        7.66110
C          6.69950       17.92230        8.29310
S          5.07040       17.81710        7.71910
H         -9.71930      -21.32780        5.33840
H         -7.20420      -21.35050        4.68790
H         -5.46900      -20.20340        5.58510
H         -3.17210      -21.29220        5.85130
H         -1.05200      -20.63680        1.51410
H          0.55270      -21.09070        2.13950
H          0.35780      -18.59660        1.98750
H          0.50550      -19.10760        3.67500
H         -1.07110      -18.64100        3.02270
H         -8.66700      -14.70240        2.40870
H        -10.77270      -13.43540        1.83550
H        -14.29170      -12.77870        0.58850
H        -12.51760      -12.83420        0.56870
H        -12.55380      -12.55200        3.10180
H        -13.27740      -11.17900        2.26010
H        -14.30890      -12.39860        3.02410
H         -7.86920      -15.63190        0.52920
H         -7.00820      -14.04310       -0.63930
H         -7.16500      -10.31230       -3.59410
H         -9.49650       -9.59720       -2.93280
H        -11.30320       -8.58520       -1.63790
H        -11.84780      -10.09760       -2.41800
H        -13.80480       -8.72580       -1.65650
H        -13.72340      -10.25690       -0.77530
H        -13.18300       -8.76390       -0.00220
H         -0.89280      -12.41060       -4.11320
H          1.42340      -13.47210       -3.95970
H          1.30700      -15.93260        0.23800
H          2.81440      -16.81330       -0.11340
H          0.17010      -17.15060       -1.63340
H          0.83360      -18.30720       -0.47660
H          1.67590      -18.00230       -2.00200
H         -1.29290      -10.51190       -3.01310
H         -4.24480       -6.79280       -3.64270
H         -3.96130       -2.43310       -2.87710
H         -6.29490       -1.78250       -2.96300
H         -8.55860       -1.51850       -2.58120
H         -8.01840       -0.64600       -4.04640
H        -10.36120       -0.67080       -4.90640
H        -10.89240       -1.52760       -3.45830
H        -10.28800        0.12960       -3.33130
H         -4.71140       -5.55120       -5.71810
H          1.76800       -4.52490       -6.28070
H          4.09370       -5.16960       -6.52170
H          6.21110       -5.38570       -6.58870
H          7.49110       -6.58650       -6.37390
H          6.24560       -7.00210       -8.51310
H          6.07850       -8.35110       -7.38330
H          4.74890       -7.21320       -7.59570
H          1.49340       -6.81490       -2.66970
H          1.58130       -2.77910       -4.52270
H         -1.40370        0.96190       -4.36400
H         -1.99810        2.62070       -5.73580
H         -4.35280        3.57310       -5.49240
H         -4.19890        6.26770       -1.42060
H         -3.79840        7.40130       -2.74030
H         -6.53540        7.16240       -1.37570
H         -6.14260        8.27390       -2.68980
H         -5.37020        8.46780       -1.11230
H          4.36180        0.96850       -5.63800
H          6.81580        0.44420       -5.16430
H          9.52220        2.62680       -1.16910
H          7.76520        2.88650       -1.05800
H          9.61220        4.13420       -3.17020
H          8.97800        4.98860       -1.75620
H          7.87560        4.43600       -3.02080
H          4.32420        4.99940       -3.02560
H          1.28150        8.46270       -1.73900
H          0.49400        8.89240        0.53260
H         -1.80970        9.72730        0.73190
H         -2.51840       14.57960        0.39650
H         -3.97040       14.14190        1.31410
H         -1.08860       13.65760        2.25030
H         -2.54820       13.21440        3.14450
H         -2.16460       14.92060        2.85160
H          1.77260       12.82090       -0.60100
H          6.23770        6.93370        0.69830
H          8.51520        6.02770        0.61220
H         12.35430        8.91790       -0.75250
H         11.30400        8.29790       -2.05330
H         12.72470        6.25710       -2.22700
H         13.70930        7.70770       -2.46440
H         13.75370        6.84850       -0.92030
H          7.75840       10.76940       -0.45340
H          6.82140       11.19400        1.89000
H          3.56740       14.25770        3.64260
H          2.71290       14.09480        5.92370
H          0.31440       14.43960        5.76930
H         -3.15900       15.68180        5.91700
H         -1.79610       14.59960        5.59930
H         -2.19420       16.31970        8.11300
H         -2.41160       14.56710        8.03580
H         -0.80240       15.27130        7.83610
H          3.36410       18.30070        5.43730
H          9.55630       17.03280        5.61770
H         11.93350       16.53690        5.69390
H         13.99450       16.14900        6.66960
H         14.01540       15.92610        4.89430
H         16.04850       14.49770        5.11060
H         16.02790       14.71790        6.86100
H         16.34260       16.09860        5.80190
H          8.65910       12.87930        6.15740
H          8.59530       17.00850        7.90310
H          6.91820       18.61320        9.08380
