
  xtb     03072214563D
 energy: -298.572277999569 gnorm: 0.001618786790 xtb: 6.4.1 (unknown)
170187  0     0  0            999 V2000
   12.4137   -9.7717   -4.5257 C   0  0  0  0  0  0  0  0  0  0  0  0
   12.6613   -8.9336   -3.4998 C   0  0  0  0  0  0  0  0  0  0  0  0
   11.4897   -8.2767   -3.0190 C   0  0  0  0  0  0  0  0  0  0  0  0
   11.3920   -7.3087   -2.0002 C   0  0  0  0  0  0  0  0  0  0  0  0
   12.5250   -6.9562   -1.1736 C   0  0  0  0  0  0  0  0  0  0  0  0
   13.4823   -7.7953   -0.6735 C   0  0  0  0  0  0  0  0  0  0  0  0
   14.4831   -7.1952    0.1149 C   0  0  0  0  0  0  0  0  0  0  0  0
   14.3684   -5.8420    0.2620 C   0  0  0  0  0  0  0  0  0  0  0  0
   15.5331   -4.8597    1.1208 S   0  0  0  0  0  0  0  0  0  0  0  0
   14.6021   -3.3052    1.3550 C   0  0  0  0  0  0  0  0  0  0  0  0
   13.5113   -3.4371    2.3986 C   0  0  0  0  0  0  0  0  0  0  0  0
   12.8583   -5.1766   -0.6541 Se  0  0  0  0  0  2  0  0  0  0  0  0
   10.1443   -6.7160   -1.8333 C   0  0  0  0  0  0  0  0  0  0  0  0
    9.0006   -7.0752   -2.5854 C   0  0  0  0  0  0  0  0  0  0  0  0
    9.0824   -8.0836   -3.5665 C   0  0  0  0  0  0  0  0  0  0  0  0
    7.9498   -8.5018   -4.3677 C   0  0  0  0  0  0  0  0  0  0  0  0
    7.6735   -9.7800   -4.7701 C   0  0  0  0  0  0  0  0  0  0  0  0
    6.5502   -9.9434   -5.6046 C   0  0  0  0  0  0  0  0  0  0  0  0
    5.9033   -8.7872   -5.9233 C   0  0  0  0  0  0  0  0  0  0  0  0
    4.4838   -8.5794   -6.9314 S   0  0  0  0  0  0  0  0  0  0  0  0
    4.7652   -9.8292   -8.2375 C   0  0  0  0  0  0  0  0  0  0  0  0
    6.0263   -9.5516   -9.0295 C   0  0  0  0  0  0  0  0  0  0  0  0
    6.7057   -7.2924   -5.1253 Se  0  0  0  0  0  2  0  0  0  0  0  0
   10.3423   -8.6516   -3.7547 C   0  0  0  0  0  0  0  0  0  0  0  0
   10.7450   -9.8327   -4.9755 S   0  0  0  0  0  0  0  0  0  0  0  0
    7.8644   -6.3290   -2.1909 C   0  0  0  0  0  0  0  0  0  0  0  0
    8.1180   -5.4263   -1.1994 C   0  0  0  0  0  0  0  0  0  0  0  0
    9.7805   -5.4725   -0.6649 S   0  0  0  0  0  0  0  0  0  0  0  0
    7.2013   -4.5082   -0.6224 C   0  0  0  0  0  0  0  0  0  0  0  0
    5.5790   -4.3588   -1.2201 S   0  0  0  0  0  0  0  0  0  0  0  0
    5.2139   -3.1062   -0.0770 C   0  0  0  0  0  0  0  0  0  0  0  0
    6.3097   -2.8306    0.7388 C   0  0  0  0  0  0  0  0  0  0  0  0
    7.4452   -3.6275    0.4188 C   0  0  0  0  0  0  0  0  0  0  0  0
    8.6736   -3.6366    0.9725 O   0  0  0  0  0  0  0  0  0  0  0  0
    8.9857   -2.7419    2.0155 C   0  0  0  0  0  0  0  0  0  0  0  0
    6.2496   -1.8692    1.7595 C   0  0  0  0  0  0  0  0  0  0  0  0
    6.1857   -1.0887    2.6002 N   0  0  0  0  0  0  0  0  0  0  0  0
    3.9149   -2.5333   -0.0887 C   0  0  0  0  0  0  0  0  0  0  0  0
    2.9280   -2.8590   -0.9802 C   0  0  0  0  0  0  0  0  0  0  0  0
    1.7123   -2.1746   -0.7753 C   0  0  0  0  0  0  0  0  0  0  0  0
    0.5258   -2.2802   -1.5378 C   0  0  0  0  0  0  0  0  0  0  0  0
    0.3812   -3.2197   -2.6258 C   0  0  0  0  0  0  0  0  0  0  0  0
   -0.3172   -3.0391   -3.7900 C   0  0  0  0  0  0  0  0  0  0  0  0
   -0.3204   -4.1185   -4.6912 C   0  0  0  0  0  0  0  0  0  0  0  0
    0.3673   -5.2255   -4.2779 C   0  0  0  0  0  0  0  0  0  0  0  0
    0.5402   -6.6736   -5.2419 S   0  0  0  0  0  0  0  0  0  0  0  0
    1.9329   -7.5305   -4.4237 C   0  0  0  0  0  0  0  0  0  0  0  0
    1.4825   -8.3847   -3.2562 C   0  0  0  0  0  0  0  0  0  0  0  0
    1.0938   -4.9676   -2.5650 Se  0  0  0  0  0  2  0  0  0  0  0  0
   -0.5021   -1.4130   -1.1764 C   0  0  0  0  0  0  0  0  0  0  0  0
   -0.3968   -0.4766   -0.1174 C   0  0  0  0  0  0  0  0  0  0  0  0
    0.7778   -0.3921    0.6648 C   0  0  0  0  0  0  0  0  0  0  0  0
    0.9312    0.5347    1.7645 C   0  0  0  0  0  0  0  0  0  0  0  0
    1.6449    0.3324    2.9166 C   0  0  0  0  0  0  0  0  0  0  0  0
    1.6962    1.4068    3.8222 C   0  0  0  0  0  0  0  0  0  0  0  0
    1.0350    2.5337    3.4228 C   0  0  0  0  0  0  0  0  0  0  0  0
    0.9354    4.0052    4.3565 S   0  0  0  0  0  0  0  0  0  0  0  0
   -0.3420    4.9087    3.4033 C   0  0  0  0  0  0  0  0  0  0  0  0
   -0.7262    6.1894    4.1143 C   0  0  0  0  0  0  0  0  0  0  0  0
    0.2464    2.2962    1.7333 Se  0  0  0  0  0  2  0  0  0  0  0  0
    1.8037   -1.2643    0.3068 C   0  0  0  0  0  0  0  0  0  0  0  0
    3.3788   -1.3276    1.0592 S   0  0  0  0  0  0  0  0  0  0  0  0
   -1.5919    0.2609    0.0394 C   0  0  0  0  0  0  0  0  0  0  0  0
   -2.5751   -0.0824   -0.8431 C   0  0  0  0  0  0  0  0  0  0  0  0
   -2.0858   -1.3651   -1.9164 S   0  0  0  0  0  0  0  0  0  0  0  0
   -3.8546    0.5307   -0.9441 C   0  0  0  0  0  0  0  0  0  0  0  0
   -4.1494    2.0662   -0.1882 S   0  0  0  0  0  0  0  0  0  0  0  0
   -5.7859    2.0918   -0.7553 C   0  0  0  0  0  0  0  0  0  0  0  0
   -6.0955    0.9339   -1.4639 C   0  0  0  0  0  0  0  0  0  0  0  0
   -4.9770    0.0607   -1.6031 C   0  0  0  0  0  0  0  0  0  0  0  0
   -4.8875   -1.1125   -2.2589 O   0  0  0  0  0  0  0  0  0  0  0  0
   -6.0027   -1.5999   -2.9694 C   0  0  0  0  0  0  0  0  0  0  0  0
   -7.4225    0.6426   -1.8219 C   0  0  0  0  0  0  0  0  0  0  0  0
   -8.5232    0.4123   -2.0550 N   0  0  0  0  0  0  0  0  0  0  0  0
   -6.6234    3.1907   -0.3926 C   0  0  0  0  0  0  0  0  0  0  0  0
   -6.3533    3.8946    1.1908 S   0  0  0  0  0  0  0  0  0  0  0  0
   -7.6379    5.0248    0.9817 C   0  0  0  0  0  0  0  0  0  0  0  0
   -8.2362    4.8749   -0.2639 C   0  0  0  0  0  0  0  0  0  0  0  0
   -7.6386    3.8513   -1.0615 C   0  0  0  0  0  0  0  0  0  0  0  0
   -8.0448    3.7248   -2.3390 O   0  0  0  0  0  0  0  0  0  0  0  0
   -7.1103    3.3582   -3.3314 C   0  0  0  0  0  0  0  0  0  0  0  0
   -9.2402    5.7270   -0.7438 C   0  0  0  0  0  0  0  0  0  0  0  0
  -10.0420    6.4550   -1.1308 N   0  0  0  0  0  0  0  0  0  0  0  0
   -7.9271    6.0245    1.9491 C   0  0  0  0  0  0  0  0  0  0  0  0
   -9.0806    6.7490    2.0514 C   0  0  0  0  0  0  0  0  0  0  0  0
   -9.0186    7.7961    2.9970 C   0  0  0  0  0  0  0  0  0  0  0  0
  -10.0178    8.7572    3.2787 C   0  0  0  0  0  0  0  0  0  0  0  0
  -11.2168    8.8623    2.4883 C   0  0  0  0  0  0  0  0  0  0  0  0
  -12.4393    9.3568    2.8688 C   0  0  0  0  0  0  0  0  0  0  0  0
  -13.4145    9.4432    1.8653 C   0  0  0  0  0  0  0  0  0  0  0  0
  -13.0084    9.0339    0.6218 C   0  0  0  0  0  0  0  0  0  0  0  0
  -14.0531    8.9811   -0.7737 S   0  0  0  0  0  0  0  0  0  0  0  0
  -12.9217    8.3634   -2.0698 C   0  0  0  0  0  0  0  0  0  0  0  0
  -12.0165    9.4498   -2.6127 C   0  0  0  0  0  0  0  0  0  0  0  0
  -11.2351    8.4343    0.6443 Se  0  0  0  0  0  2  0  0  0  0  0  0
   -9.7173    9.6407    4.3199 C   0  0  0  0  0  0  0  0  0  0  0  0
   -8.4951    9.6245    5.0318 C   0  0  0  0  0  0  0  0  0  0  0  0
   -7.4855    8.6940    4.7131 C   0  0  0  0  0  0  0  0  0  0  0  0
   -6.2063    8.6384    5.3918 C   0  0  0  0  0  0  0  0  0  0  0  0
   -4.9854    8.4200    4.8181 C   0  0  0  0  0  0  0  0  0  0  0  0
   -3.8916    8.3287    5.7014 C   0  0  0  0  0  0  0  0  0  0  0  0
   -4.2040    8.4441    7.0244 C   0  0  0  0  0  0  0  0  0  0  0  0
   -3.0383    8.2531    8.3143 S   0  0  0  0  0  0  0  0  0  0  0  0
   -3.8634    9.1420    9.6807 C   0  0  0  0  0  0  0  0  0  0  0  0
   -3.8795   10.6404    9.4587 C   0  0  0  0  0  0  0  0  0  0  0  0
   -6.0559    8.6945    7.2718 Se  0  0  0  0  0  2  0  0  0  0  0  0
   -7.7822    7.8053    3.6860 C   0  0  0  0  0  0  0  0  0  0  0  0
   -6.7162    6.5543    3.0989 S   0  0  0  0  0  0  0  0  0  0  0  0
   -8.4268   10.6809    5.9861 C   0  0  0  0  0  0  0  0  0  0  0  0
   -9.5340   11.4507    6.0036 C   0  0  0  0  0  0  0  0  0  0  0  0
  -10.7328   10.9506    4.8680 S   0  0  0  0  0  0  0  0  0  0  0  0
   13.1132  -10.3779   -5.0674 H   0  0  0  0  0  0  0  0  0  0  0  0
   13.6457   -8.7504   -3.1106 H   0  0  0  0  0  0  0  0  0  0  0  0
   13.4392   -8.8618   -0.8197 H   0  0  0  0  0  0  0  0  0  0  0  0
   15.2756   -7.7569    0.5788 H   0  0  0  0  0  0  0  0  0  0  0  0
   14.1969   -3.0228    0.3783 H   0  0  0  0  0  0  0  0  0  0  0  0
   15.3535   -2.5762    1.6560 H   0  0  0  0  0  0  0  0  0  0  0  0
   13.0155   -2.4779    2.5354 H   0  0  0  0  0  0  0  0  0  0  0  0
   12.7683   -4.1710    2.0851 H   0  0  0  0  0  0  0  0  0  0  0  0
   13.9324   -3.7540    3.3499 H   0  0  0  0  0  0  0  0  0  0  0  0
    8.2480  -10.6257   -4.4325 H   0  0  0  0  0  0  0  0  0  0  0  0
    6.2329  -10.9116   -5.9520 H   0  0  0  0  0  0  0  0  0  0  0  0
    4.7842  -10.8111   -7.7664 H   0  0  0  0  0  0  0  0  0  0  0  0
    3.8767   -9.7527   -8.8638 H   0  0  0  0  0  0  0  0  0  0  0  0
    6.9023   -9.5911   -8.3844 H   0  0  0  0  0  0  0  0  0  0  0  0
    5.9771   -8.5664   -9.4880 H   0  0  0  0  0  0  0  0  0  0  0  0
    6.1399  -10.2971   -9.8137 H   0  0  0  0  0  0  0  0  0  0  0  0
    6.8784   -6.4543   -2.6060 H   0  0  0  0  0  0  0  0  0  0  0  0
    8.3672   -2.9238    2.8984 H   0  0  0  0  0  0  0  0  0  0  0  0
    8.8689   -1.7014    1.7008 H   0  0  0  0  0  0  0  0  0  0  0  0
   10.0300   -2.9363    2.2551 H   0  0  0  0  0  0  0  0  0  0  0  0
    3.1099   -3.5511   -1.7850 H   0  0  0  0  0  0  0  0  0  0  0  0
   -0.7812   -2.1003   -4.0394 H   0  0  0  0  0  0  0  0  0  0  0  0
   -0.8043   -4.0750   -5.6514 H   0  0  0  0  0  0  0  0  0  0  0  0
    2.6475   -6.7626   -4.1159 H   0  0  0  0  0  0  0  0  0  0  0  0
    2.3820   -8.1378   -5.2088 H   0  0  0  0  0  0  0  0  0  0  0  0
    2.3387   -8.8991   -2.8247 H   0  0  0  0  0  0  0  0  0  0  0  0
    0.7565   -9.1251   -3.5848 H   0  0  0  0  0  0  0  0  0  0  0  0
    1.0237   -7.7698   -2.4806 H   0  0  0  0  0  0  0  0  0  0  0  0
    2.0958   -0.6155    3.1552 H   0  0  0  0  0  0  0  0  0  0  0  0
    2.2079    1.3470    4.7667 H   0  0  0  0  0  0  0  0  0  0  0  0
   -1.2013    4.2394    3.3045 H   0  0  0  0  0  0  0  0  0  0  0  0
    0.0761    5.1115    2.4128 H   0  0  0  0  0  0  0  0  0  0  0  0
    0.1386    6.8397    4.2250 H   0  0  0  0  0  0  0  0  0  0  0  0
   -1.1230    5.9705    5.1032 H   0  0  0  0  0  0  0  0  0  0  0  0
   -1.4876    6.7108    3.5378 H   0  0  0  0  0  0  0  0  0  0  0  0
   -1.7586    1.0053    0.8000 H   0  0  0  0  0  0  0  0  0  0  0  0
   -6.8273   -1.8530   -2.2979 H   0  0  0  0  0  0  0  0  0  0  0  0
   -6.3523   -0.8792   -3.7146 H   0  0  0  0  0  0  0  0  0  0  0  0
   -5.6528   -2.5001   -3.4716 H   0  0  0  0  0  0  0  0  0  0  0  0
   -7.4363    3.8589   -4.2430 H   0  0  0  0  0  0  0  0  0  0  0  0
   -7.1097    2.2794   -3.5010 H   0  0  0  0  0  0  0  0  0  0  0  0
   -6.1007    3.6875   -3.0720 H   0  0  0  0  0  0  0  0  0  0  0  0
   -9.9639    6.4791    1.5019 H   0  0  0  0  0  0  0  0  0  0  0  0
  -12.6631    9.6194    3.8886 H   0  0  0  0  0  0  0  0  0  0  0  0
  -14.4125    9.8017    2.0491 H   0  0  0  0  0  0  0  0  0  0  0  0
  -13.5807    7.9736   -2.8453 H   0  0  0  0  0  0  0  0  0  0  0  0
  -12.3428    7.5431   -1.6359 H   0  0  0  0  0  0  0  0  0  0  0  0
  -12.6006   10.2703   -3.0237 H   0  0  0  0  0  0  0  0  0  0  0  0
  -11.3848    9.0357   -3.3950 H   0  0  0  0  0  0  0  0  0  0  0  0
  -11.3703    9.8390   -1.8250 H   0  0  0  0  0  0  0  0  0  0  0  0
   -4.8533    8.3792    3.7501 H   0  0  0  0  0  0  0  0  0  0  0  0
   -2.8788    8.1886    5.3658 H   0  0  0  0  0  0  0  0  0  0  0  0
   -3.2912    8.8768   10.5692 H   0  0  0  0  0  0  0  0  0  0  0  0
   -4.8750    8.7333    9.7692 H   0  0  0  0  0  0  0  0  0  0  0  0
   -2.8649   11.0217    9.3697 H   0  0  0  0  0  0  0  0  0  0  0  0
   -4.4234   10.8863    8.5465 H   0  0  0  0  0  0  0  0  0  0  0  0
   -4.3691   11.1335   10.2956 H   0  0  0  0  0  0  0  0  0  0  0  0
   -7.5723   10.8654    6.6146 H   0  0  0  0  0  0  0  0  0  0  0  0
   -9.7361   12.3021    6.6236 H   0  0  0  0  0  0  0  0  0  0  0  0
  1  2  2  0  0  0  0
  2  3  1  0  0  0  0
  3  4  2  0  0  0  0
  4  5  1  0  0  0  0
  5  6  2  0  0  0  0
  6  7  1  0  0  0  0
  7  8  2  0  0  0  0
  8  9  1  0  0  0  0
  9 10  1  0  0  0  0
 10 11  1  0  0  0  0
  8 12  1  0  0  0  0
  4 13  1  0  0  0  0
 13 14  2  0  0  0  0
 14 15  1  0  0  0  0
 15 16  1  0  0  0  0
 16 17  2  0  0  0  0
 17 18  1  0  0  0  0
 18 19  2  0  0  0  0
 19 20  1  0  0  0  0
 20 21  1  0  0  0  0
 21 22  1  0  0  0  0
 19 23  1  0  0  0  0
 15 24  2  0  0  0  0
 24 25  1  0  0  0  0
 14 26  1  0  0  0  0
 26 27  2  0  0  0  0
 27 28  1  0  0  0  0
 27 29  1  0  0  0  0
 29 30  1  0  0  0  0
 30 31  1  0  0  0  0
 31 32  2  0  0  0  0
 32 33  1  0  0  0  0
 33 34  1  0  0  0  0
 34 35  1  0  0  0  0
 32 36  1  0  0  0  0
 36 37  3  0  0  0  0
 31 38  1  0  0  0  0
 38 39  2  0  0  0  0
 39 40  1  0  0  0  0
 40 41  2  0  0  0  0
 41 42  1  0  0  0  0
 42 43  2  0  0  0  0
 43 44  1  0  0  0  0
 44 45  2  0  0  0  0
 45 46  1  0  0  0  0
 46 47  1  0  0  0  0
 47 48  1  0  0  0  0
 45 49  1  0  0  0  0
 41 50  1  0  0  0  0
 50 51  2  0  0  0  0
 51 52  1  0  0  0  0
 52 53  1  0  0  0  0
 53 54  2  0  0  0  0
 54 55  1  0  0  0  0
 55 56  2  0  0  0  0
 56 57  1  0  0  0  0
 57 58  1  0  0  0  0
 58 59  1  0  0  0  0
 56 60  1  0  0  0  0
 52 61  2  0  0  0  0
 61 62  1  0  0  0  0
 51 63  1  0  0  0  0
 63 64  2  0  0  0  0
 64 65  1  0  0  0  0
 64 66  1  0  0  0  0
 66 67  1  0  0  0  0
 67 68  1  0  0  0  0
 68 69  2  0  0  0  0
 69 70  1  0  0  0  0
 70 71  1  0  0  0  0
 71 72  1  0  0  0  0
 69 73  1  0  0  0  0
 73 74  3  0  0  0  0
 68 75  1  0  0  0  0
 75 76  1  0  0  0  0
 76 77  1  0  0  0  0
 77 78  2  0  0  0  0
 78 79  1  0  0  0  0
 79 80  1  0  0  0  0
 80 81  1  0  0  0  0
 78 82  1  0  0  0  0
 82 83  3  0  0  0  0
 77 84  1  0  0  0  0
 84 85  2  0  0  0  0
 85 86  1  0  0  0  0
 86 87  2  0  0  0  0
 87 88  1  0  0  0  0
 88 89  2  0  0  0  0
 89 90  1  0  0  0  0
 90 91  2  0  0  0  0
 91 92  1  0  0  0  0
 92 93  1  0  0  0  0
 93 94  1  0  0  0  0
 91 95  1  0  0  0  0
 87 96  1  0  0  0  0
 96 97  2  0  0  0  0
 97 98  1  0  0  0  0
 98 99  1  0  0  0  0
 99100  2  0  0  0  0
100101  1  0  0  0  0
101102  2  0  0  0  0
102103  1  0  0  0  0
103104  1  0  0  0  0
104105  1  0  0  0  0
102106  1  0  0  0  0
 98107  2  0  0  0  0
107108  1  0  0  0  0
 97109  1  0  0  0  0
109110  2  0  0  0  0
110111  1  0  0  0  0
 25  1  1  0  0  0  0
 33 29  2  0  0  0  0
 62 38  1  0  0  0  0
 70 66  2  0  0  0  0
 79 75  2  0  0  0  0
108 84  1  0  0  0  0
 24  3  1  0  0  0  0
 61 40  1  0  0  0  0
107 86  1  0  0  0  0
 12  5  1  0  0  0  0
 28 13  1  0  0  0  0
 49 42  1  0  0  0  0
 65 50  1  0  0  0  0
 95 88  1  0  0  0  0
111 96  1  0  0  0  0
 23 16  1  0  0  0  0
 60 53  1  0  0  0  0
106 99  1  0  0  0  0
  1112  1  0  0  0  0
  2113  1  0  0  0  0
  6114  1  0  0  0  0
  7115  1  0  0  0  0
 10116  1  0  0  0  0
 10117  1  0  0  0  0
 11118  1  0  0  0  0
 11119  1  0  0  0  0
 11120  1  0  0  0  0
 17121  1  0  0  0  0
 18122  1  0  0  0  0
 21123  1  0  0  0  0
 21124  1  0  0  0  0
 22125  1  0  0  0  0
 22126  1  0  0  0  0
 22127  1  0  0  0  0
 26128  1  0  0  0  0
 35129  1  0  0  0  0
 35130  1  0  0  0  0
 35131  1  0  0  0  0
 39132  1  0  0  0  0
 43133  1  0  0  0  0
 44134  1  0  0  0  0
 47135  1  0  0  0  0
 47136  1  0  0  0  0
 48137  1  0  0  0  0
 48138  1  0  0  0  0
 48139  1  0  0  0  0
 54140  1  0  0  0  0
 55141  1  0  0  0  0
 58142  1  0  0  0  0
 58143  1  0  0  0  0
 59144  1  0  0  0  0
 59145  1  0  0  0  0
 59146  1  0  0  0  0
 63147  1  0  0  0  0
 72148  1  0  0  0  0
 72149  1  0  0  0  0
 72150  1  0  0  0  0
 81151  1  0  0  0  0
 81152  1  0  0  0  0
 81153  1  0  0  0  0
 85154  1  0  0  0  0
 89155  1  0  0  0  0
 90156  1  0  0  0  0
 93157  1  0  0  0  0
 93158  1  0  0  0  0
 94159  1  0  0  0  0
 94160  1  0  0  0  0
 94161  1  0  0  0  0
100162  1  0  0  0  0
101163  1  0  0  0  0
104164  1  0  0  0  0
104165  1  0  0  0  0
105166  1  0  0  0  0
105167  1  0  0  0  0
105168  1  0  0  0  0
109169  1  0  0  0  0
110170  1  0  0  0  0
M  END
