290

C          4.32610      -10.31780       10.62290
C          4.41450       -9.07050       10.11890
C          3.97180       -8.98590        8.76490
C          3.96290       -7.86290        7.92410
C          4.34520       -6.53180        8.41190
C          3.76680       -6.00230        9.56470
C          4.11920       -4.74820       10.01400
C          5.05320       -3.96830        9.33360
S          5.38140       -2.35720        9.98600
C          7.17800       -2.11710        9.72660
C          7.99860       -3.19940       10.39850
C          5.60020       -4.49810        8.16920
F          6.48660       -3.79110        7.43430
C          5.26820       -5.75910        7.71630
C          3.54660       -8.06780        6.61680
C          3.12020       -9.32730        6.12830
C          3.13120      -10.45150        6.96850
C          2.73710      -11.77580        6.47460
C          3.29620      -12.29650        5.30750
C          2.92480      -13.53930        4.84470
C          1.98460      -14.31660        5.52190
S          1.61970      -15.90290        4.84340
C         -0.13580      -16.19510        5.30430
C         -0.73640      -17.18630        4.32710
C          1.45600      -13.79540        6.69920
C          1.81270      -12.54770        7.16940
F          0.56650      -14.50110        7.43430
C          3.55360      -10.24620        8.27470
S          3.70280      -11.47840        9.50160
C          2.66820       -9.24740        4.78570
C          2.75810       -7.99760        4.25240
S          3.41070       -6.83340        5.39050
C          2.38650       -7.58270        2.93950
C          2.52740       -6.34880        2.38000
C          2.05070       -6.27260        1.04670
C          1.99620       -5.14430        0.21500
C          2.39790       -3.80900        0.67930
C          3.66940       -3.52550        1.17240
C          3.97940       -2.25680        1.61120
C          3.04270       -1.21870        1.59660
S          3.62180        0.34060        2.17200
C          2.12190        1.33550        2.53130
C          2.55310        2.62960        3.19210
C          1.77790       -1.51990        1.09950
F          0.78990       -0.59820        1.04710
C          1.46010       -2.78340        0.64460
C          1.44560       -5.32870       -1.04330
C          0.88080       -6.55240       -1.47460
C          0.88080       -7.66680       -0.61940
C          0.16630       -8.89300       -0.99020
C         -1.14990       -8.81140       -1.43890
C         -1.85970       -9.94060       -1.79360
C         -1.27360      -11.19930       -1.72130
S         -2.06020      -12.71520       -2.14870
C         -3.61210      -12.20130       -2.96430
C         -3.38170      -11.61830       -4.34550
C          0.03900      -11.26850       -1.24870
C          0.75500      -10.15020       -0.88320
F          0.63360      -12.47420       -1.15070
C          1.51190       -7.50840        0.60520
S          1.64220       -8.73110        1.84190
C          0.35170       -6.45640       -2.78850
C          0.50550       -5.22460       -3.34530
S          1.33720       -4.10650       -2.28040
C         -0.05290       -4.73100       -4.56760
C         -1.26060       -5.06760       -5.10090
C         -1.68200       -4.20360       -6.14450
C         -2.96440       -4.17060       -6.73930
C         -3.88300       -5.27730       -6.60280
C         -5.24820       -5.26150       -6.52900
C         -5.88210       -6.52010       -6.54290
C         -5.04820       -7.59160       -6.66560
S         -5.57380       -9.26360       -6.67150
C         -4.77960       -9.87270       -8.21230
C         -3.37400      -10.38740       -7.98330
Se        -3.24290       -7.05050       -6.70430
C         -3.26240       -3.00430       -7.44190
C         -2.27240       -2.05150       -7.77730
C         -0.93930       -2.16650       -7.32400
C          0.08790       -1.22250       -7.69630
C          1.12600       -0.76250       -6.92940
C          2.01720        0.12930       -7.54860
C          1.73760        0.41640       -8.85480
S          2.70890        1.48680       -9.83530
C          1.53160        2.00730      -11.13730
C          1.52590        1.06230      -12.32120
Se         0.21540       -0.51320       -9.44460
C         -0.72070       -3.20200       -6.41610
S          0.68690       -3.39200       -5.40660
C         -2.83420       -0.89950       -8.36860
C         -4.19940       -0.89310       -8.40800
S         -4.85710       -2.43190       -7.89240
C         -4.91590        0.34850       -8.39780
C         -5.90960        0.72300       -7.53840
C         -5.82980        2.09340       -7.15220
C         -6.41750        2.71670       -6.03700
C         -7.50850        2.10570       -5.26210
C         -7.39100        0.84310       -4.69240
C         -8.41990        0.29490       -3.94930
C         -9.60480        0.99440       -3.75110
S        -10.99400        0.41650       -2.84130
C        -10.45820       -1.22910       -2.24030
C        -11.57660       -1.82750       -1.40790
C         -9.70180        2.26830       -4.31660
F        -10.83420        2.97580       -4.13720
C         -8.68190        2.82720       -5.05160
C         -5.81850        3.88750       -5.58520
C         -4.69800        4.47380       -6.21810
C         -4.19770        3.93200       -7.40540
C         -2.90700        4.36920       -7.97110
C         -2.73080        5.54150       -8.69430
C         -1.48480        5.86970       -9.19280
C         -0.37760        5.04720       -8.99160
S          1.15370        5.53990       -9.72860
C          2.42840        5.05510       -8.50500
C          2.17920        5.67490       -7.14540
C         -0.57620        3.87490       -8.26910
C         -1.81020        3.54200       -7.75470
F          0.43370        3.00710       -8.04450
C         -4.77680        2.75520       -7.83390
S         -4.04980        1.73790       -9.04720
C         -4.01180        5.37720       -5.36700
C         -4.55590        5.47380       -4.12630
S         -6.06340        4.57940       -3.99300
C         -3.79190        5.91720       -2.98370
C         -2.56750        5.37690       -2.73860
C         -1.93000        5.88740       -1.58060
C         -0.68240        5.50900       -1.05480
C          0.12310        4.46560       -1.70340
C          0.37870        4.47570       -3.07620
C          1.04080        3.42850       -3.67840
C          1.50070        2.33200       -2.94460
S          2.28220        1.04770       -3.86870
C          2.18450       -0.48380       -2.86090
C          3.46380       -0.77210       -2.10170
C          1.31160        2.37830       -1.56770
F          1.79340        1.40480       -0.76730
C          0.62380        3.40670       -0.95480
C         -0.29690        6.13980        0.11820
C         -1.08120        7.13980        0.74560
C         -2.32560        7.51880        0.21300
C         -3.11530        8.57560        0.85590
C         -2.52670        9.79790        1.18230
C         -3.24430       10.76860        1.84420
C         -4.57950       10.57280        2.19620
S         -5.37750       11.90770        3.03760
C         -6.57560       11.11330        4.17050
C         -5.90870       10.15050        5.13180
C         -5.17030        9.37370        1.81000
C         -4.45640        8.38260        1.16560
F         -6.47400        9.12750        2.06510
C         -2.73660        6.85460       -0.93320
S         -4.24780        7.09840       -1.78280
C         -0.46080        7.63270        1.92030
C          0.75620        7.07670        2.17630
S          1.19750        5.87110        0.98380
C          1.63010        7.41930        3.24830
C          2.86410        6.92860        3.54790
C          3.47600        7.56610        4.65890
C          4.74700        7.31720        5.21690
C          5.54940        6.20030        4.77910
C          5.10000        4.95320        4.43800
C          6.07670        4.03440        4.01250
C          7.35290        4.52310        3.98390
S          8.71970        3.60490        3.39780
C         10.12560        4.61550        3.97990
C         10.35020        4.48170        5.47240
Se         7.41720        6.31900        4.55750
C          5.16680        8.21100        6.20070
C          4.37050        9.26730        6.69670
C          3.05710        9.44720        6.21740
C          2.17410       10.45310        6.76340
C          2.06680       10.84460        8.06990
C          1.13030       11.86050        8.34060
C          0.45710       12.33270        7.24970
S         -0.68330       13.65620        7.31570
C         -1.55470       13.48280        5.71830
C         -2.50990       12.30740        5.70690
Se         0.99310       11.44440        5.67550
C          2.66860        8.60280        5.18120
S          1.14150        8.69470        4.35000
C          5.08410       10.05880        7.64470
C          6.33150        9.60510        7.87890
S          6.72820        8.18450        6.97510
H          4.59190      -10.65040       11.60740
H          4.79610       -8.22960       10.66900
H          3.02530       -6.57500       10.10060
H          3.67080       -4.34160       10.90730
H          7.37790       -2.05520        8.65930
H          7.36490       -1.14360       10.18000
H          7.75780       -3.25940       11.45790
H          9.05790       -2.97450       10.29220
H          7.80720       -4.17000        9.94470
H          5.74050       -6.12670        6.81860
H          4.03860      -11.72590        4.77080
H          3.35810      -13.93760        3.94040
H         -0.16620      -16.57720        6.32350
H         -0.64580      -15.23450        5.25330
H         -0.68670      -16.79970        3.31170
H         -1.77820      -17.36780        4.58300
H         -0.19880      -18.13110        4.36310
H          1.35470      -12.18860        8.07770
H          2.27140      -10.08440        4.23920
H          2.95220       -5.51390        2.90840
H          4.42000       -4.30070        1.19680
H          4.96750       -2.03860        1.98610
H          1.61120        1.53060        1.59350
H          1.48490        0.74530        3.18900
H          3.08510        2.42380        4.11870
H          1.67890        3.23870        3.41550
H          3.20810        3.19080        2.52840
H          0.45970       -2.95900        0.27980
H         -1.63590       -7.84840       -1.48650
H         -2.88040       -9.82870       -2.12050
H         -4.14180      -11.51600       -2.30400
H         -4.18260      -13.12790       -3.02810
H         -2.89660      -12.35490       -4.98220
H         -2.74790      -10.73500       -4.30140
H         -4.33470      -11.33640       -4.78990
H          1.77100      -10.26570       -0.54040
H         -0.10080       -7.28010       -3.31000
H         -1.88080       -5.83450       -4.66890
H         -5.81040       -4.34730       -6.44670
H         -6.95080       -6.63500       -6.48290
H         -4.79900       -9.04490       -8.92070
H         -5.43690      -10.66600       -8.56610
H         -2.93910      -10.70370       -8.92920
H         -2.74030       -9.60610       -7.55840
H         -3.38290      -11.23210       -7.29970
H          1.22300       -1.00090       -5.88540
H          2.84250        0.57750       -7.02410
H          0.54700        2.07490      -10.66970
H          1.85940        3.00480      -11.42960
H          0.83500        1.42630      -13.07880
H          2.51990        0.99170      -12.75640
H          1.20860        0.06360      -12.01670
H         -2.25780       -0.02310       -8.60810
H         -6.57520        0.01420       -7.08030
H         -6.47050        0.28980       -4.80210
H         -8.28650       -0.68470       -3.52050
H        -10.24310       -1.85270       -3.10830
H         -9.55810       -1.09160       -1.64090
H        -12.47860       -1.93750       -2.00520
H        -11.27970       -2.80690       -1.03880
H        -11.80260       -1.18740       -0.55840
H         -8.80920        3.81480       -5.46640
H         -3.57140        6.19540       -8.86810
H         -1.34650        6.77880       -9.75690
H          3.34880        5.43600       -8.94740
H          2.48470        3.96960       -8.45810
H          2.99120        5.41120       -6.47080
H          1.24690        5.31170       -6.71630
H          2.12410        6.75910       -7.22120
H         -1.90560        2.62800       -7.18830
H         -3.09540        5.86420       -5.64940
H         -2.15110        4.59870       -3.35180
H          0.05910        5.31770       -3.67170
H          1.21240        3.42880       -4.74410
H          1.99510       -1.26980       -3.59340
H          1.32160       -0.40540       -2.20480
H          3.37460       -1.73350       -1.59890
H          3.65920       -0.00910       -1.35350
H          4.30770       -0.81270       -2.78640
H          0.46890        3.35690        0.11180
H         -1.50080        9.98760        0.90670
H         -2.77880       11.70660        2.10510
H         -7.00860       11.96140        4.70140
H         -7.35210       10.63060        3.58140
H         -5.12210       10.65040        5.69270
H         -5.47120        9.30850        4.59950
H         -6.64810        9.76540        5.83080
H         -4.95990        7.46020        0.92140
H         -0.90250        8.37070        2.56540
H          3.33930        6.16510        2.95850
H          4.06590        4.67490        4.54880
H          5.84530        3.02110        3.73240
H          9.92080        5.65120        3.69090
H         10.98240        4.24930        3.41510
H          9.47870        4.83320        6.02500
H         10.53290        3.44280        5.73650
H         11.20970        5.07790        5.77100
H          2.61910       10.36070        8.85810
H          0.94670       12.23490        9.33280
H         -2.08650       14.42530        5.59240
H         -0.78930       13.39400        4.94070
H         -3.06130       12.29020        4.76900
H         -3.21680       12.39260        6.52940
H         -1.96590       11.36780        5.80910
H          4.68370       10.94740        8.09660
H          7.07240       10.01650        8.53580
