
  xtb     03072223463D
 energy: -303.062001205824 gnorm: 0.000334210427 xtb: 6.4.1 (unknown)
202219  0     0  0            999 V2000
   -0.2716    3.9058    5.4132 C   0  0  0  0  0  0  0  0  0  0  0  0
    0.9350    3.3818    5.1216 C   0  0  0  0  0  0  0  0  0  0  0  0
    0.9006    1.9673    4.9463 C   0  0  0  0  0  0  0  0  0  0  0  0
    1.9614    1.0999    4.6430 C   0  0  0  0  0  0  0  0  0  0  0  0
    3.3207    1.5445    4.4035 C   0  0  0  0  0  0  0  0  0  0  0  0
    4.4560    0.9777    4.9058 C   0  0  0  0  0  0  0  0  0  0  0  0
    5.6713    1.5667    4.5004 C   0  0  0  0  0  0  0  0  0  0  0  0
    5.5448    2.6134    3.6379 C   0  0  0  0  0  0  0  0  0  0  0  0
    6.8980    3.4743    2.9287 S   0  0  0  0  0  0  0  0  0  0  0  0
    6.2567    5.1849    2.9804 C   0  0  0  0  0  0  0  0  0  0  0  0
    6.1100    5.6858    4.4019 C   0  0  0  0  0  0  0  0  0  0  0  0
    3.7303    2.9287    3.2009 Se  0  0  0  0  0  2  0  0  0  0  0  0
    1.6431   -0.2483    4.5333 C   0  0  0  0  0  0  0  0  0  0  0  0
    0.3381   -0.7678    4.6833 C   0  0  0  0  0  0  0  0  0  0  0  0
   -0.7201    0.0996    5.0214 C   0  0  0  0  0  0  0  0  0  0  0  0
   -2.0667   -0.3978    5.1892 C   0  0  0  0  0  0  0  0  0  0  0  0
   -2.4483   -1.5635    5.7926 C   0  0  0  0  0  0  0  0  0  0  0  0
   -3.8304   -1.8358    5.7930 C   0  0  0  0  0  0  0  0  0  0  0  0
   -4.6025   -0.8968    5.1741 C   0  0  0  0  0  0  0  0  0  0  0  0
   -6.3292   -1.0508    4.9489 S   0  0  0  0  0  0  0  0  0  0  0  0
   -6.8356    0.7046    4.9311 C   0  0  0  0  0  0  0  0  0  0  0  0
   -6.6398    1.3693    6.2774 C   0  0  0  0  0  0  0  0  0  0  0  0
   -3.5557    0.5138    4.4797 Se  0  0  0  0  0  2  0  0  0  0  0  0
   -0.4003    1.4499    5.1323 C   0  0  0  0  0  0  0  0  0  0  0  0
   -1.5296    2.7217    5.5079 S   0  0  0  0  0  0  0  0  0  0  0  0
    0.2783   -2.1404    4.3277 C   0  0  0  0  0  0  0  0  0  0  0  0
    1.4741   -2.6681    3.9395 C   0  0  0  0  0  0  0  0  0  0  0  0
    2.7641   -1.4833    4.0430 S   0  0  0  0  0  0  0  0  0  0  0  0
    1.7101   -3.9542    3.3638 C   0  0  0  0  0  0  0  0  0  0  0  0
    0.3573   -4.8913    2.7746 S   0  0  0  0  0  0  0  0  0  0  0  0
    1.4236   -6.0323    2.0550 C   0  0  0  0  0  0  0  0  0  0  0  0
    2.7339   -5.7342    2.2634 C   0  0  0  0  0  0  0  0  0  0  0  0
    2.9034   -4.5603    3.0475 C   0  0  0  0  0  0  0  0  0  0  0  0
    4.2493   -4.0670    3.4750 C   0  0  0  0  0  0  0  0  0  0  0  0
    5.3549   -5.0338    3.0508 C   0  0  0  0  0  0  0  0  0  0  0  0
    6.7279   -4.4228    3.3095 C   0  0  0  0  0  0  0  0  0  0  0  0
    5.0504   -5.4241    1.5864 C   0  0  0  0  0  0  0  0  0  0  0  0
    3.9048   -6.4419    1.6473 C   0  0  0  0  0  0  0  0  0  0  0  0
    6.2606   -5.8341    0.7873 C   0  0  0  0  0  0  0  0  0  0  0  0
    6.6863   -7.0980    0.7166 C   0  0  0  0  0  0  0  0  0  0  0  0
    6.9729   -4.7812    0.0837 C   0  0  0  0  0  0  0  0  0  0  0  0
    6.6983   -3.4681    0.1657 C   0  0  0  0  0  0  0  0  0  0  0  0
    7.3817   -2.3968   -0.4829 C   0  0  0  0  0  0  0  0  0  0  0  0
    8.5552   -2.6445   -1.7553 S   0  0  0  0  0  0  0  0  0  0  0  0
    8.7714   -0.9453   -1.9447 C   0  0  0  0  0  0  0  0  0  0  0  0
    8.0113   -0.2330   -1.0740 C   0  0  0  0  0  0  0  0  0  0  0  0
    7.2165   -1.0539   -0.2377 C   0  0  0  0  0  0  0  0  0  0  0  0
    6.4155   -0.3840    0.8267 C   0  0  0  0  0  0  0  0  0  0  0  0
    5.6804    0.8883    0.3390 C   0  0  0  0  0  0  0  0  0  0  0  0
    4.2030    0.5781    0.1122 C   0  0  0  0  0  0  0  0  0  0  0  0
    6.3096    1.5025   -0.9239 C   0  0  0  0  0  0  0  0  0  0  0  0
    7.8317    1.2412   -0.9637 C   0  0  0  0  0  0  0  0  0  0  0  0
    6.0561    2.9835   -1.1090 C   0  0  0  0  0  0  0  0  0  0  0  0
    5.3922    3.7837   -0.2876 C   0  0  0  0  0  0  0  0  0  0  0  0
    6.6642    3.5431   -2.3363 C   0  0  0  0  0  0  0  0  0  0  0  0
    6.2690    3.3098   -3.5920 C   0  0  0  0  0  0  0  0  0  0  0  0
    5.1030    2.5616   -3.9806 C   0  0  0  0  0  0  0  0  0  0  0  0
    3.9984    2.2614   -3.2464 C   0  0  0  0  0  0  0  0  0  0  0  0
    3.0079    1.5418   -3.9591 C   0  0  0  0  0  0  0  0  0  0  0  0
    1.7752    1.0630   -3.4770 C   0  0  0  0  0  0  0  0  0  0  0  0
    1.3331    1.3082   -2.1204 C   0  0  0  0  0  0  0  0  0  0  0  0
    1.4259    2.4629   -1.3960 C   0  0  0  0  0  0  0  0  0  0  0  0
    0.9135    2.4122   -0.0827 C   0  0  0  0  0  0  0  0  0  0  0  0
    0.3992    1.2041    0.2878 C   0  0  0  0  0  0  0  0  0  0  0  0
   -0.2339    0.8536    1.8796 S   0  0  0  0  0  0  0  0  0  0  0  0
   -1.3259   -0.5665    1.5219 C   0  0  0  0  0  0  0  0  0  0  0  0
   -2.5659   -0.1562    0.7574 C   0  0  0  0  0  0  0  0  0  0  0  0
    0.5562   -0.0673   -1.0929 Se  0  0  0  0  0  2  0  0  0  0  0  0
    1.0068    0.3373   -4.3798 C   0  0  0  0  0  0  0  0  0  0  0  0
    1.3885    0.0761   -5.7158 C   0  0  0  0  0  0  0  0  0  0  0  0
    2.6384    0.5318   -6.1892 C   0  0  0  0  0  0  0  0  0  0  0  0
    3.0964    0.2270   -7.5253 C   0  0  0  0  0  0  0  0  0  0  0  0
    2.9169   -0.9353   -8.2238 C   0  0  0  0  0  0  0  0  0  0  0  0
    3.4318   -0.9586   -9.5340 C   0  0  0  0  0  0  0  0  0  0  0  0
    4.0436    0.1943   -9.9354 C   0  0  0  0  0  0  0  0  0  0  0  0
    4.8281    0.3786  -11.4883 S   0  0  0  0  0  0  0  0  0  0  0  0
    5.0547    2.1889  -11.5763 C   0  0  0  0  0  0  0  0  0  0  0  0
    3.7539    2.9178  -11.8445 C   0  0  0  0  0  0  0  0  0  0  0  0
    4.0490    1.4835   -8.5594 Se  0  0  0  0  0  2  0  0  0  0  0  0
    3.3998    1.2772   -5.2921 C   0  0  0  0  0  0  0  0  0  0  0  0
    4.9697    1.9592   -5.6239 S   0  0  0  0  0  0  0  0  0  0  0  0
    0.3673   -0.6050   -6.4248 C   0  0  0  0  0  0  0  0  0  0  0  0
   -0.7446   -0.8759   -5.6821 C   0  0  0  0  0  0  0  0  0  0  0  0
   -0.5788   -0.2917   -4.0370 S   0  0  0  0  0  0  0  0  0  0  0  0
   -1.9184   -1.5663   -6.1088 C   0  0  0  0  0  0  0  0  0  0  0  0
   -1.8902   -2.4201   -7.6330 S   0  0  0  0  0  0  0  0  0  0  0  0
   -3.5081   -2.9488   -7.4018 C   0  0  0  0  0  0  0  0  0  0  0  0
   -4.0452   -2.4971   -6.2364 C   0  0  0  0  0  0  0  0  0  0  0  0
   -3.1406   -1.7016   -5.4903 C   0  0  0  0  0  0  0  0  0  0  0  0
   -3.5179   -1.1087   -4.1740 C   0  0  0  0  0  0  0  0  0  0  0  0
   -5.0254   -1.1629   -3.9017 C   0  0  0  0  0  0  0  0  0  0  0  0
   -5.2695   -0.7773   -2.4465 C   0  0  0  0  0  0  0  0  0  0  0  0
   -5.5609   -2.5640   -4.2577 C   0  0  0  0  0  0  0  0  0  0  0  0
   -5.4428   -2.7538   -5.7737 C   0  0  0  0  0  0  0  0  0  0  0  0
   -6.9714   -2.7938   -3.7549 C   0  0  0  0  0  0  0  0  0  0  0  0
   -8.0634   -2.6250   -4.4934 C   0  0  0  0  0  0  0  0  0  0  0  0
   -7.0634   -3.3400   -2.3983 C   0  0  0  0  0  0  0  0  0  0  0  0
   -7.8071   -2.9219   -1.3636 C   0  0  0  0  0  0  0  0  0  0  0  0
   -8.6373   -1.7585   -1.2179 C   0  0  0  0  0  0  0  0  0  0  0  0
   -9.0246   -0.6524   -2.5113 S   0  0  0  0  0  0  0  0  0  0  0  0
   -9.9022    0.3612   -1.4395 C   0  0  0  0  0  0  0  0  0  0  0  0
   -9.9092   -0.1090   -0.1632 C   0  0  0  0  0  0  0  0  0  0  0  0
   -9.1858   -1.3197   -0.0301 C   0  0  0  0  0  0  0  0  0  0  0  0
   -9.0813   -2.0257    1.2861 C   0  0  0  0  0  0  0  0  0  0  0  0
   -9.4599   -1.1255    2.4659 C   0  0  0  0  0  0  0  0  0  0  0  0
   -9.5638   -1.9685    3.7336 C   0  0  0  0  0  0  0  0  0  0  0  0
  -10.7769   -0.3898    2.1626 C   0  0  0  0  0  0  0  0  0  0  0  0
  -10.5653    0.5772    0.9917 C   0  0  0  0  0  0  0  0  0  0  0  0
  -11.3019    0.3481    3.3726 C   0  0  0  0  0  0  0  0  0  0  0  0
  -10.6446    1.3894    3.8875 C   0  0  0  0  0  0  0  0  0  0  0  0
  -12.5428   -0.0773    4.0094 C   0  0  0  0  0  0  0  0  0  0  0  0
  -13.2872   -1.1381    3.7202 C   0  0  0  0  0  0  0  0  0  0  0  0
   -0.5222    4.9331    5.5919 H   0  0  0  0  0  0  0  0  0  0  0  0
    1.8322    3.9717    5.0422 H   0  0  0  0  0  0  0  0  0  0  0  0
    4.4239    0.1708    5.6186 H   0  0  0  0  0  0  0  0  0  0  0  0
    6.6298    1.2341    4.8600 H   0  0  0  0  0  0  0  0  0  0  0  0
    5.2994    5.1863    2.4517 H   0  0  0  0  0  0  0  0  0  0  0  0
    6.9808    5.7722    2.4176 H   0  0  0  0  0  0  0  0  0  0  0  0
    7.0662    5.6511    4.9191 H   0  0  0  0  0  0  0  0  0  0  0  0
    5.3980    5.0688    4.9499 H   0  0  0  0  0  0  0  0  0  0  0  0
    5.7488    6.7121    4.3993 H   0  0  0  0  0  0  0  0  0  0  0  0
   -1.7420   -2.2031    6.2951 H   0  0  0  0  0  0  0  0  0  0  0  0
   -4.2535   -2.7088    6.2593 H   0  0  0  0  0  0  0  0  0  0  0  0
   -6.2550    1.1992    4.1458 H   0  0  0  0  0  0  0  0  0  0  0  0
   -7.8877    0.6829    4.6506 H   0  0  0  0  0  0  0  0  0  0  0  0
   -6.9898    2.3986    6.2351 H   0  0  0  0  0  0  0  0  0  0  0  0
   -7.1980    0.8394    7.0459 H   0  0  0  0  0  0  0  0  0  0  0  0
   -5.5857    1.3757    6.5542 H   0  0  0  0  0  0  0  0  0  0  0  0
   -0.6305   -2.7152    4.3062 H   0  0  0  0  0  0  0  0  0  0  0  0
    1.0117   -6.8542    1.5035 H   0  0  0  0  0  0  0  0  0  0  0  0
    4.4433   -3.0916    3.0160 H   0  0  0  0  0  0  0  0  0  0  0  0
    4.2599   -3.9138    4.5578 H   0  0  0  0  0  0  0  0  0  0  0  0
    5.2867   -5.9433    3.6582 H   0  0  0  0  0  0  0  0  0  0  0  0
    6.8500   -3.4714    2.8000 H   0  0  0  0  0  0  0  0  0  0  0  0
    7.5146   -5.0937    2.9740 H   0  0  0  0  0  0  0  0  0  0  0  0
    6.8527   -4.2538    4.3776 H   0  0  0  0  0  0  0  0  0  0  0  0
    4.6280   -4.5484    1.0851 H   0  0  0  0  0  0  0  0  0  0  0  0
    4.1824   -7.3132    2.2456 H   0  0  0  0  0  0  0  0  0  0  0  0
    3.6400   -6.7934    0.6478 H   0  0  0  0  0  0  0  0  0  0  0  0
    6.1920   -7.9039    1.2292 H   0  0  0  0  0  0  0  0  0  0  0  0
    7.5553   -7.3647    0.1389 H   0  0  0  0  0  0  0  0  0  0  0  0
    7.8025   -5.1013   -0.5339 H   0  0  0  0  0  0  0  0  0  0  0  0
    5.8840   -3.1201    0.7849 H   0  0  0  0  0  0  0  0  0  0  0  0
    9.4516   -0.5845   -2.6906 H   0  0  0  0  0  0  0  0  0  0  0  0
    7.1141   -0.0970    1.6208 H   0  0  0  0  0  0  0  0  0  0  0  0
    5.6904   -1.0651    1.2728 H   0  0  0  0  0  0  0  0  0  0  0  0
    5.7576    1.6180    1.1483 H   0  0  0  0  0  0  0  0  0  0  0  0
    3.7457    0.2058    1.0287 H   0  0  0  0  0  0  0  0  0  0  0  0
    3.6618    1.4718   -0.1879 H   0  0  0  0  0  0  0  0  0  0  0  0
    4.0820   -0.1752   -0.6655 H   0  0  0  0  0  0  0  0  0  0  0  0
    5.8865    0.9956   -1.8011 H   0  0  0  0  0  0  0  0  0  0  0  0
    8.2865    1.6187   -0.0434 H   0  0  0  0  0  0  0  0  0  0  0  0
    8.2888    1.7495   -1.8131 H   0  0  0  0  0  0  0  0  0  0  0  0
    4.9078    3.4443    0.6132 H   0  0  0  0  0  0  0  0  0  0  0  0
    5.2779    4.8313   -0.5159 H   0  0  0  0  0  0  0  0  0  0  0  0
    7.5178    4.1901   -2.1759 H   0  0  0  0  0  0  0  0  0  0  0  0
    6.8416    3.7226   -4.4128 H   0  0  0  0  0  0  0  0  0  0  0  0
    3.8917    2.5558   -2.2210 H   0  0  0  0  0  0  0  0  0  0  0  0
    1.8060    3.3771   -1.8210 H   0  0  0  0  0  0  0  0  0  0  0  0
    0.9110    3.2631    0.5778 H   0  0  0  0  0  0  0  0  0  0  0  0
   -1.5813   -0.9752    2.4993 H   0  0  0  0  0  0  0  0  0  0  0  0
   -0.7281   -1.3025    0.9746 H   0  0  0  0  0  0  0  0  0  0  0  0
   -3.2022   -1.0235    0.5951 H   0  0  0  0  0  0  0  0  0  0  0  0
   -2.3001    0.2664   -0.2116 H   0  0  0  0  0  0  0  0  0  0  0  0
   -3.1263    0.5882    1.3217 H   0  0  0  0  0  0  0  0  0  0  0  0
    2.4453   -1.7991   -7.7863 H   0  0  0  0  0  0  0  0  0  0  0  0
    3.3520   -1.8186  -10.1764 H   0  0  0  0  0  0  0  0  0  0  0  0
    5.5088    2.5028  -10.6310 H   0  0  0  0  0  0  0  0  0  0  0  0
    5.7690    2.3398  -12.3851 H   0  0  0  0  0  0  0  0  0  0  0  0
    3.0421    2.7393  -11.0384 H   0  0  0  0  0  0  0  0  0  0  0  0
    3.9369    3.9882  -11.9112 H   0  0  0  0  0  0  0  0  0  0  0  0
    3.3131    2.5766  -12.7783 H   0  0  0  0  0  0  0  0  0  0  0  0
    0.4290   -0.8572   -7.4678 H   0  0  0  0  0  0  0  0  0  0  0  0
   -3.9699   -3.5631   -8.1491 H   0  0  0  0  0  0  0  0  0  0  0  0
   -3.1809   -0.0698   -4.1246 H   0  0  0  0  0  0  0  0  0  0  0  0
   -2.9924   -1.6495   -3.3782 H   0  0  0  0  0  0  0  0  0  0  0  0
   -5.5323   -0.4352   -4.5445 H   0  0  0  0  0  0  0  0  0  0  0  0
   -4.8939   -1.5478   -1.7762 H   0  0  0  0  0  0  0  0  0  0  0  0
   -4.7557    0.1546   -2.2185 H   0  0  0  0  0  0  0  0  0  0  0  0
   -6.3281   -0.6371   -2.2548 H   0  0  0  0  0  0  0  0  0  0  0  0
   -4.9105   -3.2988   -3.7668 H   0  0  0  0  0  0  0  0  0  0  0  0
   -5.7569   -3.7605   -6.0577 H   0  0  0  0  0  0  0  0  0  0  0  0
   -6.1018   -2.0451   -6.2824 H   0  0  0  0  0  0  0  0  0  0  0  0
   -8.0441   -2.2586   -5.5036 H   0  0  0  0  0  0  0  0  0  0  0  0
   -9.0367   -2.8684   -4.1038 H   0  0  0  0  0  0  0  0  0  0  0  0
   -6.4235   -4.1986   -2.2250 H   0  0  0  0  0  0  0  0  0  0  0  0
   -7.7369   -3.4985   -0.4492 H   0  0  0  0  0  0  0  0  0  0  0  0
  -10.3649    1.2510   -1.8184 H   0  0  0  0  0  0  0  0  0  0  0  0
   -8.0651   -2.3963    1.4392 H   0  0  0  0  0  0  0  0  0  0  0  0
   -9.7476   -2.8960    1.2739 H   0  0  0  0  0  0  0  0  0  0  0  0
   -8.6684   -0.3809    2.5998 H   0  0  0  0  0  0  0  0  0  0  0  0
   -9.7807   -1.3463    4.5980 H   0  0  0  0  0  0  0  0  0  0  0  0
  -10.3596   -2.7043    3.6377 H   0  0  0  0  0  0  0  0  0  0  0  0
   -8.6275   -2.4903    3.9165 H   0  0  0  0  0  0  0  0  0  0  0  0
  -11.5094   -1.1363    1.8482 H   0  0  0  0  0  0  0  0  0  0  0  0
  -11.5226    1.0029    0.6807 H   0  0  0  0  0  0  0  0  0  0  0  0
   -9.9301    1.4091    1.3089 H   0  0  0  0  0  0  0  0  0  0  0  0
   -9.7203    1.7556    3.4743 H   0  0  0  0  0  0  0  0  0  0  0  0
  -11.0104    1.9165    4.7528 H   0  0  0  0  0  0  0  0  0  0  0  0
  -12.8615    0.5673    4.8202 H   0  0  0  0  0  0  0  0  0  0  0  0
  -13.0464   -1.8402    2.9404 H   0  0  0  0  0  0  0  0  0  0  0  0
  -14.1868   -1.3503    4.2722 H   0  0  0  0  0  0  0  0  0  0  0  0
  1  2  2  0  0  0  0
  2  3  1  0  0  0  0
  3  4  2  0  0  0  0
  4  5  1  0  0  0  0
  5  6  2  0  0  0  0
  6  7  1  0  0  0  0
  7  8  2  0  0  0  0
  8  9  1  0  0  0  0
  9 10  1  0  0  0  0
 10 11  1  0  0  0  0
  8 12  1  0  0  0  0
  4 13  1  0  0  0  0
 13 14  2  0  0  0  0
 14 15  1  0  0  0  0
 15 16  1  0  0  0  0
 16 17  2  0  0  0  0
 17 18  1  0  0  0  0
 18 19  2  0  0  0  0
 19 20  1  0  0  0  0
 20 21  1  0  0  0  0
 21 22  1  0  0  0  0
 19 23  1  0  0  0  0
 15 24  2  0  0  0  0
 24 25  1  0  0  0  0
 14 26  1  0  0  0  0
 26 27  2  0  0  0  0
 27 28  1  0  0  0  0
 27 29  1  0  0  0  0
 29 30  1  0  0  0  0
 30 31  1  0  0  0  0
 31 32  2  0  0  0  0
 32 33  1  0  0  0  0
 33 34  1  0  0  0  0
 34 35  1  0  0  0  0
 35 36  1  0  0  0  0
 35 37  1  0  0  0  0
 37 38  1  0  0  0  0
 37 39  1  0  0  0  0
 39 40  2  0  0  0  0
 39 41  1  0  0  0  0
 41 42  2  0  0  0  0
 42 43  1  0  0  0  0
 43 44  1  0  0  0  0
 44 45  1  0  0  0  0
 45 46  2  0  0  0  0
 46 47  1  0  0  0  0
 47 48  1  0  0  0  0
 48 49  1  0  0  0  0
 49 50  1  0  0  0  0
 49 51  1  0  0  0  0
 51 52  1  0  0  0  0
 51 53  1  0  0  0  0
 53 54  2  0  0  0  0
 53 55  1  0  0  0  0
 55 56  2  0  0  0  0
 56 57  1  0  0  0  0
 57 58  2  0  0  0  0
 58 59  1  0  0  0  0
 59 60  2  0  0  0  0
 60 61  1  0  0  0  0
 61 62  2  0  0  0  0
 62 63  1  0  0  0  0
 63 64  2  0  0  0  0
 64 65  1  0  0  0  0
 65 66  1  0  0  0  0
 66 67  1  0  0  0  0
 64 68  1  0  0  0  0
 60 69  1  0  0  0  0
 69 70  2  0  0  0  0
 70 71  1  0  0  0  0
 71 72  1  0  0  0  0
 72 73  2  0  0  0  0
 73 74  1  0  0  0  0
 74 75  2  0  0  0  0
 75 76  1  0  0  0  0
 76 77  1  0  0  0  0
 77 78  1  0  0  0  0
 75 79  1  0  0  0  0
 71 80  2  0  0  0  0
 80 81  1  0  0  0  0
 70 82  1  0  0  0  0
 82 83  2  0  0  0  0
 83 84  1  0  0  0  0
 83 85  1  0  0  0  0
 85 86  1  0  0  0  0
 86 87  1  0  0  0  0
 87 88  2  0  0  0  0
 88 89  1  0  0  0  0
 89 90  1  0  0  0  0
 90 91  1  0  0  0  0
 91 92  1  0  0  0  0
 91 93  1  0  0  0  0
 93 94  1  0  0  0  0
 93 95  1  0  0  0  0
 95 96  2  0  0  0  0
 95 97  1  0  0  0  0
 97 98  2  0  0  0  0
 98 99  1  0  0  0  0
 99100  1  0  0  0  0
100101  1  0  0  0  0
101102  2  0  0  0  0
102103  1  0  0  0  0
103104  1  0  0  0  0
104105  1  0  0  0  0
105106  1  0  0  0  0
105107  1  0  0  0  0
107108  1  0  0  0  0
107109  1  0  0  0  0
109110  2  0  0  0  0
109111  1  0  0  0  0
111112  2  0  0  0  0
 25  1  1  0  0  0  0
 33 29  2  0  0  0  0
 47 43  2  0  0  0  0
 81 57  1  0  0  0  0
 89 85  2  0  0  0  0
103 99  2  0  0  0  0
 24  3  1  0  0  0  0
 38 32  1  0  0  0  0
 52 46  1  0  0  0  0
 80 59  1  0  0  0  0
 94 88  1  0  0  0  0
108102  1  0  0  0  0
 12  5  1  0  0  0  0
 28 13  1  0  0  0  0
 68 61  1  0  0  0  0
 84 69  1  0  0  0  0
 23 16  1  0  0  0  0
 79 72  1  0  0  0  0
  1113  1  0  0  0  0
  2114  1  0  0  0  0
  6115  1  0  0  0  0
  7116  1  0  0  0  0
 10117  1  0  0  0  0
 10118  1  0  0  0  0
 11119  1  0  0  0  0
 11120  1  0  0  0  0
 11121  1  0  0  0  0
 17122  1  0  0  0  0
 18123  1  0  0  0  0
 21124  1  0  0  0  0
 21125  1  0  0  0  0
 22126  1  0  0  0  0
 22127  1  0  0  0  0
 22128  1  0  0  0  0
 26129  1  0  0  0  0
 31130  1  0  0  0  0
 34131  1  0  0  0  0
 34132  1  0  0  0  0
 35133  1  0  0  0  0
 36134  1  0  0  0  0
 36135  1  0  0  0  0
 36136  1  0  0  0  0
 37137  1  0  0  0  0
 38138  1  0  0  0  0
 38139  1  0  0  0  0
 40140  1  0  0  0  0
 40141  1  0  0  0  0
 41142  1  0  0  0  0
 42143  1  0  0  0  0
 45144  1  0  0  0  0
 48145  1  0  0  0  0
 48146  1  0  0  0  0
 49147  1  0  0  0  0
 50148  1  0  0  0  0
 50149  1  0  0  0  0
 50150  1  0  0  0  0
 51151  1  0  0  0  0
 52152  1  0  0  0  0
 52153  1  0  0  0  0
 54154  1  0  0  0  0
 54155  1  0  0  0  0
 55156  1  0  0  0  0
 56157  1  0  0  0  0
 58158  1  0  0  0  0
 62159  1  0  0  0  0
 63160  1  0  0  0  0
 66161  1  0  0  0  0
 66162  1  0  0  0  0
 67163  1  0  0  0  0
 67164  1  0  0  0  0
 67165  1  0  0  0  0
 73166  1  0  0  0  0
 74167  1  0  0  0  0
 77168  1  0  0  0  0
 77169  1  0  0  0  0
 78170  1  0  0  0  0
 78171  1  0  0  0  0
 78172  1  0  0  0  0
 82173  1  0  0  0  0
 87174  1  0  0  0  0
 90175  1  0  0  0  0
 90176  1  0  0  0  0
 91177  1  0  0  0  0
 92178  1  0  0  0  0
 92179  1  0  0  0  0
 92180  1  0  0  0  0
 93181  1  0  0  0  0
 94182  1  0  0  0  0
 94183  1  0  0  0  0
 96184  1  0  0  0  0
 96185  1  0  0  0  0
 97186  1  0  0  0  0
 98187  1  0  0  0  0
101188  1  0  0  0  0
104189  1  0  0  0  0
104190  1  0  0  0  0
105191  1  0  0  0  0
106192  1  0  0  0  0
106193  1  0  0  0  0
106194  1  0  0  0  0
107195  1  0  0  0  0
108196  1  0  0  0  0
108197  1  0  0  0  0
110198  1  0  0  0  0
110199  1  0  0  0  0
111200  1  0  0  0  0
112201  1  0  0  0  0
112202  1  0  0  0  0
M  END
