121

C          3.37860       -6.88280        9.93270
S          2.29870       -6.48240        8.66340
C          3.45080       -5.36340        7.97980
C          4.60410       -5.32610        8.73240
C          4.55160       -6.19810        9.85040
C          5.69380       -6.34030       10.81440
C          6.96570       -5.98400       10.07940
O          7.90010       -6.71750        9.91540
C          6.85260       -4.57150        9.51830
O          7.49340       -3.63970        9.92200
C          5.80070       -4.47500        8.43660
C          3.10010       -4.66580        6.78390
C          1.90650       -4.74360        6.12700
C          1.83800       -3.95740        4.95220
C          0.72480       -3.78140        4.10030
C         -0.49430       -4.53870        4.25780
C         -0.62220       -5.85370        4.61750
C         -1.93440       -6.35930        4.66410
C         -2.91510       -5.45880        4.35430
S         -4.62230       -5.82170        4.41410
C         -5.33380       -4.42840        3.46760
C         -5.07700       -4.54750        1.97930
Se        -2.18880       -3.76890        3.94770
C          0.88220       -2.83780        3.09070
C          2.08400       -2.13350        2.85390
C          3.20170       -2.30570        3.70100
C          4.40010       -1.51140        3.56820
C          5.67970       -1.84390        3.92660
C          6.65800       -0.84620        3.76280
C          6.20180        0.34760        3.27900
S          7.21220        1.73740        2.96740
C          6.23110        2.65290        1.71860
C          5.20340        3.58390        2.32670
Se         4.34780        0.29440        3.00630
C          3.03540       -3.23490        4.72930
S          4.21570       -3.59670        5.95970
C          1.98440       -1.29070        1.72000
C          0.74720       -1.27620        1.14580
S         -0.35000       -2.38770        1.94520
C          0.26250       -0.47650        0.06990
S         -1.22360       -0.91900       -0.70320
C         -1.18560        0.48990       -1.73060
C         -0.06340        1.25040       -1.45790
C          0.75580        0.70630       -0.44600
C          2.01170        1.37220        0.02040
C          2.19020        2.78510       -0.48180
O          3.25510        3.34340       -0.51360
C          0.89870        3.42300       -0.97530
O          0.42780        4.42960       -0.52640
C          0.26080        2.58450       -2.06260
C         -2.21070        0.69780       -2.70440
S         -1.92720        1.72170       -4.08710
C         -3.51570        1.40710       -4.72230
C         -4.22300        0.58910       -3.87780
C         -3.47860        0.15140       -2.75830
C         -4.03940       -0.82020       -1.76560
C         -5.47540       -1.21030       -2.03670
O         -6.26730       -1.48420       -1.17640
C         -5.81540       -1.17630       -3.52210
O         -6.07650       -2.12810       -4.20200
C         -5.67690        0.24330       -4.02190
C         -3.89480        1.97270       -5.99030
S         -3.68350        3.66940       -6.28480
C         -4.23030        3.51720       -7.93520
C         -4.54620        2.20010       -8.21580
C         -4.36090        1.33320       -7.11310
C         -4.55380       -0.15090       -7.23250
C         -4.17480       -0.51350       -8.65260
O         -3.23570       -1.18290       -8.97460
C         -5.14230        0.18330       -9.60010
O         -5.95230       -0.39130      -10.27400
C         -5.00560        1.68980       -9.54630
C         -4.28430        4.66300       -8.79020
S         -4.84310        4.52150      -10.44090
C         -4.58140        6.18640      -10.73040
C         -4.10410        6.83120       -9.63170
C         -3.93080        5.97190       -8.51750
C         -3.41790        6.47920       -7.20550
C         -3.17410        7.97340       -7.20750
O         -3.39520        8.68860       -6.26940
C         -2.67460        8.47360       -8.55690
O         -1.57300        8.89140       -8.77730
C         -3.76750        8.29320       -9.58550
H          3.08430       -7.60120       10.67130
H          5.56520       -5.63970       11.64630
H          5.75160       -7.35440       11.21320
H          5.52500       -3.42520        8.29700
H          6.27100       -4.81050        7.50400
H          1.08360       -5.32290        6.50400
H          0.23240       -6.48750        4.78540
H         -2.15540       -7.38340        4.90970
H         -4.90990       -3.50790        3.88190
H         -6.39970       -4.46250        3.69000
H         -5.48080       -5.48270        1.59850
H         -4.00730       -4.51890        1.76910
H         -5.55320       -3.72110        1.45560
H          5.94700       -2.83560        4.24960
H          7.69860       -1.01120        3.98130
H          6.97000        3.20990        1.14390
H          5.76270        1.90750        1.07190
H          4.50650        3.03360        2.96230
H          4.63740        4.05900        1.52790
H          5.68580        4.35030        2.92800
H          2.82760       -0.78070        1.29390
H          2.02350        1.41930        1.11790
H          2.89880        0.80010       -0.27350
H          0.96310        2.46750       -2.89370
H         -0.63460        3.09060       -2.42590
H         -3.46870       -1.75650       -1.81610
H         -3.95180       -0.45320       -0.73850
H         -6.02370        0.34270       -5.04780
H         -6.26530        0.90840       -3.38130
H         -3.93580       -0.68980       -6.51250
H         -5.60210       -0.42760       -7.08050
H         -5.95490        2.14350       -9.84930
H         -4.26970        1.95380      -10.31600
H         -4.79520        6.59540      -11.69740
H         -4.10170        6.23880       -6.38500
H         -2.45610        6.00550       -6.97200
H         -4.64520        8.86620       -9.26900
H         -3.44240        8.65440      -10.56250
