
  xtb     03082207303D
 energy: -486.858184441399 gnorm: 0.000313226128 xtb: 6.4.1 (unknown)
284313  0     0  0            999 V2000
   -4.7535   -1.9809    7.8273 C   0  0  0  0  0  0  0  0  0  0  0  0
   -4.6042   -1.1321    6.7908 C   0  0  0  0  0  0  0  0  0  0  0  0
   -5.1087   -1.6552    5.5637 C   0  0  0  0  0  0  0  0  0  0  0  0
   -5.1182   -1.0506    4.2978 C   0  0  0  0  0  0  0  0  0  0  0  0
   -4.5285    0.2722    4.0476 C   0  0  0  0  0  0  0  0  0  0  0  0
   -3.5934    0.4397    3.0240 C   0  0  0  0  0  0  0  0  0  0  0  0
   -3.0082    1.6650    2.7962 C   0  0  0  0  0  0  0  0  0  0  0  0
   -3.3351    2.7837    3.5655 C   0  0  0  0  0  0  0  0  0  0  0  0
   -2.5217    4.2864    3.1443 S   0  0  0  0  0  0  0  0  0  0  0  0
   -2.5383    5.2810    4.6886 C   0  0  0  0  0  0  0  0  0  0  0  0
   -1.4108    6.2923    4.6242 C   0  0  0  0  0  0  0  0  0  0  0  0
   -4.2969    2.6105    4.5573 C   0  0  0  0  0  0  0  0  0  0  0  0
   -4.7206    3.6509    5.3111 F   0  0  0  0  0  0  0  0  0  0  0  0
   -4.8749    1.3815    4.8101 C   0  0  0  0  0  0  0  0  0  0  0  0
   -5.6804   -1.7887    3.2676 C   0  0  0  0  0  0  0  0  0  0  0  0
   -6.2062   -3.0926    3.4336 C   0  0  0  0  0  0  0  0  0  0  0  0
   -6.1859   -3.7006    4.6981 C   0  0  0  0  0  0  0  0  0  0  0  0
   -6.7314   -5.0494    4.8877 C   0  0  0  0  0  0  0  0  0  0  0  0
   -8.0057   -5.3702    4.4267 C   0  0  0  0  0  0  0  0  0  0  0  0
   -8.5102   -6.6494    4.5506 C   0  0  0  0  0  0  0  0  0  0  0  0
   -7.7516   -7.6603    5.1299 C   0  0  0  0  0  0  0  0  0  0  0  0
   -8.2680   -9.3346    5.3184 S   0  0  0  0  0  0  0  0  0  0  0  0
   -9.6183   -9.5148    4.1010 C   0  0  0  0  0  0  0  0  0  0  0  0
   -9.1266   -9.4140    2.6692 C   0  0  0  0  0  0  0  0  0  0  0  0
   -6.4913   -7.3158    5.6215 C   0  0  0  0  0  0  0  0  0  0  0  0
   -5.9798   -6.0421    5.5120 C   0  0  0  0  0  0  0  0  0  0  0  0
   -5.7368   -8.2645    6.2095 F   0  0  0  0  0  0  0  0  0  0  0  0
   -5.6308   -2.9610    5.7332 C   0  0  0  0  0  0  0  0  0  0  0  0
   -5.5059   -3.4777    7.3955 S   0  0  0  0  0  0  0  0  0  0  0  0
   -6.6725   -3.6355    2.2064 C   0  0  0  0  0  0  0  0  0  0  0  0
   -6.5713   -2.7740    1.1588 C   0  0  0  0  0  0  0  0  0  0  0  0
   -5.8628   -1.2369    1.6247 S   0  0  0  0  0  0  0  0  0  0  0  0
   -6.9006   -2.9793   -0.2123 C   0  0  0  0  0  0  0  0  0  0  0  0
   -6.9590   -2.0199   -1.1758 C   0  0  0  0  0  0  0  0  0  0  0  0
   -7.1951   -2.5275   -2.4747 C   0  0  0  0  0  0  0  0  0  0  0  0
   -7.2184   -1.8033   -3.6807 C   0  0  0  0  0  0  0  0  0  0  0  0
   -7.1241   -0.3572   -3.7065 C   0  0  0  0  0  0  0  0  0  0  0  0
   -6.3292    0.4094   -4.5112 C   0  0  0  0  0  0  0  0  0  0  0  0
   -6.4337    1.8039   -4.3389 C   0  0  0  0  0  0  0  0  0  0  0  0
   -7.3311    2.2063   -3.3913 C   0  0  0  0  0  0  0  0  0  0  0  0
   -7.5466    3.8713   -2.9034 S   0  0  0  0  0  0  0  0  0  0  0  0
   -9.1833    3.8007   -2.0960 C   0  0  0  0  0  0  0  0  0  0  0  0
  -10.3068    3.6261   -3.0968 C   0  0  0  0  0  0  0  0  0  0  0  0
   -8.1630    0.7291   -2.5666 Se  0  0  0  0  0  2  0  0  0  0  0  0
   -7.2393   -2.5636   -4.8423 C   0  0  0  0  0  0  0  0  0  0  0  0
   -7.2235   -3.9811   -4.8676 C   0  0  0  0  0  0  0  0  0  0  0  0
   -7.2800   -4.6998   -3.6533 C   0  0  0  0  0  0  0  0  0  0  0  0
   -7.2624   -6.1465   -3.6002 C   0  0  0  0  0  0  0  0  0  0  0  0
   -6.5024   -7.0166   -4.3295 C   0  0  0  0  0  0  0  0  0  0  0  0
   -6.6866   -8.3854   -4.0524 C   0  0  0  0  0  0  0  0  0  0  0  0
   -7.6065   -8.6625   -3.0816 C   0  0  0  0  0  0  0  0  0  0  0  0
   -7.9443  -10.2835   -2.5162 S   0  0  0  0  0  0  0  0  0  0  0  0
   -9.3328  -10.0095   -1.3620 C   0  0  0  0  0  0  0  0  0  0  0  0
  -10.6486   -9.7952   -2.0826 C   0  0  0  0  0  0  0  0  0  0  0  0
   -8.3592   -7.0822   -2.3838 Se  0  0  0  0  0  2  0  0  0  0  0  0
   -7.2784   -3.9380   -2.4866 C   0  0  0  0  0  0  0  0  0  0  0  0
   -7.1707   -4.5830   -0.8647 S   0  0  0  0  0  0  0  0  0  0  0  0
   -7.0447   -4.4769   -6.1875 C   0  0  0  0  0  0  0  0  0  0  0  0
   -6.9103   -3.5001   -7.1295 C   0  0  0  0  0  0  0  0  0  0  0  0
   -7.1576   -1.8963   -6.4453 S   0  0  0  0  0  0  0  0  0  0  0  0
   -6.2235   -3.5199   -8.3831 C   0  0  0  0  0  0  0  0  0  0  0  0
   -5.9962   -2.4142   -9.1512 C   0  0  0  0  0  0  0  0  0  0  0  0
   -4.7381   -2.4196   -9.7976 C   0  0  0  0  0  0  0  0  0  0  0  0
   -4.0825   -1.2455  -10.2500 C   0  0  0  0  0  0  0  0  0  0  0  0
   -4.8167   -0.1101  -10.7114 C   0  0  0  0  0  0  0  0  0  0  0  0
   -6.0707   -0.1310  -11.2806 C   0  0  0  0  0  0  0  0  0  0  0  0
   -6.5926    1.1062  -11.6793 C   0  0  0  0  0  0  0  0  0  0  0  0
   -5.7724    2.1800  -11.4480 C   0  0  0  0  0  0  0  0  0  0  0  0
   -6.1893    3.8245  -11.8490 S   0  0  0  0  0  0  0  0  0  0  0  0
   -4.6701    4.6845  -11.2982 C   0  0  0  0  0  0  0  0  0  0  0  0
   -4.7814    6.1714  -11.5622 C   0  0  0  0  0  0  0  0  0  0  0  0
   -4.1494    1.6529  -10.6529 Se  0  0  0  0  0  2  0  0  0  0  0  0
   -2.7094   -1.2634  -10.0034 C   0  0  0  0  0  0  0  0  0  0  0  0
   -1.9862   -2.4396   -9.7107 C   0  0  0  0  0  0  0  0  0  0  0  0
   -2.6290   -3.7080   -9.7177 C   0  0  0  0  0  0  0  0  0  0  0  0
   -1.9254   -4.9536   -9.7504 C   0  0  0  0  0  0  0  0  0  0  0  0
   -2.4720   -6.2146   -9.8333 C   0  0  0  0  0  0  0  0  0  0  0  0
   -1.5739   -7.2834   -9.9636 C   0  0  0  0  0  0  0  0  0  0  0  0
   -0.2517   -6.9324  -10.0217 C   0  0  0  0  0  0  0  0  0  0  0  0
    1.0460   -8.0785  -10.2358 S   0  0  0  0  0  0  0  0  0  0  0  0
    2.5251   -7.0266  -10.0166 C   0  0  0  0  0  0  0  0  0  0  0  0
    2.7984   -6.7062   -8.5614 C   0  0  0  0  0  0  0  0  0  0  0  0
   -0.0449   -5.0730   -9.8958 Se  0  0  0  0  0  2  0  0  0  0  0  0
   -4.0221   -3.6136   -9.5710 C   0  0  0  0  0  0  0  0  0  0  0  0
   -5.0223   -4.7671   -8.7052 S   0  0  0  0  0  0  0  0  0  0  0  0
   -0.7223   -2.1365   -9.1387 C   0  0  0  0  0  0  0  0  0  0  0  0
   -0.5108   -0.8040   -8.9483 C   0  0  0  0  0  0  0  0  0  0  0  0
   -1.7659    0.1674   -9.6864 S   0  0  0  0  0  0  0  0  0  0  0  0
    0.3324   -0.2545   -7.9194 C   0  0  0  0  0  0  0  0  0  0  0  0
    1.6222   -0.5164   -7.5902 C   0  0  0  0  0  0  0  0  0  0  0  0
    1.9810   -0.0550   -6.2912 C   0  0  0  0  0  0  0  0  0  0  0  0
    3.2206   -0.1672   -5.6401 C   0  0  0  0  0  0  0  0  0  0  0  0
    4.3651   -0.8366   -6.2721 C   0  0  0  0  0  0  0  0  0  0  0  0
    5.6131   -0.2218   -6.3415 C   0  0  0  0  0  0  0  0  0  0  0  0
    6.6844   -0.8719   -6.9165 C   0  0  0  0  0  0  0  0  0  0  0  0
    6.5564   -2.1545   -7.4452 C   0  0  0  0  0  0  0  0  0  0  0  0
    7.9855   -2.8739   -8.2022 S   0  0  0  0  0  0  0  0  0  0  0  0
    7.9559   -4.6111   -7.6222 C   0  0  0  0  0  0  0  0  0  0  0  0
    7.9646   -4.7042   -6.1098 C   0  0  0  0  0  0  0  0  0  0  0  0
    5.3002   -2.7485   -7.3838 C   0  0  0  0  0  0  0  0  0  0  0  0
    5.0882   -3.9821   -7.9013 F   0  0  0  0  0  0  0  0  0  0  0  0
    4.2225   -2.1168   -6.7984 C   0  0  0  0  0  0  0  0  0  0  0  0
    3.2956    0.3376   -4.3495 C   0  0  0  0  0  0  0  0  0  0  0  0
    2.1763    0.8781   -3.6709 C   0  0  0  0  0  0  0  0  0  0  0  0
    0.9391    1.0079   -4.3214 C   0  0  0  0  0  0  0  0  0  0  0  0
   -0.2268    1.5159   -3.5850 C   0  0  0  0  0  0  0  0  0  0  0  0
   -1.4041    0.7779   -3.5048 C   0  0  0  0  0  0  0  0  0  0  0  0
   -2.4524    1.1816   -2.6978 C   0  0  0  0  0  0  0  0  0  0  0  0
   -2.3631    2.3480   -1.9453 C   0  0  0  0  0  0  0  0  0  0  0  0
   -3.5751    2.9507   -0.8240 S   0  0  0  0  0  0  0  0  0  0  0  0
   -4.8451    1.6353   -0.7843 C   0  0  0  0  0  0  0  0  0  0  0  0
   -5.9441    2.0792    0.1616 C   0  0  0  0  0  0  0  0  0  0  0  0
   -1.1974    3.1081   -2.0807 C   0  0  0  0  0  0  0  0  0  0  0  0
   -0.1449    2.7122   -2.8724 C   0  0  0  0  0  0  0  0  0  0  0  0
   -1.0861    4.2620   -1.3926 F   0  0  0  0  0  0  0  0  0  0  0  0
    0.8862    0.5575   -5.6304 C   0  0  0  0  0  0  0  0  0  0  0  0
   -0.5178    0.6262   -6.6540 S   0  0  0  0  0  0  0  0  0  0  0  0
    2.4690    1.1675   -2.3165 C   0  0  0  0  0  0  0  0  0  0  0  0
    3.7595    0.9132   -1.9657 C   0  0  0  0  0  0  0  0  0  0  0  0
    4.6977    0.2798   -3.3053 S   0  0  0  0  0  0  0  0  0  0  0  0
    4.3205    1.1222   -0.6707 C   0  0  0  0  0  0  0  0  0  0  0  0
    5.6244    1.1602   -0.2816 C   0  0  0  0  0  0  0  0  0  0  0  0
    5.7950    1.4464    1.0991 C   0  0  0  0  0  0  0  0  0  0  0  0
    6.9965    1.5814    1.8136 C   0  0  0  0  0  0  0  0  0  0  0  0
    8.3068    1.3532    1.1934 C   0  0  0  0  0  0  0  0  0  0  0  0
    8.5746    0.1868    0.4781 C   0  0  0  0  0  0  0  0  0  0  0  0
    9.8321   -0.0471   -0.0349 C   0  0  0  0  0  0  0  0  0  0  0  0
   10.8671    0.8732    0.1267 C   0  0  0  0  0  0  0  0  0  0  0  0
   12.4291    0.4632   -0.5915 S   0  0  0  0  0  0  0  0  0  0  0  0
   13.6642    1.1188    0.5911 C   0  0  0  0  0  0  0  0  0  0  0  0
   13.4739    0.5631    1.9880 C   0  0  0  0  0  0  0  0  0  0  0  0
   10.5712    2.0533    0.8020 C   0  0  0  0  0  0  0  0  0  0  0  0
   11.5033    3.0208    0.9526 F   0  0  0  0  0  0  0  0  0  0  0  0
    9.3247    2.2891    1.3438 C   0  0  0  0  0  0  0  0  0  0  0  0
    6.8890    1.9294    3.1522 C   0  0  0  0  0  0  0  0  0  0  0  0
    5.6463    2.0961    3.8110 C   0  0  0  0  0  0  0  0  0  0  0  0
    4.4411    1.9185    3.1101 C   0  0  0  0  0  0  0  0  0  0  0  0
    3.1505    1.9945    3.8050 C   0  0  0  0  0  0  0  0  0  0  0  0
    2.0718    2.7197    3.3012 C   0  0  0  0  0  0  0  0  0  0  0  0
    0.8720    2.7628    3.9805 C   0  0  0  0  0  0  0  0  0  0  0  0
    0.7040    2.1064    5.1982 C   0  0  0  0  0  0  0  0  0  0  0  0
   -0.8490    2.3009    6.0252 S   0  0  0  0  0  0  0  0  0  0  0  0
   -1.1758    0.6813    6.8064 C   0  0  0  0  0  0  0  0  0  0  0  0
   -1.2230   -0.4413    5.7911 C   0  0  0  0  0  0  0  0  0  0  0  0
    1.7928    1.4019    5.6994 C   0  0  0  0  0  0  0  0  0  0  0  0
    2.9856    1.3208    5.0128 C   0  0  0  0  0  0  0  0  0  0  0  0
    1.7256    0.7670    6.8938 F   0  0  0  0  0  0  0  0  0  0  0  0
    4.5527    1.6331    1.7581 C   0  0  0  0  0  0  0  0  0  0  0  0
    3.2177    1.4200    0.6614 S   0  0  0  0  0  0  0  0  0  0  0  0
    5.8139    2.4679    5.1664 C   0  0  0  0  0  0  0  0  0  0  0  0
    7.1189    2.5397    5.5575 C   0  0  0  0  0  0  0  0  0  0  0  0
    8.2227    2.1687    4.2529 S   0  0  0  0  0  0  0  0  0  0  0  0
    7.5866    2.9032    6.8547 C   0  0  0  0  0  0  0  0  0  0  0  0
    6.8221    3.0456    7.9746 C   0  0  0  0  0  0  0  0  0  0  0  0
    7.5382    3.4978    9.1087 C   0  0  0  0  0  0  0  0  0  0  0  0
    7.0375    3.7722   10.3993 C   0  0  0  0  0  0  0  0  0  0  0  0
    5.6366    3.6517   10.7375 C   0  0  0  0  0  0  0  0  0  0  0  0
    5.1061    3.2960   11.9487 C   0  0  0  0  0  0  0  0  0  0  0  0
    3.7017    3.2870   12.0410 C   0  0  0  0  0  0  0  0  0  0  0  0
    3.0397    3.6540   10.9043 C   0  0  0  0  0  0  0  0  0  0  0  0
    1.2974    3.7252   10.7692 S   0  0  0  0  0  0  0  0  0  0  0  0
    1.0288    3.4717    8.9755 C   0  0  0  0  0  0  0  0  0  0  0  0
    1.0855    4.7600    8.1802 C   0  0  0  0  0  0  0  0  0  0  0  0
    4.2477    4.1049    9.5391 Se  0  0  0  0  0  2  0  0  0  0  0  0
    7.9808    4.2109   11.3314 C   0  0  0  0  0  0  0  0  0  0  0  0
    9.3567    4.3657   11.0420 C   0  0  0  0  0  0  0  0  0  0  0  0
    9.8587    4.0489    9.7638 C   0  0  0  0  0  0  0  0  0  0  0  0
   11.2688    4.1178    9.4508 C   0  0  0  0  0  0  0  0  0  0  0  0
   12.3182    3.7560   10.2504 C   0  0  0  0  0  0  0  0  0  0  0  0
   13.6023    3.8911    9.6882 C   0  0  0  0  0  0  0  0  0  0  0  0
   13.6267    4.3821    8.4137 C   0  0  0  0  0  0  0  0  0  0  0  0
   15.0971    4.7097    7.5256 S   0  0  0  0  0  0  0  0  0  0  0  0
   14.4715    4.8477    5.8136 C   0  0  0  0  0  0  0  0  0  0  0  0
   14.0793    3.5059    5.2293 C   0  0  0  0  0  0  0  0  0  0  0  0
   11.8872    4.7408    7.7826 Se  0  0  0  0  0  2  0  0  0  0  0  0
    8.9143    3.6542    8.8217 C   0  0  0  0  0  0  0  0  0  0  0  0
    9.2684    3.2642    7.1599 S   0  0  0  0  0  0  0  0  0  0  0  0
   10.0670    4.9286   12.1431 C   0  0  0  0  0  0  0  0  0  0  0  0
    9.2801    5.1727   13.2097 C   0  0  0  0  0  0  0  0  0  0  0  0
    7.6292    4.7279   12.9609 S   0  0  0  0  0  0  0  0  0  0  0  0
   -4.4635   -1.8307    8.8490 H   0  0  0  0  0  0  0  0  0  0  0  0
   -4.1559   -0.1600    6.8751 H   0  0  0  0  0  0  0  0  0  0  0  0
   -3.3004   -0.4092    2.4248 H   0  0  0  0  0  0  0  0  0  0  0  0
   -2.2752    1.7847    2.0136 H   0  0  0  0  0  0  0  0  0  0  0  0
   -2.3957    4.5925    5.5190 H   0  0  0  0  0  0  0  0  0  0  0  0
   -3.5063    5.7730    4.7693 H   0  0  0  0  0  0  0  0  0  0  0  0
   -0.4490    5.7883    4.5581 H   0  0  0  0  0  0  0  0  0  0  0  0
   -1.5233    6.9379    3.7560 H   0  0  0  0  0  0  0  0  0  0  0  0
   -1.4206    6.9077    5.5210 H   0  0  0  0  0  0  0  0  0  0  0  0
   -5.6237    1.3124    5.5843 H   0  0  0  0  0  0  0  0  0  0  0  0
   -8.6198   -4.6013    3.9824 H   0  0  0  0  0  0  0  0  0  0  0  0
   -9.5068   -6.8529    4.1932 H   0  0  0  0  0  0  0  0  0  0  0  0
  -10.3955   -8.7854    4.3258 H   0  0  0  0  0  0  0  0  0  0  0  0
  -10.0100  -10.5110    4.3066 H   0  0  0  0  0  0  0  0  0  0  0  0
   -9.9571   -9.5699    1.9827 H   0  0  0  0  0  0  0  0  0  0  0  0
   -8.6919   -8.4361    2.4724 H   0  0  0  0  0  0  0  0  0  0  0  0
   -8.3689  -10.1703    2.4783 H   0  0  0  0  0  0  0  0  0  0  0  0
   -4.9886   -5.8414    5.8864 H   0  0  0  0  0  0  0  0  0  0  0  0
   -7.0574   -4.6338    2.1002 H   0  0  0  0  0  0  0  0  0  0  0  0
   -6.7853   -0.9801   -0.9549 H   0  0  0  0  0  0  0  0  0  0  0  0
   -5.6392   -0.0215   -5.2168 H   0  0  0  0  0  0  0  0  0  0  0  0
   -5.8482    2.5058   -4.9070 H   0  0  0  0  0  0  0  0  0  0  0  0
   -9.1518    2.9798   -1.3716 H   0  0  0  0  0  0  0  0  0  0  0  0
   -9.2698    4.7458   -1.5611 H   0  0  0  0  0  0  0  0  0  0  0  0
  -10.3072    4.4442   -3.8135 H   0  0  0  0  0  0  0  0  0  0  0  0
  -10.1944    2.6890   -3.6417 H   0  0  0  0  0  0  0  0  0  0  0  0
  -11.2640    3.6109   -2.5800 H   0  0  0  0  0  0  0  0  0  0  0  0
   -5.7626   -6.6808   -5.0364 H   0  0  0  0  0  0  0  0  0  0  0  0
   -6.1366   -9.1605   -4.5575 H   0  0  0  0  0  0  0  0  0  0  0  0
   -9.0659   -9.1515   -0.7369 H   0  0  0  0  0  0  0  0  0  0  0  0
   -9.3601  -10.9082   -0.7465 H   0  0  0  0  0  0  0  0  0  0  0  0
  -11.4506   -9.6653   -1.3590 H   0  0  0  0  0  0  0  0  0  0  0  0
  -10.8791  -10.6506   -2.7130 H   0  0  0  0  0  0  0  0  0  0  0  0
  -10.6020   -8.9041   -2.7090 H   0  0  0  0  0  0  0  0  0  0  0  0
   -6.9613   -5.5196   -6.4316 H   0  0  0  0  0  0  0  0  0  0  0  0
   -6.6150   -1.5357   -9.0921 H   0  0  0  0  0  0  0  0  0  0  0  0
   -6.6032   -1.0526  -11.4459 H   0  0  0  0  0  0  0  0  0  0  0  0
   -7.5595    1.2138  -12.1399 H   0  0  0  0  0  0  0  0  0  0  0  0
   -3.8339    4.2425  -11.8486 H   0  0  0  0  0  0  0  0  0  0  0  0
   -4.5514    4.4758  -10.2308 H   0  0  0  0  0  0  0  0  0  0  0  0
   -5.6298    6.5905  -11.0262 H   0  0  0  0  0  0  0  0  0  0  0  0
   -3.8753    6.6729  -11.2298 H   0  0  0  0  0  0  0  0  0  0  0  0
   -4.9165    6.3602  -12.6246 H   0  0  0  0  0  0  0  0  0  0  0  0
   -3.5344   -6.3848   -9.8144 H   0  0  0  0  0  0  0  0  0  0  0  0
   -1.8948   -8.3090  -10.0252 H   0  0  0  0  0  0  0  0  0  0  0  0
    3.3400   -7.6021  -10.4545 H   0  0  0  0  0  0  0  0  0  0  0  0
    2.3684   -6.1202  -10.6096 H   0  0  0  0  0  0  0  0  0  0  0  0
    1.9546   -6.1756   -8.1187 H   0  0  0  0  0  0  0  0  0  0  0  0
    2.9673   -7.6192   -7.9954 H   0  0  0  0  0  0  0  0  0  0  0  0
    3.6792   -6.0733   -8.4842 H   0  0  0  0  0  0  0  0  0  0  0  0
   -0.0699   -2.8690   -8.6901 H   0  0  0  0  0  0  0  0  0  0  0  0
    2.3026   -1.0171   -8.2546 H   0  0  0  0  0  0  0  0  0  0  0  0
    5.7407    0.7750   -5.9487 H   0  0  0  0  0  0  0  0  0  0  0  0
    7.6498   -0.3934   -6.9679 H   0  0  0  0  0  0  0  0  0  0  0  0
    8.8674   -5.0308   -8.0477 H   0  0  0  0  0  0  0  0  0  0  0  0
    7.0971   -5.1168   -8.0582 H   0  0  0  0  0  0  0  0  0  0  0  0
    8.8176   -4.1678   -5.6997 H   0  0  0  0  0  0  0  0  0  0  0  0
    8.0288   -5.7476   -5.8074 H   0  0  0  0  0  0  0  0  0  0  0  0
    7.0551   -4.2793   -5.6888 H   0  0  0  0  0  0  0  0  0  0  0  0
    3.2785   -2.6374   -6.7482 H   0  0  0  0  0  0  0  0  0  0  0  0
   -1.4917   -0.1473   -4.0541 H   0  0  0  0  0  0  0  0  0  0  0  0
   -3.3393    0.5706   -2.6481 H   0  0  0  0  0  0  0  0  0  0  0  0
   -4.3762    0.7143   -0.4373 H   0  0  0  0  0  0  0  0  0  0  0  0
   -5.2312    1.5080   -1.7965 H   0  0  0  0  0  0  0  0  0  0  0  0
   -6.3567    3.0314   -0.1649 H   0  0  0  0  0  0  0  0  0  0  0  0
   -6.7422    1.3380    0.1818 H   0  0  0  0  0  0  0  0  0  0  0  0
   -5.5545    2.1940    1.1705 H   0  0  0  0  0  0  0  0  0  0  0  0
    0.7307    3.3393   -2.9366 H   0  0  0  0  0  0  0  0  0  0  0  0
    1.7430    1.5414   -1.6172 H   0  0  0  0  0  0  0  0  0  0  0  0
    6.4402    1.0195   -0.9680 H   0  0  0  0  0  0  0  0  0  0  0  0
    7.8012   -0.5567    0.3596 H   0  0  0  0  0  0  0  0  0  0  0  0
   10.0422   -0.9607   -0.5689 H   0  0  0  0  0  0  0  0  0  0  0  0
   13.6285    2.2058    0.5748 H   0  0  0  0  0  0  0  0  0  0  0  0
   14.6111    0.7889    0.1631 H   0  0  0  0  0  0  0  0  0  0  0  0
   13.4770   -0.5248    1.9699 H   0  0  0  0  0  0  0  0  0  0  0  0
   14.2835    0.9045    2.6300 H   0  0  0  0  0  0  0  0  0  0  0  0
   12.5322    0.8987    2.4182 H   0  0  0  0  0  0  0  0  0  0  0  0
    9.1541    3.2229    1.8563 H   0  0  0  0  0  0  0  0  0  0  0  0
    2.1741    3.2650    2.3764 H   0  0  0  0  0  0  0  0  0  0  0  0
    0.0383    3.3152    3.5744 H   0  0  0  0  0  0  0  0  0  0  0  0
   -2.1464    0.8308    7.2800 H   0  0  0  0  0  0  0  0  0  0  0  0
   -0.4341    0.5014    7.5814 H   0  0  0  0  0  0  0  0  0  0  0  0
   -1.9358   -0.2140    5.0007 H   0  0  0  0  0  0  0  0  0  0  0  0
   -0.2444   -0.5952    5.3403 H   0  0  0  0  0  0  0  0  0  0  0  0
   -1.5258   -1.3647    6.2811 H   0  0  0  0  0  0  0  0  0  0  0  0
    3.7802    0.7215    5.4295 H   0  0  0  0  0  0  0  0  0  0  0  0
    4.9955    2.7163    5.8164 H   0  0  0  0  0  0  0  0  0  0  0  0
    5.7762    2.7950    7.9822 H   0  0  0  0  0  0  0  0  0  0  0  0
    5.7206    2.9722   12.7712 H   0  0  0  0  0  0  0  0  0  0  0  0
    3.1796    2.9908   12.9343 H   0  0  0  0  0  0  0  0  0  0  0  0
    1.7782    2.7519    8.6415 H   0  0  0  0  0  0  0  0  0  0  0  0
    0.0392    3.0210    8.9078 H   0  0  0  0  0  0  0  0  0  0  0  0
    0.3631    5.4752    8.5660 H   0  0  0  0  0  0  0  0  0  0  0  0
    2.0798    5.2073    8.2322 H   0  0  0  0  0  0  0  0  0  0  0  0
    0.8519    4.5553    7.1371 H   0  0  0  0  0  0  0  0  0  0  0  0
   12.1707    3.3279   11.2280 H   0  0  0  0  0  0  0  0  0  0  0  0
   14.5005    3.6145   10.2128 H   0  0  0  0  0  0  0  0  0  0  0  0
   15.2923    5.2988    5.2569 H   0  0  0  0  0  0  0  0  0  0  0  0
   13.6266    5.5433    5.8345 H   0  0  0  0  0  0  0  0  0  0  0  0
   13.2662    3.0592    5.8020 H   0  0  0  0  0  0  0  0  0  0  0  0
   13.7433    3.6362    4.2027 H   0  0  0  0  0  0  0  0  0  0  0  0
   14.9273    2.8250    5.2408 H   0  0  0  0  0  0  0  0  0  0  0  0
   11.1133    5.1698   12.1115 H   0  0  0  0  0  0  0  0  0  0  0  0
    9.5599    5.5941   14.1553 H   0  0  0  0  0  0  0  0  0  0  0  0
  1  2  2  0  0  0  0
  2  3  1  0  0  0  0
  3  4  2  0  0  0  0
  4  5  1  0  0  0  0
  5  6  2  0  0  0  0
  6  7  1  0  0  0  0
  7  8  2  0  0  0  0
  8  9  1  0  0  0  0
  9 10  1  0  0  0  0
 10 11  1  0  0  0  0
  8 12  1  0  0  0  0
 12 13  1  0  0  0  0
 12 14  2  0  0  0  0
  4 15  1  0  0  0  0
 15 16  2  0  0  0  0
 16 17  1  0  0  0  0
 17 18  1  0  0  0  0
 18 19  2  0  0  0  0
 19 20  1  0  0  0  0
 20 21  2  0  0  0  0
 21 22  1  0  0  0  0
 22 23  1  0  0  0  0
 23 24  1  0  0  0  0
 21 25  1  0  0  0  0
 25 26  2  0  0  0  0
 25 27  1  0  0  0  0
 17 28  2  0  0  0  0
 28 29  1  0  0  0  0
 16 30  1  0  0  0  0
 30 31  2  0  0  0  0
 31 32  1  0  0  0  0
 31 33  1  0  0  0  0
 33 34  2  0  0  0  0
 34 35  1  0  0  0  0
 35 36  2  0  0  0  0
 36 37  1  0  0  0  0
 37 38  2  0  0  0  0
 38 39  1  0  0  0  0
 39 40  2  0  0  0  0
 40 41  1  0  0  0  0
 41 42  1  0  0  0  0
 42 43  1  0  0  0  0
 40 44  1  0  0  0  0
 36 45  1  0  0  0  0
 45 46  2  0  0  0  0
 46 47  1  0  0  0  0
 47 48  1  0  0  0  0
 48 49  2  0  0  0  0
 49 50  1  0  0  0  0
 50 51  2  0  0  0  0
 51 52  1  0  0  0  0
 52 53  1  0  0  0  0
 53 54  1  0  0  0  0
 51 55  1  0  0  0  0
 47 56  2  0  0  0  0
 56 57  1  0  0  0  0
 46 58  1  0  0  0  0
 58 59  2  0  0  0  0
 59 60  1  0  0  0  0
 59 61  1  0  0  0  0
 61 62  2  0  0  0  0
 62 63  1  0  0  0  0
 63 64  2  0  0  0  0
 64 65  1  0  0  0  0
 65 66  2  0  0  0  0
 66 67  1  0  0  0  0
 67 68  2  0  0  0  0
 68 69  1  0  0  0  0
 69 70  1  0  0  0  0
 70 71  1  0  0  0  0
 68 72  1  0  0  0  0
 64 73  1  0  0  0  0
 73 74  2  0  0  0  0
 74 75  1  0  0  0  0
 75 76  1  0  0  0  0
 76 77  2  0  0  0  0
 77 78  1  0  0  0  0
 78 79  2  0  0  0  0
 79 80  1  0  0  0  0
 80 81  1  0  0  0  0
 81 82  1  0  0  0  0
 79 83  1  0  0  0  0
 75 84  2  0  0  0  0
 84 85  1  0  0  0  0
 74 86  1  0  0  0  0
 86 87  2  0  0  0  0
 87 88  1  0  0  0  0
 87 89  1  0  0  0  0
 89 90  2  0  0  0  0
 90 91  1  0  0  0  0
 91 92  2  0  0  0  0
 92 93  1  0  0  0  0
 93 94  2  0  0  0  0
 94 95  1  0  0  0  0
 95 96  2  0  0  0  0
 96 97  1  0  0  0  0
 97 98  1  0  0  0  0
 98 99  1  0  0  0  0
 96100  1  0  0  0  0
100101  1  0  0  0  0
100102  2  0  0  0  0
 92103  1  0  0  0  0
103104  2  0  0  0  0
104105  1  0  0  0  0
105106  1  0  0  0  0
106107  2  0  0  0  0
107108  1  0  0  0  0
108109  2  0  0  0  0
109110  1  0  0  0  0
110111  1  0  0  0  0
111112  1  0  0  0  0
109113  1  0  0  0  0
113114  2  0  0  0  0
113115  1  0  0  0  0
105116  2  0  0  0  0
116117  1  0  0  0  0
104118  1  0  0  0  0
118119  2  0  0  0  0
119120  1  0  0  0  0
119121  1  0  0  0  0
121122  2  0  0  0  0
122123  1  0  0  0  0
123124  2  0  0  0  0
124125  1  0  0  0  0
125126  2  0  0  0  0
126127  1  0  0  0  0
127128  2  0  0  0  0
128129  1  0  0  0  0
129130  1  0  0  0  0
130131  1  0  0  0  0
128132  1  0  0  0  0
132133  1  0  0  0  0
132134  2  0  0  0  0
124135  1  0  0  0  0
135136  2  0  0  0  0
136137  1  0  0  0  0
137138  1  0  0  0  0
138139  2  0  0  0  0
139140  1  0  0  0  0
140141  2  0  0  0  0
141142  1  0  0  0  0
142143  1  0  0  0  0
143144  1  0  0  0  0
141145  1  0  0  0  0
145146  2  0  0  0  0
145147  1  0  0  0  0
137148  2  0  0  0  0
148149  1  0  0  0  0
136150  1  0  0  0  0
150151  2  0  0  0  0
151152  1  0  0  0  0
151153  1  0  0  0  0
153154  2  0  0  0  0
154155  1  0  0  0  0
155156  2  0  0  0  0
156157  1  0  0  0  0
157158  2  0  0  0  0
158159  1  0  0  0  0
159160  2  0  0  0  0
160161  1  0  0  0  0
161162  1  0  0  0  0
162163  1  0  0  0  0
160164  1  0  0  0  0
156165  1  0  0  0  0
165166  2  0  0  0  0
166167  1  0  0  0  0
167168  1  0  0  0  0
168169  2  0  0  0  0
169170  1  0  0  0  0
170171  2  0  0  0  0
171172  1  0  0  0  0
172173  1  0  0  0  0
173174  1  0  0  0  0
171175  1  0  0  0  0
167176  2  0  0  0  0
176177  1  0  0  0  0
166178  1  0  0  0  0
178179  2  0  0  0  0
179180  1  0  0  0  0
 29  1  1  0  0  0  0
 57 33  1  0  0  0  0
 85 61  1  0  0  0  0
117 89  1  0  0  0  0
149121  1  0  0  0  0
177153  1  0  0  0  0
 28  3  1  0  0  0  0
 56 35  1  0  0  0  0
 84 63  1  0  0  0  0
116 91  1  0  0  0  0
148123  1  0  0  0  0
176155  1  0  0  0  0
 14  5  1  0  0  0  0
 32 15  1  0  0  0  0
 44 37  1  0  0  0  0
 60 45  1  0  0  0  0
 72 65  1  0  0  0  0
 88 73  1  0  0  0  0
102 93  1  0  0  0  0
120103  1  0  0  0  0
134125  1  0  0  0  0
152135  1  0  0  0  0
164157  1  0  0  0  0
180165  1  0  0  0  0
 26 18  1  0  0  0  0
 55 48  1  0  0  0  0
 83 76  1  0  0  0  0
114106  1  0  0  0  0
146138  1  0  0  0  0
175168  1  0  0  0  0
  1181  1  0  0  0  0
  2182  1  0  0  0  0
  6183  1  0  0  0  0
  7184  1  0  0  0  0
 10185  1  0  0  0  0
 10186  1  0  0  0  0
 11187  1  0  0  0  0
 11188  1  0  0  0  0
 11189  1  0  0  0  0
 14190  1  0  0  0  0
 19191  1  0  0  0  0
 20192  1  0  0  0  0
 23193  1  0  0  0  0
 23194  1  0  0  0  0
 24195  1  0  0  0  0
 24196  1  0  0  0  0
 24197  1  0  0  0  0
 26198  1  0  0  0  0
 30199  1  0  0  0  0
 34200  1  0  0  0  0
 38201  1  0  0  0  0
 39202  1  0  0  0  0
 42203  1  0  0  0  0
 42204  1  0  0  0  0
 43205  1  0  0  0  0
 43206  1  0  0  0  0
 43207  1  0  0  0  0
 49208  1  0  0  0  0
 50209  1  0  0  0  0
 53210  1  0  0  0  0
 53211  1  0  0  0  0
 54212  1  0  0  0  0
 54213  1  0  0  0  0
 54214  1  0  0  0  0
 58215  1  0  0  0  0
 62216  1  0  0  0  0
 66217  1  0  0  0  0
 67218  1  0  0  0  0
 70219  1  0  0  0  0
 70220  1  0  0  0  0
 71221  1  0  0  0  0
 71222  1  0  0  0  0
 71223  1  0  0  0  0
 77224  1  0  0  0  0
 78225  1  0  0  0  0
 81226  1  0  0  0  0
 81227  1  0  0  0  0
 82228  1  0  0  0  0
 82229  1  0  0  0  0
 82230  1  0  0  0  0
 86231  1  0  0  0  0
 90232  1  0  0  0  0
 94233  1  0  0  0  0
 95234  1  0  0  0  0
 98235  1  0  0  0  0
 98236  1  0  0  0  0
 99237  1  0  0  0  0
 99238  1  0  0  0  0
 99239  1  0  0  0  0
102240  1  0  0  0  0
107241  1  0  0  0  0
108242  1  0  0  0  0
111243  1  0  0  0  0
111244  1  0  0  0  0
112245  1  0  0  0  0
112246  1  0  0  0  0
112247  1  0  0  0  0
114248  1  0  0  0  0
118249  1  0  0  0  0
122250  1  0  0  0  0
126251  1  0  0  0  0
127252  1  0  0  0  0
130253  1  0  0  0  0
130254  1  0  0  0  0
131255  1  0  0  0  0
131256  1  0  0  0  0
131257  1  0  0  0  0
134258  1  0  0  0  0
139259  1  0  0  0  0
140260  1  0  0  0  0
143261  1  0  0  0  0
143262  1  0  0  0  0
144263  1  0  0  0  0
144264  1  0  0  0  0
144265  1  0  0  0  0
146266  1  0  0  0  0
150267  1  0  0  0  0
154268  1  0  0  0  0
158269  1  0  0  0  0
159270  1  0  0  0  0
162271  1  0  0  0  0
162272  1  0  0  0  0
163273  1  0  0  0  0
163274  1  0  0  0  0
163275  1  0  0  0  0
169276  1  0  0  0  0
170277  1  0  0  0  0
173278  1  0  0  0  0
173279  1  0  0  0  0
174280  1  0  0  0  0
174281  1  0  0  0  0
174282  1  0  0  0  0
178283  1  0  0  0  0
179284  1  0  0  0  0
M  END
