209

C         12.15040      -10.64730        4.39240
S         10.65800      -10.27220        3.62540
C         11.02960       -8.55920        3.62490
C         12.24790       -8.33840        4.21690
C         12.88120       -9.53280        4.64790
C         14.23190       -9.42180        5.26230
C         15.11710       -8.53200        4.37700
O         16.31640       -8.30670        5.08770
C         17.40650       -7.93670        4.28090
C         14.43500       -7.20110        3.95800
O         14.50730       -7.15260        2.54630
C         14.29390       -5.88880        1.96930
C         12.98930       -7.07450        4.48000
C         10.08110       -7.66350        3.04310
C          8.82400       -7.97500        2.61420
C          8.11220       -6.88470        2.05460
C          6.79100       -6.85530        1.55630
C          5.87650       -7.96010        1.71850
C          5.81640       -8.85500        2.75560
C          4.77370       -9.79860        2.70810
C          3.94860       -9.69620        1.62360
S          2.55940      -10.72100        1.34140
C          1.49920       -9.63820        0.31220
C          1.80930       -9.74990       -1.16610
Se         4.50590       -8.31400        0.47410
C          6.41020       -5.66870        0.93100
C          7.22130       -4.51260        0.84140
C          8.49720       -4.50850        1.44460
C          9.32760       -3.32440        1.46780
C          8.91380       -2.02740        1.60420
C          9.91470       -1.03800        1.52470
C         11.17420       -1.51830        1.32130
S         12.67710       -0.64210        1.13190
C         12.34680        0.90980        2.04360
C         12.15300        0.67110        3.52750
Se        11.20880       -3.39300        1.24610
C          8.90330       -5.71400        2.00880
S         10.44840       -5.97170        2.76570
C          6.58520       -3.47200        0.11500
C          5.32760       -3.78780       -0.30000
S          4.86450       -5.40910        0.17900
C          4.34290       -2.99670       -0.95660
C          3.10470       -3.42810       -1.32790
C          2.24970       -2.40650       -1.79960
C          0.90610       -2.54140       -2.21180
C          0.20640       -3.80980       -2.24270
C         -0.76570       -4.16720       -3.13750
C         -1.38850       -5.41560       -2.93280
C         -0.94140       -6.10220       -1.84380
S         -1.44160       -7.65370       -1.20590
C         -2.35260       -8.39950       -2.60410
C         -1.43680       -8.79780       -3.74470
Se         0.41380       -5.17650       -0.94170
C          0.26520       -1.35420       -2.56280
C          0.91500       -0.09870       -2.56670
C          2.28430        0.02330       -2.24550
C          2.98270        1.27920       -2.39350
C          4.07010        1.73450       -1.69540
C          4.64390        2.93260       -2.15570
C          4.04990        3.47240       -3.26200
S          4.56940        4.96710       -4.01460
C          4.23020        4.62510       -5.78340
C          2.82250        5.01030       -6.19080
Se         2.54700        2.47960       -3.78060
C          2.90370       -1.14890       -1.81900
S          4.54900       -1.28550       -1.24560
C          0.01320        0.96140       -2.82350
C         -1.26820        0.55410       -3.03970
S         -1.43280       -1.18260       -2.94130
C         -2.35960        1.46180       -3.22100
S         -3.86620        1.26170       -2.37220
C         -4.38250        2.88090       -2.79530
C         -3.44860        3.48450       -3.60370
C         -2.31870        2.67640       -3.85800
C         -1.28570        3.21990       -4.78680
C         -0.84690        4.62310       -4.34130
O          0.21340        4.43900       -3.42340
C          0.85610        5.62440       -3.01460
C         -2.01570        5.45210       -3.75150
O         -1.83900        6.77630       -4.20990
C         -2.56570        7.75280       -3.50740
C         -3.39220        4.87190       -4.14100
C         -5.61140        3.35180       -2.24430
C         -6.55670        2.58840       -1.62610
C         -7.65860        3.31820       -1.11810
C         -8.78130        2.82320       -0.42500
C         -8.99700        1.41660       -0.16460
C         -9.55370        0.86650        0.95720
C         -9.75640       -0.52630        0.93380
C         -9.38180       -1.14710       -0.22320
S         -9.44720       -2.87880       -0.45450
C         -9.29140       -3.01750       -2.26950
C        -10.55460       -2.59080       -2.98880
Se        -8.65360        0.07990       -1.45120
C         -9.71290        3.77610       -0.02040
C         -9.57900        5.16400       -0.25250
C         -8.41540        5.66620       -0.88080
C         -8.18730        7.08670       -1.00740
C         -8.58900        8.05880       -0.12980
C         -8.26650        9.38400       -0.47590
C         -7.58020        9.52620       -1.64520
S         -7.16770       11.07010       -2.35500
C         -5.50830       10.69020       -3.02260
C         -4.51110       10.44200       -1.90960
Se        -7.26840        7.85310       -2.46860
C         -7.51170        4.70850       -1.33160
S         -6.03760        5.05460       -2.19380
C        -10.73120        5.87580        0.16320
C        -11.70010        5.10040        0.73110
S        -11.22740        3.41440        0.76350
C        -12.93520        5.56560        1.27840
S        -13.25160        7.28990        1.25730
C        -14.75340        7.07650        2.06610
C        -15.00520        5.76960        2.32890
C        -13.97690        4.90230        1.87850
C        -14.15450        3.45560        2.17850
C        -14.49110        3.32180        3.67640
O        -14.76970        1.98770        4.05130
C        -13.65780        1.12650        4.06390
C        -15.72240        4.16730        4.09280
O        -15.45650        4.92140        5.25800
C        -15.41820        4.16350        6.44110
C        -16.18050        5.16480        3.01500
H         12.38860      -11.66980        4.60700
H         14.70390      -10.39660        5.37980
H         14.16550       -8.95610        6.24930
H         15.33310       -9.06890        3.43980
H         18.25260       -7.80500        4.95280
H         17.63650       -8.71950        3.54810
H         17.21990       -7.00170        3.74210
H         15.01740       -6.36530        4.38180
H         14.92170       -5.12430        2.44340
H         14.57110       -5.98460        0.92110
H         13.24530       -5.57090        2.02870
H         12.51300       -6.20770        4.02830
H         13.03550       -6.91000        5.56050
H          8.43870       -8.97710        2.66350
H          6.47320       -8.79130        3.60630
H          4.61110      -10.52540        3.48520
H          1.63730       -8.61650        0.67300
H          0.47900       -9.95660        0.52370
H          2.84700       -9.47570       -1.36510
H          1.16330       -9.07160       -1.71950
H          1.64680      -10.76660       -1.51650
H          7.88700       -1.77030        1.80330
H          9.68320        0.00980        1.61110
H         11.48450        1.39350        1.58690
H         13.23230        1.51550        1.85340
H         13.03300        0.19250        3.95080
H         11.29220        0.02980        3.70590
H         11.99180        1.61950        4.03610
H          7.04890       -2.53100       -0.11890
H          2.82970       -4.46660       -1.25360
H         -1.02460       -3.55160       -3.98230
H         -2.15910       -5.77460       -3.59260
H         -2.83550       -9.27220       -2.16490
H         -3.12010       -7.69280       -2.91650
H         -2.02320       -9.22820       -4.55410
H         -0.71330       -9.53720       -3.40930
H         -0.89680       -7.93430       -4.12780
H          4.45750        1.22230       -0.83180
H          5.50370        3.38480       -1.69200
H          4.97180        5.20900       -6.32810
H          4.41900        3.56230       -5.94150
H          2.65740        6.07270       -6.02560
H          2.08960        4.44640       -5.61110
H          2.67100        4.79160       -7.24620
H          0.26030        2.00570       -2.74040
H         -0.40550        2.58050       -4.84390
H         -1.72590        3.29270       -5.78500
H         -0.47330        5.19050       -5.21010
H          1.77230        5.31860       -2.51080
H          0.24050        6.20360       -2.32020
H          1.10060        6.25500       -3.87480
H         -1.94350        5.42410       -2.65120
H         -2.22450        8.71210       -3.89260
H         -2.36540        7.69680       -2.43020
H         -3.64620        7.66450       -3.66770
H         -3.47800        4.86880       -5.23100
H         -4.18570        5.49650       -3.73650
H         -6.43820        1.52230       -1.52460
H         -9.79340        1.45580        1.82600
H        -10.17880       -1.06820        1.76230
H         -8.42880       -2.41300       -2.56740
H         -9.06900       -4.06920       -2.44720
H        -11.39930       -3.19230       -2.66090
H        -10.42870       -2.71610       -4.06220
H        -10.77630       -1.54290       -2.78790
H         -9.06430        7.82430        0.80710
H         -8.52690       10.22690        0.14070
H         -5.23850       11.56160       -3.61730
H         -5.61200        9.82080       -3.67830
H         -4.48630       11.29130       -1.23060
H         -3.51660       10.29270       -2.32350
H         -4.78870        9.55330       -1.34350
H        -10.87150        6.93010        0.01140
H        -15.35300        7.93420        2.29560
H        -13.26070        2.87920        1.95030
H        -14.98530        3.04830        1.59520
H        -13.62100        3.69260        4.24560
H        -12.83300        1.55350        4.64770
H        -13.99460        0.20450        4.53460
H        -13.29710        0.90190        3.05460
H        -16.53830        3.45610        4.29890
H        -15.22850        4.86830        7.24840
H        -14.62530        3.40910        6.42180
H        -16.37530        3.65560        6.61190
H        -16.79280        4.63490        2.28080
H        -16.79030        5.92940        3.49470
