176

C          5.44310        5.11910       10.20200
O          5.56730        4.20170       11.15530
C          4.48430        3.37600       11.09110
C          3.64510        3.80820       10.09650
C          4.27150        4.93870        9.50880
C          3.75850        5.72420        8.38690
O          2.70940        5.53720        7.82650
O          4.60240        6.70860        8.02570
C          4.39820        2.34100       12.09050
C          3.83560        1.12200       12.00650
C          3.29600        0.42610       10.87710
C          2.67670       -0.79150       10.94630
C          2.31040       -1.33490        9.69110
C          1.63860       -2.54780        9.42560
C          1.13100       -3.38560       10.48800
C          0.53380       -2.98620       11.65190
C          0.12680       -4.01290       12.52540
C          0.39830       -5.27990       12.09380
S          0.06930       -6.71240       13.04170
C          0.18740       -8.02640       11.77790
C         -0.99340       -8.02040       10.82800
Se         1.25130       -5.26470       10.40970
C          1.47870       -2.87920        8.08310
C          1.88640       -2.03730        7.02160
C          2.50990       -0.79730        7.28150
C          2.88480        0.12190        6.23030
C          3.98040        0.94080        6.18860
C          4.08510        1.78550        5.06780
C          3.05500        1.69750        4.17520
S          2.92620        2.68130        2.73590
C          1.60320        1.82110        1.81670
C          2.08390        0.54240        1.16100
Se         1.77620        0.43890        4.73630
C          2.72710       -0.50070        8.62460
S          3.49080        0.94770        9.21890
C          1.60510       -2.62020        5.76790
C          0.99490       -3.84400        5.84300
S          0.73910       -4.34470        7.49230
C          0.60780       -4.57700        4.67940
O          0.67640       -3.87900        3.52970
C          0.34510       -4.69550        2.49680
C          0.05600       -5.94700        2.98540
C          0.21040       -5.88230        4.39240
C         -0.01720       -7.02570        5.26950
O         -0.23880       -8.14720        4.88490
O          0.03200       -6.72020        6.57770
C          0.35060       -4.10160        1.20060
C          0.25230       -4.73980        0.01820
C          0.28590       -4.04820       -1.22870
C          0.44000       -4.57740       -2.47890
C          0.48830       -3.61100       -3.51480
C          0.71690       -3.78220       -4.89450
C          1.09220       -5.06170       -5.45020
C          1.90720       -6.00420       -4.88190
C          2.15010       -7.15660       -5.65130
C          1.52070       -7.18220       -6.86470
S          1.61090       -8.53000       -7.97390
C          1.03140       -7.76350       -9.52840
C          2.05170       -6.81440      -10.12340
Se         0.49540       -5.62500       -7.14280
C          0.61310       -2.63940       -5.68920
C          0.33580       -1.34510       -5.18310
C          0.21480       -1.16590       -3.79620
C          0.11610        0.12020       -3.11090
C          1.17260        0.88180       -2.71620
C          0.86940        1.92350       -1.81310
C         -0.44170        2.01250       -1.45970
S         -1.07950        3.20360       -0.33880
C         -1.85030        2.10860        0.92050
C         -3.29440        1.78570        0.60310
Se        -1.49180        0.72800       -2.36140
C          0.28590       -2.30370       -3.01050
S          0.15940       -2.29570       -1.27490
C          0.26420       -0.37770       -6.21610
C          0.54690       -0.89090       -7.45120
S          0.91020       -2.59800       -7.40010
C          0.52660       -0.21500       -8.71450
O         -0.28220        0.84550       -8.87860
C         -0.13530        1.30350      -10.14760
C          0.80910        0.54940      -10.80100
C          1.23270       -0.44810       -9.89350
C          2.20590       -1.48900      -10.19640
O          2.38460       -2.50900       -9.57250
O          2.90950       -1.21260      -11.30570
C         -0.98500        2.29930      -10.73060
C         -2.07120        2.87850      -10.19660
C         -2.53150        2.79490       -8.83010
C         -3.80040        2.55060       -8.41210
C         -3.97100        2.64440       -7.00510
C         -5.14220        2.43120       -6.25300
C         -6.40500        2.11700       -6.88570
C         -6.93200        2.67790       -8.01500
C         -8.18230        2.17870       -8.43010
C         -8.69460        1.18240       -7.64940
S        -10.18050        0.33560       -8.01750
C        -10.55430       -0.46460       -6.41860
C        -11.03430        0.52680       -5.37850
Se        -7.54400        0.77510       -6.21100
C         -5.01140        2.54780       -4.87170
C         -3.82090        2.95120       -4.22760
C         -2.66780        3.23170       -4.98660
C         -1.47220        3.77450       -4.37930
C         -1.41870        4.70540       -3.37870
C         -0.13390        5.09820       -2.95410
C          0.89000        4.48210       -3.60790
S          2.61600        4.60940       -3.35980
C          2.73390        5.58700       -1.81840
C          2.67610        7.08000       -2.07710
Se         0.27780        3.30360       -4.92740
C         -2.76740        3.00500       -6.35780
S         -1.46390        3.18680       -7.49680
C         -3.98230        2.98930       -2.80970
C         -5.22510        2.65330       -2.41070
S         -6.29180        2.27690       -3.71990
H          6.22250        5.84680       10.09310
H          2.69050        3.41560        9.81930
H          4.22760        7.19780        7.27640
H          4.87350        2.61140       13.02490
H          3.81860        0.52710       12.91210
H          2.51000       -1.29980       11.87880
H          0.32430       -1.95020       11.85960
H         -0.37250       -3.82070       13.45930
H          0.23290       -8.95350       12.34830
H          1.13530       -7.88080       11.25010
H         -1.92400       -8.12700       11.38030
H         -0.90580       -8.84800       10.12700
H         -1.02870       -7.08760       10.26450
H          4.75430        0.90280        6.93600
H          4.91760        2.45040        4.91620
H          0.79350        1.63270        2.52890
H          1.26370        2.54540        1.07750
H          2.91510        0.74760        0.49090
H          1.27850        0.09240        0.58260
H          2.41320       -0.17490        1.91330
H          1.87540       -2.18760        4.82020
H         -0.24430       -6.81530        2.43750
H         -0.12100       -7.51370        7.11400
H          0.47560       -3.02580        1.20840
H          0.17630       -5.81690       -0.02710
H          0.50370       -5.63630       -2.65280
H          2.39410       -5.84260       -3.93470
H          2.79560       -7.95290       -5.32320
H          0.08740       -7.25660       -9.30400
H          0.83710       -8.60520      -10.19260
H          1.68400       -6.43180      -11.07330
H          2.99470       -7.32920      -10.29260
H          2.22910       -5.96710       -9.46080
H          2.17900        0.67540       -3.04000
H          1.62510        2.57280       -1.40640
H         -1.76530        2.66000        1.85610
H         -1.23910        1.20790        0.96790
H         -3.88360        2.69800        0.54740
H         -3.36850        1.26100       -0.35170
H         -3.70760        1.14650        1.38080
H          0.02950        0.66150       -6.04590
H          1.14690        0.66610      -11.80950
H          3.53610       -1.93200      -11.48020
H         -0.74870        2.49670      -11.76680
H         -2.69210        3.48540      -10.84470
H         -4.58650        2.26320       -9.08680
H         -6.45130        3.49780       -8.52230
H         -8.70500        2.55630       -9.29190
H         -9.64480       -0.98200       -6.09710
H        -11.32270       -1.20120       -6.65110
H        -11.92350        1.04480       -5.72990
H        -11.27240        0.00490       -4.45410
H        -10.26110        1.26570       -5.16710
H         -2.30450        5.15400       -2.96230
H         -0.00130        5.82000       -2.16830
H          1.93740        5.25020       -1.15560
H          3.69650        5.30450       -1.39180
H          2.75600        7.61970       -1.13550
H          3.49690        7.38200       -2.72350
H          1.74180        7.35680       -2.56010
H         -3.19070        3.25010       -2.13000
H         -5.61050        2.59700       -1.41180
