
  xtb     03072215443D
 energy: -499.590254558668 gnorm: 0.000365349339 xtb: 6.4.1 (unknown)
290319  0     0  0            999 V2000
   -9.1898   -7.5095    7.5582 C   0  0  0  0  0  0  0  0  0  0  0  0
   -8.3980   -6.4382    7.3509 C   0  0  0  0  0  0  0  0  0  0  0  0
   -8.2608   -6.1037    5.9715 C   0  0  0  0  0  0  0  0  0  0  0  0
   -7.5569   -5.0213    5.4075 C   0  0  0  0  0  0  0  0  0  0  0  0
   -6.6944   -4.1627    6.1916 C   0  0  0  0  0  0  0  0  0  0  0  0
   -5.8503   -4.5373    7.1987 C   0  0  0  0  0  0  0  0  0  0  0  0
   -5.0606   -3.5163    7.7718 C   0  0  0  0  0  0  0  0  0  0  0  0
   -5.2591   -2.2779    7.2389 C   0  0  0  0  0  0  0  0  0  0  0  0
   -4.4837   -0.7472    7.5940 S   0  0  0  0  0  0  0  0  0  0  0  0
   -3.4658   -1.1135    9.0629 C   0  0  0  0  0  0  0  0  0  0  0  0
   -4.3000   -1.2261   10.3231 C   0  0  0  0  0  0  0  0  0  0  0  0
   -6.5470   -2.3049    5.8724 Se  0  0  0  0  0  2  0  0  0  0  0  0
   -7.7066   -4.8498    4.0347 C   0  0  0  0  0  0  0  0  0  0  0  0
   -8.4406   -5.7297    3.2050 C   0  0  0  0  0  0  0  0  0  0  0  0
   -9.1172   -6.8330    3.7633 C   0  0  0  0  0  0  0  0  0  0  0  0
   -9.8995   -7.7496    2.9627 C   0  0  0  0  0  0  0  0  0  0  0  0
  -10.0234   -9.1016    3.1329 C   0  0  0  0  0  0  0  0  0  0  0  0
  -10.8638   -9.7685    2.2209 C   0  0  0  0  0  0  0  0  0  0  0  0
  -11.4710   -8.9673    1.2965 C   0  0  0  0  0  0  0  0  0  0  0  0
  -12.6038   -9.5366    0.0936 S   0  0  0  0  0  0  0  0  0  0  0  0
  -12.4835   -8.2210   -1.1731 C   0  0  0  0  0  0  0  0  0  0  0  0
  -11.1619   -8.2484   -1.9125 C   0  0  0  0  0  0  0  0  0  0  0  0
  -11.0058   -7.1626    1.5492 Se  0  0  0  0  0  2  0  0  0  0  0  0
   -9.0072   -6.9774    5.1470 C   0  0  0  0  0  0  0  0  0  0  0  0
   -9.8156   -8.1947    6.1004 S   0  0  0  0  0  0  0  0  0  0  0  0
   -8.3447   -5.3612    1.8380 C   0  0  0  0  0  0  0  0  0  0  0  0
   -7.6202   -4.2297    1.6258 C   0  0  0  0  0  0  0  0  0  0  0  0
   -6.9718   -3.5687    3.1133 S   0  0  0  0  0  0  0  0  0  0  0  0
   -7.3146   -3.5801    0.3963 C   0  0  0  0  0  0  0  0  0  0  0  0
   -6.6721   -2.3878    0.2579 C   0  0  0  0  0  0  0  0  0  0  0  0
   -6.4471   -2.0187   -1.0898 C   0  0  0  0  0  0  0  0  0  0  0  0
   -5.7372   -0.8990   -1.5495 C   0  0  0  0  0  0  0  0  0  0  0  0
   -5.1012   -0.0286   -0.5436 C   0  0  0  0  0  0  0  0  0  0  0  0
   -5.5084    1.2782   -0.3041 C   0  0  0  0  0  0  0  0  0  0  0  0
   -4.9988    1.9805    0.7738 C   0  0  0  0  0  0  0  0  0  0  0  0
   -4.0548    1.4080    1.6156 C   0  0  0  0  0  0  0  0  0  0  0  0
   -3.4951    2.2605    3.0714 S   0  0  0  0  0  0  0  0  0  0  0  0
   -4.0440    1.0592    4.3468 C   0  0  0  0  0  0  0  0  0  0  0  0
   -5.5543    1.0012    4.4349 C   0  0  0  0  0  0  0  0  0  0  0  0
   -3.5786    0.1402    1.2998 C   0  0  0  0  0  0  0  0  0  0  0  0
   -2.5927   -0.4133    2.0299 F   0  0  0  0  0  0  0  0  0  0  0  0
   -4.1074   -0.5872    0.2556 C   0  0  0  0  0  0  0  0  0  0  0  0
   -5.5886   -0.7758   -2.9172 C   0  0  0  0  0  0  0  0  0  0  0  0
   -6.0715   -1.7535   -3.8263 C   0  0  0  0  0  0  0  0  0  0  0  0
   -6.7554   -2.8906   -3.3648 C   0  0  0  0  0  0  0  0  0  0  0  0
   -7.1169   -3.9914   -4.2668 C   0  0  0  0  0  0  0  0  0  0  0  0
   -6.1677   -4.5426   -5.1247 C   0  0  0  0  0  0  0  0  0  0  0  0
   -6.4793   -5.5950   -5.9629 C   0  0  0  0  0  0  0  0  0  0  0  0
   -7.7576   -6.1434   -5.9680 C   0  0  0  0  0  0  0  0  0  0  0  0
   -8.3070   -7.4504   -7.0082 S   0  0  0  0  0  0  0  0  0  0  0  0
   -6.8021   -8.0254   -7.8671 C   0  0  0  0  0  0  0  0  0  0  0  0
   -5.9242   -8.8821   -6.9756 C   0  0  0  0  0  0  0  0  0  0  0  0
   -8.6919   -5.5965   -5.0850 C   0  0  0  0  0  0  0  0  0  0  0  0
   -8.3947   -4.5454   -4.2477 C   0  0  0  0  0  0  0  0  0  0  0  0
   -9.9388   -6.1137   -5.0463 F   0  0  0  0  0  0  0  0  0  0  0  0
   -6.9618   -2.9759   -1.9962 C   0  0  0  0  0  0  0  0  0  0  0  0
   -7.7151   -4.3043   -1.1489 S   0  0  0  0  0  0  0  0  0  0  0  0
   -5.6525   -1.4828   -5.1527 C   0  0  0  0  0  0  0  0  0  0  0  0
   -4.8417   -0.3930   -5.2621 C   0  0  0  0  0  0  0  0  0  0  0  0
   -4.6522    0.4505   -3.7329 S   0  0  0  0  0  0  0  0  0  0  0  0
   -3.9347   -0.1504   -6.3457 C   0  0  0  0  0  0  0  0  0  0  0  0
   -3.3630   -1.1738   -7.0436 C   0  0  0  0  0  0  0  0  0  0  0  0
   -2.2129   -0.7936   -7.7741 C   0  0  0  0  0  0  0  0  0  0  0  0
   -1.2400   -1.6661   -8.2959 C   0  0  0  0  0  0  0  0  0  0  0  0
   -1.4848   -3.1149   -8.2446 C   0  0  0  0  0  0  0  0  0  0  0  0
   -0.6162   -3.9649   -7.5648 C   0  0  0  0  0  0  0  0  0  0  0  0
   -0.9050   -5.3053   -7.3975 C   0  0  0  0  0  0  0  0  0  0  0  0
   -2.0800   -5.8455   -7.9071 C   0  0  0  0  0  0  0  0  0  0  0  0
   -2.6020   -7.5162   -7.7077 S   0  0  0  0  0  0  0  0  0  0  0  0
   -1.0802   -8.4115   -7.2555 C   0  0  0  0  0  0  0  0  0  0  0  0
   -0.0937   -8.4726   -8.4054 C   0  0  0  0  0  0  0  0  0  0  0  0
   -2.9405   -4.9847   -8.5900 C   0  0  0  0  0  0  0  0  0  0  0  0
   -4.1046   -5.4741   -9.0729 F   0  0  0  0  0  0  0  0  0  0  0  0
   -2.6627   -3.6484   -8.7664 C   0  0  0  0  0  0  0  0  0  0  0  0
   -0.0232   -1.0943   -8.6195 C   0  0  0  0  0  0  0  0  0  0  0  0
    0.2394    0.2979   -8.5199 C   0  0  0  0  0  0  0  0  0  0  0  0
   -0.7612    1.1729   -8.0648 C   0  0  0  0  0  0  0  0  0  0  0  0
   -0.5268    2.6109   -7.8707 C   0  0  0  0  0  0  0  0  0  0  0  0
    0.5191    3.0811   -7.0838 C   0  0  0  0  0  0  0  0  0  0  0  0
    0.7241    4.4354   -6.8998 C   0  0  0  0  0  0  0  0  0  0  0  0
   -0.1139    5.3691   -7.4990 C   0  0  0  0  0  0  0  0  0  0  0  0
    0.0402    7.1149   -7.3641 S   0  0  0  0  0  0  0  0  0  0  0  0
    1.5589    7.3331   -6.3625 C   0  0  0  0  0  0  0  0  0  0  0  0
    1.8335    8.8183   -6.2185 C   0  0  0  0  0  0  0  0  0  0  0  0
   -1.1745    4.8812   -8.2666 C   0  0  0  0  0  0  0  0  0  0  0  0
   -1.3921    3.5354   -8.4523 C   0  0  0  0  0  0  0  0  0  0  0  0
   -2.0127    5.7594   -8.8508 F   0  0  0  0  0  0  0  0  0  0  0  0
   -1.9558    0.5929   -7.6630 C   0  0  0  0  0  0  0  0  0  0  0  0
   -3.1711    1.3865   -6.6843 S   0  0  0  0  0  0  0  0  0  0  0  0
    1.6239    0.5850   -8.6573 C   0  0  0  0  0  0  0  0  0  0  0  0
    2.4035   -0.5325   -8.7447 C   0  0  0  0  0  0  0  0  0  0  0  0
    1.4371   -1.9863   -8.9677 S   0  0  0  0  0  0  0  0  0  0  0  0
    3.7066   -0.6705   -8.1691 C   0  0  0  0  0  0  0  0  0  0  0  0
    4.0650   -1.7721   -7.4466 C   0  0  0  0  0  0  0  0  0  0  0  0
    4.9613   -1.4886   -6.3873 C   0  0  0  0  0  0  0  0  0  0  0  0
    5.1232   -2.2786   -5.2369 C   0  0  0  0  0  0  0  0  0  0  0  0
    4.5044   -3.6132   -5.2183 C   0  0  0  0  0  0  0  0  0  0  0  0
    4.8574   -4.5683   -6.1674 C   0  0  0  0  0  0  0  0  0  0  0  0
    4.1813   -5.7693   -6.2552 C   0  0  0  0  0  0  0  0  0  0  0  0
    3.1223   -6.0493   -5.3999 C   0  0  0  0  0  0  0  0  0  0  0  0
    2.1264   -7.5058   -5.4962 S   0  0  0  0  0  0  0  0  0  0  0  0
    3.2828   -8.7676   -6.1329 C   0  0  0  0  0  0  0  0  0  0  0  0
    4.4391   -9.0112   -5.1839 C   0  0  0  0  0  0  0  0  0  0  0  0
    2.7882   -5.0904   -4.4445 C   0  0  0  0  0  0  0  0  0  0  0  0
    1.7551   -5.3249   -3.6134 F   0  0  0  0  0  0  0  0  0  0  0  0
    3.4636   -3.8935   -4.3379 C   0  0  0  0  0  0  0  0  0  0  0  0
    5.6738   -1.6536   -4.1318 C   0  0  0  0  0  0  0  0  0  0  0  0
    6.1795   -0.3283   -4.1717 C   0  0  0  0  0  0  0  0  0  0  0  0
    6.0526    0.4468   -5.3381 C   0  0  0  0  0  0  0  0  0  0  0  0
    6.4432    1.8622   -5.3795 C   0  0  0  0  0  0  0  0  0  0  0  0
    5.9763    2.7667   -4.4305 C   0  0  0  0  0  0  0  0  0  0  0  0
    6.3422    4.0981   -4.4716 C   0  0  0  0  0  0  0  0  0  0  0  0
    7.1990    4.5704   -5.4591 C   0  0  0  0  0  0  0  0  0  0  0  0
    7.7534    6.2366   -5.6164 S   0  0  0  0  0  0  0  0  0  0  0  0
    7.4009    6.9729   -3.9823 C   0  0  0  0  0  0  0  0  0  0  0  0
    8.2806    6.3994   -2.8873 C   0  0  0  0  0  0  0  0  0  0  0  0
    7.6319    3.6588   -6.4241 C   0  0  0  0  0  0  0  0  0  0  0  0
    7.2645    2.3319   -6.4015 C   0  0  0  0  0  0  0  0  0  0  0  0
    8.4442    4.0883   -7.4086 F   0  0  0  0  0  0  0  0  0  0  0  0
    5.3932   -0.1418   -6.4045 C   0  0  0  0  0  0  0  0  0  0  0  0
    4.6883    0.7283   -7.7535 S   0  0  0  0  0  0  0  0  0  0  0  0
    6.5879    0.1133   -2.8876 C   0  0  0  0  0  0  0  0  0  0  0  0
    6.3136   -0.7769   -1.8912 C   0  0  0  0  0  0  0  0  0  0  0  0
    5.6887   -2.2910   -2.5076 S   0  0  0  0  0  0  0  0  0  0  0  0
    6.2604   -0.4578   -0.4943 C   0  0  0  0  0  0  0  0  0  0  0  0
    6.9617    0.5020    0.1709 C   0  0  0  0  0  0  0  0  0  0  0  0
    6.4319    0.8085    1.4516 C   0  0  0  0  0  0  0  0  0  0  0  0
    6.8741    1.7862    2.3590 C   0  0  0  0  0  0  0  0  0  0  0  0
    8.0021    2.6814    2.0740 C   0  0  0  0  0  0  0  0  0  0  0  0
    8.0706    3.3929    0.8794 C   0  0  0  0  0  0  0  0  0  0  0  0
    9.0921    4.2912    0.6361 C   0  0  0  0  0  0  0  0  0  0  0  0
   10.0878    4.5092    1.5812 C   0  0  0  0  0  0  0  0  0  0  0  0
   11.4250    5.6460    1.4270 S   0  0  0  0  0  0  0  0  0  0  0  0
   11.4175    6.1194   -0.3361 C   0  0  0  0  0  0  0  0  0  0  0  0
   11.8793    4.9939   -1.2421 C   0  0  0  0  0  0  0  0  0  0  0  0
   10.0023    3.7940    2.7773 C   0  0  0  0  0  0  0  0  0  0  0  0
   10.9426    3.9945    3.7231 F   0  0  0  0  0  0  0  0  0  0  0  0
    8.9898    2.8984    3.0329 C   0  0  0  0  0  0  0  0  0  0  0  0
    6.1259    1.9432    3.5166 C   0  0  0  0  0  0  0  0  0  0  0  0
    4.9502    1.1998    3.7789 C   0  0  0  0  0  0  0  0  0  0  0  0
    4.5288    0.1923    2.8952 C   0  0  0  0  0  0  0  0  0  0  0  0
    3.2841   -0.5306    3.1878 C   0  0  0  0  0  0  0  0  0  0  0  0
    2.2363   -0.5773    2.2707 C   0  0  0  0  0  0  0  0  0  0  0  0
    1.0078   -1.0890    2.6352 C   0  0  0  0  0  0  0  0  0  0  0  0
    0.7860   -1.5878    3.9153 C   0  0  0  0  0  0  0  0  0  0  0  0
   -0.8406   -2.1321    4.3416 S   0  0  0  0  0  0  0  0  0  0  0  0
   -1.1079   -1.3342    5.9716 C   0  0  0  0  0  0  0  0  0  0  0  0
   -0.7626    0.1409    5.9626 C   0  0  0  0  0  0  0  0  0  0  0  0
    1.8684   -1.6235    4.7896 C   0  0  0  0  0  0  0  0  0  0  0  0
    3.0935   -1.0906    4.4490 C   0  0  0  0  0  0  0  0  0  0  0  0
    1.7382   -2.1641    6.0211 F   0  0  0  0  0  0  0  0  0  0  0  0
    5.2868    0.0238    1.7480 C   0  0  0  0  0  0  0  0  0  0  0  0
    4.9390   -1.1016    0.4643 S   0  0  0  0  0  0  0  0  0  0  0  0
    4.2594    1.6902    4.9146 C   0  0  0  0  0  0  0  0  0  0  0  0
    4.8807    2.7362    5.5237 C   0  0  0  0  0  0  0  0  0  0  0  0
    6.3869    3.1666    4.7369 S   0  0  0  0  0  0  0  0  0  0  0  0
    4.3882    3.4902    6.6277 C   0  0  0  0  0  0  0  0  0  0  0  0
    5.0490    4.3878    7.4068 C   0  0  0  0  0  0  0  0  0  0  0  0
    4.2313    4.9957    8.3944 C   0  0  0  0  0  0  0  0  0  0  0  0
    4.6036    5.9670    9.3448 C   0  0  0  0  0  0  0  0  0  0  0  0
    5.9145    6.5782    9.3448 C   0  0  0  0  0  0  0  0  0  0  0  0
    6.6706    6.9508   10.4218 C   0  0  0  0  0  0  0  0  0  0  0  0
    7.9028    7.5677   10.1313 C   0  0  0  0  0  0  0  0  0  0  0  0
    8.1696    7.7388    8.8028 C   0  0  0  0  0  0  0  0  0  0  0  0
    9.5931    8.5417    8.1837 S   0  0  0  0  0  0  0  0  0  0  0  0
    9.6726    7.8860    6.4775 C   0  0  0  0  0  0  0  0  0  0  0  0
   10.0783    6.4275    6.4379 C   0  0  0  0  0  0  0  0  0  0  0  0
    6.7596    7.0967    7.7358 Se  0  0  0  0  0  2  0  0  0  0  0  0
    3.6193    6.3207   10.2679 C   0  0  0  0  0  0  0  0  0  0  0  0
    2.2945    5.8262   10.2276 C   0  0  0  0  0  0  0  0  0  0  0  0
    1.8932    4.9431    9.2035 C   0  0  0  0  0  0  0  0  0  0  0  0
    0.5099    4.5671    9.0095 C   0  0  0  0  0  0  0  0  0  0  0  0
   -0.5870    5.3597    9.2176 C   0  0  0  0  0  0  0  0  0  0  0  0
   -1.8412    4.7841    8.9322 C   0  0  0  0  0  0  0  0  0  0  0  0
   -1.7864    3.5026    8.4697 C   0  0  0  0  0  0  0  0  0  0  0  0
   -3.0995    2.4458    7.9950 S   0  0  0  0  0  0  0  0  0  0  0  0
   -4.4015    3.6149    7.4666 C   0  0  0  0  0  0  0  0  0  0  0  0
   -3.9829    4.4670    6.2860 C   0  0  0  0  0  0  0  0  0  0  0  0
   -0.0197    2.8799    8.3403 Se  0  0  0  0  0  2  0  0  0  0  0  0
    2.9045    4.5087    8.3499 C   0  0  0  0  0  0  0  0  0  0  0  0
    2.6991    3.3430    7.0731 S   0  0  0  0  0  0  0  0  0  0  0  0
    1.5159    6.3315   11.3105 C   0  0  0  0  0  0  0  0  0  0  0  0
    2.1961    7.1907   12.0957 C   0  0  0  0  0  0  0  0  0  0  0  0
    3.8275    7.4440   11.5860 S   0  0  0  0  0  0  0  0  0  0  0  0
   -9.4591   -7.9608    8.4931 H   0  0  0  0  0  0  0  0  0  0  0  0
   -7.9477   -5.8711    8.1445 H   0  0  0  0  0  0  0  0  0  0  0  0
   -5.7421   -5.5649    7.5038 H   0  0  0  0  0  0  0  0  0  0  0  0
   -4.3491   -3.7270    8.5513 H   0  0  0  0  0  0  0  0  0  0  0  0
   -2.7825   -0.2663    9.1190 H   0  0  0  0  0  0  0  0  0  0  0  0
   -2.8955   -2.0180    8.8560 H   0  0  0  0  0  0  0  0  0  0  0  0
   -3.6547   -1.4297   11.1753 H   0  0  0  0  0  0  0  0  0  0  0  0
   -5.0294   -2.0287   10.2376 H   0  0  0  0  0  0  0  0  0  0  0  0
   -4.8321   -0.2951   10.5033 H   0  0  0  0  0  0  0  0  0  0  0  0
   -9.4606   -9.6401    3.8764 H   0  0  0  0  0  0  0  0  0  0  0  0
  -11.0082  -10.8349    2.2345 H   0  0  0  0  0  0  0  0  0  0  0  0
  -12.6459   -7.2661   -0.6634 H   0  0  0  0  0  0  0  0  0  0  0  0
  -13.3185   -8.4134   -1.8456 H   0  0  0  0  0  0  0  0  0  0  0  0
  -11.1562   -7.4879   -2.6903 H   0  0  0  0  0  0  0  0  0  0  0  0
  -11.0059   -9.2200   -2.3752 H   0  0  0  0  0  0  0  0  0  0  0  0
  -10.3340   -8.0511   -1.2309 H   0  0  0  0  0  0  0  0  0  0  0  0
   -8.7692   -5.9191    1.0203 H   0  0  0  0  0  0  0  0  0  0  0  0
   -6.3622   -1.7951    1.1000 H   0  0  0  0  0  0  0  0  0  0  0  0
   -6.2585    1.7291   -0.9357 H   0  0  0  0  0  0  0  0  0  0  0  0
   -5.3478    2.9782    0.9906 H   0  0  0  0  0  0  0  0  0  0  0  0
   -3.6111    1.4203    5.2786 H   0  0  0  0  0  0  0  0  0  0  0  0
   -3.6163    0.0862    4.1153 H   0  0  0  0  0  0  0  0  0  0  0  0
   -5.9842    0.5962    3.5200 H   0  0  0  0  0  0  0  0  0  0  0  0
   -5.9681    1.9934    4.6028 H   0  0  0  0  0  0  0  0  0  0  0  0
   -5.8423    0.3573    5.2675 H   0  0  0  0  0  0  0  0  0  0  0  0
   -3.7433   -1.5861    0.0705 H   0  0  0  0  0  0  0  0  0  0  0  0
   -5.1576   -4.1606   -5.1163 H   0  0  0  0  0  0  0  0  0  0  0  0
   -5.7142   -5.9843   -6.6143 H   0  0  0  0  0  0  0  0  0  0  0  0
   -7.1939   -8.6099   -8.6996 H   0  0  0  0  0  0  0  0  0  0  0  0
   -6.2721   -7.1639   -8.2692 H   0  0  0  0  0  0  0  0  0  0  0  0
   -5.5803   -8.3220   -6.1093 H   0  0  0  0  0  0  0  0  0  0  0  0
   -5.0534   -9.2156   -7.5355 H   0  0  0  0  0  0  0  0  0  0  0  0
   -6.4757   -9.7522   -6.6268 H   0  0  0  0  0  0  0  0  0  0  0  0
   -9.1633   -4.1553   -3.5994 H   0  0  0  0  0  0  0  0  0  0  0  0
   -5.9273   -2.0919   -5.9940 H   0  0  0  0  0  0  0  0  0  0  0  0
   -3.6772   -2.1950   -6.9331 H   0  0  0  0  0  0  0  0  0  0  0  0
    0.2833   -3.5687   -7.1202 H   0  0  0  0  0  0  0  0  0  0  0  0
   -0.2183   -5.9193   -6.8371 H   0  0  0  0  0  0  0  0  0  0  0  0
   -0.6507   -7.9558   -6.3645 H   0  0  0  0  0  0  0  0  0  0  0  0
   -1.4405   -9.4077   -6.9981 H   0  0  0  0  0  0  0  0  0  0  0  0
    0.2489   -7.4766   -8.6779 H   0  0  0  0  0  0  0  0  0  0  0  0
    0.7691   -9.0688   -8.1165 H   0  0  0  0  0  0  0  0  0  0  0  0
   -0.5567   -8.9291   -9.2775 H   0  0  0  0  0  0  0  0  0  0  0  0
   -3.3617   -3.0297   -9.3076 H   0  0  0  0  0  0  0  0  0  0  0  0
    1.1682    2.3799   -6.5809 H   0  0  0  0  0  0  0  0  0  0  0  0
    1.5446    4.7564   -6.2793 H   0  0  0  0  0  0  0  0  0  0  0  0
    2.3781    6.8340   -6.8805 H   0  0  0  0  0  0  0  0  0  0  0  0
    1.3901    6.8726   -5.3887 H   0  0  0  0  0  0  0  0  0  0  0  0
    2.7345    8.9733   -5.6286 H   0  0  0  0  0  0  0  0  0  0  0  0
    1.0014    9.3128   -5.7228 H   0  0  0  0  0  0  0  0  0  0  0  0
    1.9728    9.2754   -7.1951 H   0  0  0  0  0  0  0  0  0  0  0  0
   -2.2232    3.2142   -9.0603 H   0  0  0  0  0  0  0  0  0  0  0  0
    2.0385    1.5715   -8.5570 H   0  0  0  0  0  0  0  0  0  0  0  0
    3.5687   -2.7197   -7.5536 H   0  0  0  0  0  0  0  0  0  0  0  0
    5.6654   -4.3616   -6.8530 H   0  0  0  0  0  0  0  0  0  0  0  0
    4.4678   -6.4795   -7.0145 H   0  0  0  0  0  0  0  0  0  0  0  0
    3.6168   -8.4712   -7.1268 H   0  0  0  0  0  0  0  0  0  0  0  0
    2.6608   -9.6582   -6.2246 H   0  0  0  0  0  0  0  0  0  0  0  0
    4.0671   -9.3048   -4.2048 H   0  0  0  0  0  0  0  0  0  0  0  0
    5.0438   -8.1136   -5.0676 H   0  0  0  0  0  0  0  0  0  0  0  0
    5.0717   -9.8081   -5.5697 H   0  0  0  0  0  0  0  0  0  0  0  0
    3.1519   -3.1789   -3.5928 H   0  0  0  0  0  0  0  0  0  0  0  0
    5.2934    2.4309   -3.6645 H   0  0  0  0  0  0  0  0  0  0  0  0
    5.9432    4.7694   -3.7280 H   0  0  0  0  0  0  0  0  0  0  0  0
    6.3397    6.8588   -3.7646 H   0  0  0  0  0  0  0  0  0  0  0  0
    7.6110    8.0319   -4.1312 H   0  0  0  0  0  0  0  0  0  0  0  0
    8.1212    5.3277   -2.7823 H   0  0  0  0  0  0  0  0  0  0  0  0
    9.3286    6.5699   -3.1237 H   0  0  0  0  0  0  0  0  0  0  0  0
    8.0481    6.8840   -1.9400 H   0  0  0  0  0  0  0  0  0  0  0  0
    7.6346    1.6685   -7.1672 H   0  0  0  0  0  0  0  0  0  0  0  0
    6.9948    1.0896   -2.6988 H   0  0  0  0  0  0  0  0  0  0  0  0
    7.8338    0.9777   -0.2390 H   0  0  0  0  0  0  0  0  0  0  0  0
    7.2916    3.2694    0.1419 H   0  0  0  0  0  0  0  0  0  0  0  0
    9.0958    4.8354   -0.2943 H   0  0  0  0  0  0  0  0  0  0  0  0
   12.1141    6.9569   -0.3751 H   0  0  0  0  0  0  0  0  0  0  0  0
   10.4238    6.4834   -0.5939 H   0  0  0  0  0  0  0  0  0  0  0  0
   11.2184    4.1329   -1.1677 H   0  0  0  0  0  0  0  0  0  0  0  0
   12.8826    4.6791   -0.9659 H   0  0  0  0  0  0  0  0  0  0  0  0
   11.8947    5.3323   -2.2764 H   0  0  0  0  0  0  0  0  0  0  0  0
    8.9838    2.3675    3.9714 H   0  0  0  0  0  0  0  0  0  0  0  0
    2.3689   -0.1590    1.2848 H   0  0  0  0  0  0  0  0  0  0  0  0
    0.1809   -1.0789    1.9431 H   0  0  0  0  0  0  0  0  0  0  0  0
   -2.1750   -1.4809    6.1383 H   0  0  0  0  0  0  0  0  0  0  0  0
   -0.5459   -1.8784    6.7289 H   0  0  0  0  0  0  0  0  0  0  0  0
   -1.1952    0.6331    5.0950 H   0  0  0  0  0  0  0  0  0  0  0  0
    0.3146    0.2969    5.9446 H   0  0  0  0  0  0  0  0  0  0  0  0
   -1.1598    0.6124    6.8628 H   0  0  0  0  0  0  0  0  0  0  0  0
    3.8971   -1.1229    5.1689 H   0  0  0  0  0  0  0  0  0  0  0  0
    3.3130    1.3083    5.2519 H   0  0  0  0  0  0  0  0  0  0  0  0
    6.1051    4.5659    7.2930 H   0  0  0  0  0  0  0  0  0  0  0  0
    6.3768    6.7297   11.4338 H   0  0  0  0  0  0  0  0  0  0  0  0
    8.5958    7.8726   10.8960 H   0  0  0  0  0  0  0  0  0  0  0  0
    8.6903    8.0484    6.0225 H   0  0  0  0  0  0  0  0  0  0  0  0
   10.4070    8.5159    5.9769 H   0  0  0  0  0  0  0  0  0  0  0  0
    9.3336    5.8064    6.9361 H   0  0  0  0  0  0  0  0  0  0  0  0
   11.0357    6.2857    6.9331 H   0  0  0  0  0  0  0  0  0  0  0  0
   10.1690    6.0950    5.4065 H   0  0  0  0  0  0  0  0  0  0  0  0
   -0.5022    6.3861    9.5325 H   0  0  0  0  0  0  0  0  0  0  0  0
   -2.7603    5.3278    9.0693 H   0  0  0  0  0  0  0  0  0  0  0  0
   -4.6790    4.2178    8.3309 H   0  0  0  0  0  0  0  0  0  0  0  0
   -5.2334    2.9591    7.2100 H   0  0  0  0  0  0  0  0  0  0  0  0
   -3.1246    5.0861    6.5387 H   0  0  0  0  0  0  0  0  0  0  0  0
   -3.7168    3.8474    5.4332 H   0  0  0  0  0  0  0  0  0  0  0  0
   -4.8061    5.1176    5.9978 H   0  0  0  0  0  0  0  0  0  0  0  0
    0.5044    6.0267   11.5057 H   0  0  0  0  0  0  0  0  0  0  0  0
    1.8485    7.6999   12.9731 H   0  0  0  0  0  0  0  0  0  0  0  0
  1  2  2  0  0  0  0
  2  3  1  0  0  0  0
  3  4  2  0  0  0  0
  4  5  1  0  0  0  0
  5  6  2  0  0  0  0
  6  7  1  0  0  0  0
  7  8  2  0  0  0  0
  8  9  1  0  0  0  0
  9 10  1  0  0  0  0
 10 11  1  0  0  0  0
  8 12  1  0  0  0  0
  4 13  1  0  0  0  0
 13 14  2  0  0  0  0
 14 15  1  0  0  0  0
 15 16  1  0  0  0  0
 16 17  2  0  0  0  0
 17 18  1  0  0  0  0
 18 19  2  0  0  0  0
 19 20  1  0  0  0  0
 20 21  1  0  0  0  0
 21 22  1  0  0  0  0
 19 23  1  0  0  0  0
 15 24  2  0  0  0  0
 24 25  1  0  0  0  0
 14 26  1  0  0  0  0
 26 27  2  0  0  0  0
 27 28  1  0  0  0  0
 27 29  1  0  0  0  0
 29 30  2  0  0  0  0
 30 31  1  0  0  0  0
 31 32  2  0  0  0  0
 32 33  1  0  0  0  0
 33 34  2  0  0  0  0
 34 35  1  0  0  0  0
 35 36  2  0  0  0  0
 36 37  1  0  0  0  0
 37 38  1  0  0  0  0
 38 39  1  0  0  0  0
 36 40  1  0  0  0  0
 40 41  1  0  0  0  0
 40 42  2  0  0  0  0
 32 43  1  0  0  0  0
 43 44  2  0  0  0  0
 44 45  1  0  0  0  0
 45 46  1  0  0  0  0
 46 47  2  0  0  0  0
 47 48  1  0  0  0  0
 48 49  2  0  0  0  0
 49 50  1  0  0  0  0
 50 51  1  0  0  0  0
 51 52  1  0  0  0  0
 49 53  1  0  0  0  0
 53 54  2  0  0  0  0
 53 55  1  0  0  0  0
 45 56  2  0  0  0  0
 56 57  1  0  0  0  0
 44 58  1  0  0  0  0
 58 59  2  0  0  0  0
 59 60  1  0  0  0  0
 59 61  1  0  0  0  0
 61 62  2  0  0  0  0
 62 63  1  0  0  0  0
 63 64  2  0  0  0  0
 64 65  1  0  0  0  0
 65 66  2  0  0  0  0
 66 67  1  0  0  0  0
 67 68  2  0  0  0  0
 68 69  1  0  0  0  0
 69 70  1  0  0  0  0
 70 71  1  0  0  0  0
 68 72  1  0  0  0  0
 72 73  1  0  0  0  0
 72 74  2  0  0  0  0
 64 75  1  0  0  0  0
 75 76  2  0  0  0  0
 76 77  1  0  0  0  0
 77 78  1  0  0  0  0
 78 79  2  0  0  0  0
 79 80  1  0  0  0  0
 80 81  2  0  0  0  0
 81 82  1  0  0  0  0
 82 83  1  0  0  0  0
 83 84  1  0  0  0  0
 81 85  1  0  0  0  0
 85 86  2  0  0  0  0
 85 87  1  0  0  0  0
 77 88  2  0  0  0  0
 88 89  1  0  0  0  0
 76 90  1  0  0  0  0
 90 91  2  0  0  0  0
 91 92  1  0  0  0  0
 91 93  1  0  0  0  0
 93 94  2  0  0  0  0
 94 95  1  0  0  0  0
 95 96  2  0  0  0  0
 96 97  1  0  0  0  0
 97 98  2  0  0  0  0
 98 99  1  0  0  0  0
 99100  2  0  0  0  0
100101  1  0  0  0  0
101102  1  0  0  0  0
102103  1  0  0  0  0
100104  1  0  0  0  0
104105  1  0  0  0  0
104106  2  0  0  0  0
 96107  1  0  0  0  0
107108  2  0  0  0  0
108109  1  0  0  0  0
109110  1  0  0  0  0
110111  2  0  0  0  0
111112  1  0  0  0  0
112113  2  0  0  0  0
113114  1  0  0  0  0
114115  1  0  0  0  0
115116  1  0  0  0  0
113117  1  0  0  0  0
117118  2  0  0  0  0
117119  1  0  0  0  0
109120  2  0  0  0  0
120121  1  0  0  0  0
108122  1  0  0  0  0
122123  2  0  0  0  0
123124  1  0  0  0  0
123125  1  0  0  0  0
125126  2  0  0  0  0
126127  1  0  0  0  0
127128  2  0  0  0  0
128129  1  0  0  0  0
129130  2  0  0  0  0
130131  1  0  0  0  0
131132  2  0  0  0  0
132133  1  0  0  0  0
133134  1  0  0  0  0
134135  1  0  0  0  0
132136  1  0  0  0  0
136137  1  0  0  0  0
136138  2  0  0  0  0
128139  1  0  0  0  0
139140  2  0  0  0  0
140141  1  0  0  0  0
141142  1  0  0  0  0
142143  2  0  0  0  0
143144  1  0  0  0  0
144145  2  0  0  0  0
145146  1  0  0  0  0
146147  1  0  0  0  0
147148  1  0  0  0  0
145149  1  0  0  0  0
149150  2  0  0  0  0
149151  1  0  0  0  0
141152  2  0  0  0  0
152153  1  0  0  0  0
140154  1  0  0  0  0
154155  2  0  0  0  0
155156  1  0  0  0  0
155157  1  0  0  0  0
157158  2  0  0  0  0
158159  1  0  0  0  0
159160  2  0  0  0  0
160161  1  0  0  0  0
161162  2  0  0  0  0
162163  1  0  0  0  0
163164  2  0  0  0  0
164165  1  0  0  0  0
165166  1  0  0  0  0
166167  1  0  0  0  0
164168  1  0  0  0  0
160169  1  0  0  0  0
169170  2  0  0  0  0
170171  1  0  0  0  0
171172  1  0  0  0  0
172173  2  0  0  0  0
173174  1  0  0  0  0
174175  2  0  0  0  0
175176  1  0  0  0  0
176177  1  0  0  0  0
177178  1  0  0  0  0
175179  1  0  0  0  0
171180  2  0  0  0  0
180181  1  0  0  0  0
170182  1  0  0  0  0
182183  2  0  0  0  0
183184  1  0  0  0  0
 25  1  1  0  0  0  0
 57 29  1  0  0  0  0
 89 61  1  0  0  0  0
121 93  1  0  0  0  0
153125  1  0  0  0  0
181157  1  0  0  0  0
 24  3  1  0  0  0  0
 56 31  1  0  0  0  0
 88 63  1  0  0  0  0
120 95  1  0  0  0  0
152127  1  0  0  0  0
180159  1  0  0  0  0
 12  5  1  0  0  0  0
 28 13  1  0  0  0  0
 42 33  1  0  0  0  0
 60 43  1  0  0  0  0
 74 65  1  0  0  0  0
 92 75  1  0  0  0  0
106 97  1  0  0  0  0
124107  1  0  0  0  0
138129  1  0  0  0  0
156139  1  0  0  0  0
168161  1  0  0  0  0
184169  1  0  0  0  0
 23 16  1  0  0  0  0
 54 46  1  0  0  0  0
 86 78  1  0  0  0  0
118110  1  0  0  0  0
150142  1  0  0  0  0
179172  1  0  0  0  0
  1185  1  0  0  0  0
  2186  1  0  0  0  0
  6187  1  0  0  0  0
  7188  1  0  0  0  0
 10189  1  0  0  0  0
 10190  1  0  0  0  0
 11191  1  0  0  0  0
 11192  1  0  0  0  0
 11193  1  0  0  0  0
 17194  1  0  0  0  0
 18195  1  0  0  0  0
 21196  1  0  0  0  0
 21197  1  0  0  0  0
 22198  1  0  0  0  0
 22199  1  0  0  0  0
 22200  1  0  0  0  0
 26201  1  0  0  0  0
 30202  1  0  0  0  0
 34203  1  0  0  0  0
 35204  1  0  0  0  0
 38205  1  0  0  0  0
 38206  1  0  0  0  0
 39207  1  0  0  0  0
 39208  1  0  0  0  0
 39209  1  0  0  0  0
 42210  1  0  0  0  0
 47211  1  0  0  0  0
 48212  1  0  0  0  0
 51213  1  0  0  0  0
 51214  1  0  0  0  0
 52215  1  0  0  0  0
 52216  1  0  0  0  0
 52217  1  0  0  0  0
 54218  1  0  0  0  0
 58219  1  0  0  0  0
 62220  1  0  0  0  0
 66221  1  0  0  0  0
 67222  1  0  0  0  0
 70223  1  0  0  0  0
 70224  1  0  0  0  0
 71225  1  0  0  0  0
 71226  1  0  0  0  0
 71227  1  0  0  0  0
 74228  1  0  0  0  0
 79229  1  0  0  0  0
 80230  1  0  0  0  0
 83231  1  0  0  0  0
 83232  1  0  0  0  0
 84233  1  0  0  0  0
 84234  1  0  0  0  0
 84235  1  0  0  0  0
 86236  1  0  0  0  0
 90237  1  0  0  0  0
 94238  1  0  0  0  0
 98239  1  0  0  0  0
 99240  1  0  0  0  0
102241  1  0  0  0  0
102242  1  0  0  0  0
103243  1  0  0  0  0
103244  1  0  0  0  0
103245  1  0  0  0  0
106246  1  0  0  0  0
111247  1  0  0  0  0
112248  1  0  0  0  0
115249  1  0  0  0  0
115250  1  0  0  0  0
116251  1  0  0  0  0
116252  1  0  0  0  0
116253  1  0  0  0  0
118254  1  0  0  0  0
122255  1  0  0  0  0
126256  1  0  0  0  0
130257  1  0  0  0  0
131258  1  0  0  0  0
134259  1  0  0  0  0
134260  1  0  0  0  0
135261  1  0  0  0  0
135262  1  0  0  0  0
135263  1  0  0  0  0
138264  1  0  0  0  0
143265  1  0  0  0  0
144266  1  0  0  0  0
147267  1  0  0  0  0
147268  1  0  0  0  0
148269  1  0  0  0  0
148270  1  0  0  0  0
148271  1  0  0  0  0
150272  1  0  0  0  0
154273  1  0  0  0  0
158274  1  0  0  0  0
162275  1  0  0  0  0
163276  1  0  0  0  0
166277  1  0  0  0  0
166278  1  0  0  0  0
167279  1  0  0  0  0
167280  1  0  0  0  0
167281  1  0  0  0  0
173282  1  0  0  0  0
174283  1  0  0  0  0
177284  1  0  0  0  0
177285  1  0  0  0  0
178286  1  0  0  0  0
178287  1  0  0  0  0
178288  1  0  0  0  0
182289  1  0  0  0  0
183290  1  0  0  0  0
M  END
