136

C          5.04610       -1.92860       11.39100
S          4.21810       -2.58830       10.03530
C          3.85790       -0.99540        9.41870
C          4.38100       -0.03400       10.24410
C          5.06000       -0.57230       11.36730
C          5.61510        0.38140       12.36940
C          4.52780        1.42500       12.64760
C          4.09420        2.17520       11.37600
C          4.44960        1.45140       10.05870
O          5.78210        1.72820        9.65360
C          3.09470       -0.87130        8.21090
C          2.21090        0.10000        7.85210
C          1.62460       -0.09820        6.57550
C          0.65630        0.70430        5.93440
C          0.05300        1.84390        6.58860
C         -0.31530        1.95930        7.90070
C         -0.85040        3.20160        8.29250
C         -0.92410        4.13550        7.29870
S         -1.52950        5.75970        7.52490
C         -1.41570        6.39050        5.81040
C         -1.89890        7.82420        5.74420
Se        -0.29620        3.44850        5.65900
C          0.31700        0.32870        4.63990
C          0.84220       -0.80970        3.98960
C          1.73980       -1.66530        4.66190
C          2.20260       -2.90480        4.08030
C          3.42110       -3.50720        4.23610
C          3.58810       -4.75090        3.59840
C          2.49530       -5.20640        2.91640
S          2.46990       -6.71140        2.02320
C          0.96440       -6.53930        0.99710
C         -0.29320       -6.95750        1.73270
Se         1.05680       -4.00800        3.06280
C          2.12450       -1.25960        5.93960
S          3.24450       -2.10180        6.97510
C          0.35460       -0.92310        2.66570
C         -0.54480        0.03830        2.30790
S         -0.82370        1.16740        3.62060
C         -1.21500        0.11020        1.05150
S         -0.92680       -1.18320       -0.08870
C         -2.04030       -0.50250       -1.25110
C         -2.58910        0.65010       -0.75350
C         -2.12080        1.00420        0.53650
C         -2.60280        2.29330        1.11090
C         -2.47910        3.37500        0.02900
C         -3.18370        2.99490       -1.28500
C         -3.66440        1.53030       -1.31410
O         -4.05730        1.13660       -2.60600
C         -2.16250       -1.13540       -2.53370
S         -2.08860       -0.18190       -3.98600
C         -2.16470       -1.60080       -4.99660
C         -2.22560       -2.73620       -4.22280
C         -2.22540       -2.47260       -2.83510
C         -2.26390       -3.64840       -1.91810
C         -1.21850       -4.63810       -2.43780
C         -1.58270       -5.14390       -3.83880
C         -2.42290       -4.15590       -4.66970
O         -3.78610       -4.52710       -4.49000
C         -2.13140       -1.44280       -6.42180
S         -1.34410       -2.62120       -7.44450
C         -1.67500       -1.68270       -8.87320
C         -2.35460       -0.53920       -8.55710
C         -2.61040       -0.39670       -7.17130
C         -3.49310        0.72350       -6.72600
C         -4.62160        0.82520       -7.75530
C         -4.09570        1.20700       -9.13980
C         -2.75760        0.53230       -9.52990
O         -1.72750        1.50530       -9.63190
C         -1.27100       -2.15470      -10.17830
S         -2.05030       -3.54080      -10.89740
C         -1.08730       -3.38640      -12.30790
C         -0.21900       -2.34420      -12.23250
C         -0.31200       -1.63790      -11.00320
C          0.56700       -0.47370      -10.67610
C          1.77930       -0.45150      -11.60250
C          1.32550       -0.58010      -13.05330
C          0.77580       -1.98930      -13.30130
O          1.79940       -2.96920      -13.26220
H          5.47140       -2.58880       12.12040
H          6.49840        0.86870       11.95090
H          5.89900       -0.13290       13.28800
H          3.66550        0.90610       13.07210
H          4.88260        2.13930       13.39180
H          3.01510        2.33550       11.40110
H          4.56920        3.15960       11.34560
H          3.76480        1.78630        9.26750
H          5.88220        2.68020        9.54460
H          1.97490        0.93800        8.48020
H         -0.25190        1.13030        8.58560
H         -1.18440        3.40350        9.29570
H         -0.36760        6.30810        5.50670
H         -2.02590        5.73270        5.18480
H         -2.93650        7.89070        6.06280
H         -1.82110        8.19320        4.72390
H         -1.29800        8.45770        6.39230
H          4.23240       -3.03470        4.76280
H          4.51340       -5.29960        3.62680
H          1.14550       -7.18000        0.13430
H          0.91420       -5.49780        0.66870
H         -1.15300       -6.86960        1.07170
H         -0.21160       -7.98800        2.06980
H         -0.46180       -6.32070        2.60210
H          0.68150       -1.66940        1.96130
H         -2.02080        2.58440        1.98420
H         -3.64690        2.19190        1.42110
H         -1.41630        3.53220       -0.16250
H         -2.88550        4.31120        0.41310
H         -2.50050        3.12690       -2.12670
H         -4.04870        3.64180       -1.45360
H         -4.53370        1.43600       -0.63500
H         -4.65420        1.80370       -2.96200
H         -3.25250       -4.11200       -1.96750
H         -2.05720       -3.36730       -0.88680
H         -1.13100       -5.48480       -1.75570
H         -0.25130       -4.13050       -2.46600
H         -0.67370       -5.38960       -4.38780
H         -2.18860       -6.04770       -3.76040
H         -2.16390       -4.26650       -5.73220
H         -4.34370       -3.89700       -4.95870
H         -3.89700        0.52660       -5.73250
H         -2.93880        1.66540       -6.67690
H         -5.12260       -0.14400       -7.80940
H         -5.35840        1.56440       -7.43620
H         -3.92640        2.28580       -9.18120
H         -4.85350        0.96910       -9.88650
H         -2.82360        0.10830      -10.53690
H         -1.53030        1.82650       -8.74420
H         -1.21460       -4.08240      -13.11270
H          0.88130       -0.53180       -9.63130
H         -0.00630        0.45070      -10.79070
H          2.43770       -1.29070      -11.36690
H          2.33680        0.47550      -11.45930
H          2.16030       -0.39460      -13.73490
H          0.54320        0.15120      -13.26550
H          0.27900       -2.02630      -14.28730
H          2.48820       -2.72130      -13.88880
