224

C          5.96830       -5.35470        8.91730
S          4.34740       -5.56680        8.38490
C          4.42060       -4.11080        7.43900
C          5.66830       -3.52830        7.55490
C          6.55900       -4.24120        8.40330
C          7.96000       -3.80010        8.69530
C          8.99330       -4.53660        7.83980
O          6.02470       -2.38460        6.88480
C          6.55840       -2.65430        5.59030
C          7.48070       -1.52630        5.18050
S          8.24330       -1.95760        3.57750
O          9.08140       -3.21420        4.42370
O          9.59640       -1.04840        3.63780
O          7.38810       -0.65360        2.71140
C          3.32160       -3.61520        6.68160
C          2.21030       -4.30950        6.37270
C          1.13390       -3.78910        5.59850
C          0.10820       -4.48950        5.03290
C         -0.81650       -3.68420        4.32520
C         -1.96890       -4.11420        3.64050
C         -2.16760       -5.49160        3.26010
C         -3.32460       -6.21100        3.17450
C         -3.20710       -7.50220        2.62060
C         -1.94990       -7.84860        2.21900
S         -1.57290       -9.34620        1.39400
C          0.21240       -9.50760        1.74770
C          0.47880       -9.83650        3.20210
Se        -0.71830       -6.45540        2.53010
C         -2.84680       -3.10610        3.26020
C         -2.53350       -1.72700        3.32040
C         -1.23260       -1.31690        3.72460
C         -0.68030       -0.02570        3.39610
C         -1.15020        0.88140        2.47270
C         -0.34540        2.00410        2.21200
C          0.82410        2.04660        2.91580
S          2.09790        3.24740        2.89870
C          1.28590        4.68620        2.11200
C          1.42770        4.68640        0.60230
Se         1.01650        0.55680        4.02660
C         -0.47800       -2.31270        4.35920
S          0.99440       -2.07160        5.25540
C         -3.63430       -0.94260        2.89860
C         -4.71830       -1.66170        2.47520
S         -4.42850       -3.38000        2.59830
C         -5.88790       -1.12840        1.85160
S         -5.95600        0.60070        1.61700
C         -7.26340        0.45840        0.46060
C         -7.69430       -0.84210        0.40250
C         -6.92680       -1.74850        1.20210
C         -7.22740       -3.21290        1.16610
C         -6.58760       -3.87370       -0.05700
O         -8.72190       -1.37490       -0.31070
C         -9.31410       -0.59470       -1.32590
C        -10.16660       -1.50040       -2.19070
S        -10.67670       -0.61610       -3.70920
O         -8.99270       -0.74950       -4.22090
O        -10.37890        0.94240       -3.34880
O        -12.34400       -0.47030       -3.17070
C         -7.59920        1.68000       -0.25400
C         -7.34290        2.00100       -1.53340
C         -6.72990        1.27530       -2.61760
S         -7.03200        1.97930       -4.19720
C         -6.04980        0.79890       -4.99890
C         -5.60970       -0.13060       -4.09200
C         -5.92170        0.16670       -2.73580
C         -5.16220       -0.56410       -1.67740
C         -4.10450        0.36260       -1.07920
O         -4.94560       -1.28490       -4.43350
C         -5.70340       -2.16220       -5.25730
C         -6.91920       -2.70970       -4.52930
S         -8.50720       -2.73550       -5.46270
O         -8.11320       -3.89260       -6.56380
O         -8.98910       -4.00670       -4.25190
O         -8.05920       -1.53070       -6.65980
C         -5.70930        0.95610       -6.39930
C         -4.46660        1.15900       -6.86710
C         -3.23680        1.26110       -6.11610
C         -2.22630        2.14440       -6.37460
C         -1.16470        2.11330       -5.43300
C         -0.04360        2.96970       -5.32960
C          0.25370        3.99570       -6.30500
C          0.80410        5.22580       -6.07630
C          1.11240        5.99280       -7.21710
C          0.83560        5.39390       -8.41100
S          1.03500        6.17750       -9.96220
C          1.15380        4.73650      -11.07970
C          2.45870        3.98610      -10.90970
Se         0.05920        3.69520       -8.15830
C          0.78810        2.75690       -4.23130
C          0.59000        1.70650       -3.30260
C         -0.55070        0.88120       -3.36940
C         -0.82660       -0.09770       -2.34300
C         -0.49190       -0.00600       -1.01460
C         -0.79360       -1.11670       -0.21360
C         -1.41130       -2.14780       -0.86610
S         -1.85480       -3.62740       -0.04970
C         -2.67760       -4.54460       -1.40090
C         -3.14580       -5.89060       -0.88690
Se        -1.70020       -1.73960       -2.68420
C         -1.39310        1.12030       -4.45190
S         -2.88580        0.28590       -4.71290
C          1.63810        1.63300       -2.36230
C          2.55810        2.63260       -2.46550
S          2.21860        3.68600       -3.82140
C          3.58390        2.84490       -1.49970
C          4.46850        3.86580       -1.32390
C          5.22530        3.75930       -0.12310
C          6.18380        4.65000        0.40190
C          6.63530        5.81860       -0.32190
C          6.95810        7.04430        0.19040
C          7.42580        7.99970       -0.73310
C          7.51930        7.56300       -2.02290
S          8.15270        8.52980       -3.33590
C          7.46710        7.66160       -4.79100
C          5.97280        7.86690       -4.93290
Se         6.98830        5.76330       -2.17570
C          6.69980        4.32700        1.65850
C          6.32720        3.17750        2.39440
C          5.38130        2.28260        1.86680
C          4.94880        1.07430        2.54000
C          4.62550        0.89970        3.86010
C          4.18530       -0.39170        4.21220
C          4.14840       -1.28500        3.17800
S          3.64670       -2.96770        3.28080
C          2.19240       -2.95010        2.15770
C          2.55810       -3.19910        0.71150
Se         4.75900       -0.52470        1.58820
C          4.86990        2.60960        0.61680
S          3.64850        1.68080       -0.18810
C          7.06460        3.06620        3.61030
C          7.94370        4.07260        3.78840
S          7.93460        5.22810        2.50260
H          6.39200       -6.07080        9.59320
H          8.02850       -2.72710        8.50740
H          8.17500       -3.98160        9.75110
H          9.99700       -4.26510        8.15880
H          8.87560       -5.61300        7.94600
H          8.89140       -4.27650        6.78890
H          7.12200       -3.59150        5.60600
H          5.73790       -2.75970        4.86730
H          6.92630       -0.59830        5.08870
H          8.30510       -1.42630        5.87950
H          9.74260       -3.62420        3.86720
H          9.55000       -0.36520        2.96310
H          7.35950        0.23420        3.07470
H          3.43600       -2.60260        6.32010
H          2.11420       -5.34040        6.68910
H         -0.00380       -5.55390        5.15550
H         -4.26080       -5.84180        3.55740
H         -4.04260       -8.17380        2.52370
H          0.55550      -10.30430        1.08860
H          0.68630       -8.56590        1.45270
H          0.11130       -9.03820        3.84680
H         -0.01820      -10.76320        3.47940
H          1.54850       -9.94650        3.36670
H         -2.05650        0.73410        1.91370
H         -0.64660        2.75410        1.50050
H          1.78710        5.55160        2.54570
H          0.24470        4.68100        2.43120
H          0.89000        5.53350        0.18020
H          1.03000        3.77130        0.16880
H          2.47530        4.76780        0.32260
H         -3.66470        0.13030        2.94970
H         -6.87020       -3.69280        2.07770
H         -8.31050       -3.33380        1.10900
H         -5.51140       -3.71920       -0.04820
H         -6.78560       -4.94250       -0.05110
H         -6.99760       -3.45070       -0.97100
H         -8.54800       -0.14580       -1.96150
H         -9.91430        0.20960       -0.87780
H        -11.04830       -1.86190       -1.67150
H         -9.57260       -2.34070       -2.54390
H         -8.80230       -0.22580       -5.00270
H        -11.21050        1.42610       -3.33590
H        -12.55400       -0.28920       -2.25250
H         -8.00800        2.46460        0.37400
H         -7.68350        2.98070       -1.84870
H         -5.80930       -0.95150       -0.89800
H         -4.66060       -1.40840       -2.15870
H         -3.41520        0.69000       -1.85520
H         -4.56370        1.24500       -0.64120
H         -3.53900       -0.15940       -0.30990
H         -6.01860       -1.63160       -6.16230
H         -5.00640       -2.95670       -5.53140
H         -6.79010       -3.73430       -4.20080
H         -7.15390       -2.08930       -3.67030
H         -8.19540       -4.74590       -6.12910
H         -9.93860       -4.12520       -4.28010
H         -7.84300       -1.95420       -7.49010
H         -6.54210        1.02080       -7.08800
H         -4.35380        1.36790       -7.92450
H         -2.28730        2.84920       -7.18770
H          0.97070        5.60410       -5.08230
H          1.54370        6.97710       -7.15810
H          1.06180        5.15470      -12.08150
H          0.28870        4.09760      -10.87590
H          2.54440        3.59040       -9.89810
H          3.30280        4.64600      -11.09600
H          2.50080        3.15420      -11.60960
H         -0.07330        0.88630       -0.58280
H         -0.56210       -1.16140        0.83650
H         -1.94910       -4.65150       -2.20980
H         -3.51370       -3.93020       -1.74620
H         -3.82630       -5.76200       -0.04790
H         -2.29900       -6.48510       -0.55000
H         -3.66020       -6.43330       -1.67630
H          1.73080        0.85100       -1.63270
H          4.53090        4.69060       -2.01460
H          6.81020        7.28950        1.22840
H          7.68360        9.00560       -0.45050
H          8.00810        8.07760       -5.64010
H          7.72270        6.60250       -4.68650
H          5.74150        8.92590       -5.02010
H          5.61170        7.35240       -5.82090
H          5.44610        7.46640       -4.06650
H          4.63350        1.71300        4.56730
H          3.88400       -0.64560        5.21480
H          1.53860       -3.73760        2.53580
H          1.70920       -1.98070        2.29170
H          1.65820       -3.17200        0.09940
H          3.03300       -4.17130        0.60160
H          3.24600       -2.43170        0.34960
H          6.93390        2.26230        4.31200
H          8.61390        4.22700        4.61140
