266

C          2.43240       -7.43450       13.70200
C          3.09030       -7.23030       12.54370
C          2.35310       -6.44050       11.61160
C          2.73790       -6.03010       10.32070
C          4.05330       -6.28960        9.77360
C          4.36790       -6.60870        8.48190
C          5.73910       -6.71150        8.18080
C          6.58120       -6.45430        9.22480
S          8.32380       -6.52090        9.11850
C          8.77850       -5.99030       10.81090
C         10.28500       -5.95100       10.96080
Se         5.62400       -6.05760       10.79530
C          1.78220       -5.32570        9.59110
C          0.50630       -4.98470       10.10030
C          0.15260       -5.32920       11.42080
C         -1.09780       -4.89520       12.00050
C         -1.71450       -3.68630       11.82580
C         -2.94140       -3.51320       12.49370
C         -3.35990       -4.58990       13.22230
S         -4.89590       -4.65230       14.05530
C         -4.62700       -6.03780       15.21500
C         -3.68840       -5.66540       16.34420
Se        -2.12740       -6.01440       13.11410
C          1.08670       -6.08420       12.12560
S          0.87490       -6.68330       13.74900
C         -0.28060       -4.30460        9.13790
C          0.36650       -4.07910        7.96030
S          1.99630       -4.71930        7.96890
C         -0.13740       -3.41160        6.80750
C          0.50860       -3.15230        5.63700
C         -0.27040       -2.43650        4.69390
C          0.10740       -2.03560        3.39360
C          1.43920       -2.22950        2.86010
C          1.78520       -2.43320        1.55160
C          3.16530       -2.48990        1.26470
C          3.97930       -2.30580        2.34200
S          5.72100       -2.30420        2.46800
C          6.27350       -2.77840        0.79480
C          6.10140       -4.26100        0.53140
Se         3.00480       -2.04540        3.91700
C         -0.87260       -1.36310        2.66500
C         -2.16650       -1.07670        3.16000
C         -2.56270       -1.52640        4.43910
C         -3.91000       -1.35650        4.92810
C         -4.33830       -1.23410        6.22260
C         -5.72980       -1.18760        6.42210
C         -6.48380       -1.29100        5.28710
S         -8.22770       -1.17150        5.27240
C         -8.62710       -1.59620        3.54110
C         -8.52170       -3.08340        3.27130
Se        -5.39370       -1.44340        3.76390
C         -1.57480       -2.17190        5.18090
S         -1.77330       -2.78900        6.80190
C         -2.89280       -0.23510        2.28080
C         -2.20970        0.09430        1.15020
S         -0.64340       -0.67140        1.08510
C         -2.62370        0.94850        0.08460
C         -3.89290        1.24150       -0.31580
C         -3.94890        2.05740       -1.47430
C         -5.08160        2.44400       -2.22690
C         -6.42740        2.05630       -1.86430
C         -6.86870        0.88920       -1.30490
C         -8.24730        0.81650       -1.02790
C         -8.96490        1.93280       -1.35100
S        -10.70160        2.04710       -1.17880
C        -10.96450        3.85120       -1.28830
C        -10.49980        4.57480       -0.04140
Se        -7.86510        3.25330       -2.12820
C         -4.82390        3.17710       -3.38360
C         -3.53310        3.60100       -3.76960
C         -2.40210        3.23120       -3.01350
C         -1.06550        3.53980       -3.47860
C         -0.62590        4.70220       -4.05160
C          0.69760        4.69310       -4.53680
C          1.35110        3.50660       -4.38270
S          2.97550        3.09810       -4.90100
C          2.96780        3.77000       -6.60500
C          1.85470        3.17210       -7.43800
Se         0.28650        2.22090       -3.52830
C         -2.65180        2.43230       -1.90480
S         -1.41370        1.74910       -0.89280
C         -3.52290        4.15380       -5.07090
C         -4.72240        4.07570       -5.71670
S         -5.98710        3.48060       -4.66380
C         -4.76480        3.99230       -7.14860
C         -5.21660        2.89810       -7.82950
C         -4.39550        2.54320       -8.93380
C         -4.30790        1.25770       -9.52330
C         -5.37360        0.29940       -9.59430
C         -5.39210       -0.79910      -10.42210
C         -6.54170       -1.60260      -10.37950
C         -7.51160       -1.18400       -9.51150
S         -8.98560       -2.06640       -9.20320
C         -9.99680       -0.81280       -8.33960
C        -10.51430        0.25490       -9.28140
Se        -6.98590        0.38190       -8.62000
C         -3.00240        0.89890       -9.89260
C         -1.93640        1.81350      -10.00140
C         -2.15170        3.19620       -9.76900
C         -1.06590        4.13210       -9.91150
C         -0.09210        4.08960      -10.87470
C          0.96060        5.01730      -10.74840
C          0.86660        5.83090       -9.65590
S          1.97800        7.04970       -9.08160
C          3.11110        7.24480      -10.50970
C          4.03000        8.42410      -10.25950
Se        -0.68950        5.50600       -8.65940
C         -3.34760        3.47820       -9.11930
S         -3.54890        4.86580       -8.07310
C         -0.66930        1.18520       -9.86510
C         -0.75910       -0.13480       -9.53230
S         -2.39330       -0.74030       -9.74540
C          0.11400       -0.75680       -8.57520
C         -0.36490       -1.22390       -7.38750
C          0.57590       -1.17900       -6.33030
C          0.28590       -1.32720       -4.95940
C         -1.03990       -1.71260       -4.51940
C         -1.82320       -2.71070       -5.03140
C         -3.11660       -2.81980       -4.48330
C         -3.41010       -1.88590       -3.53530
S         -4.92690       -1.69850       -2.67430
C         -6.08510       -1.51110       -4.08450
C         -5.79390       -0.26420       -4.89070
Se        -1.97050       -0.72790       -3.20790
C          1.29230       -0.94980       -4.08090
C          2.57610       -0.53320       -4.50640
C          2.89790       -0.47100       -5.88090
C          4.23520       -0.14540       -6.33160
C          4.60560        0.53840       -7.45740
C          5.98790        0.60620       -7.71600
C          6.77800       -0.05650       -6.82600
S          8.53060       -0.11740       -6.91060
C          8.77930       -1.90220       -7.27460
C          8.80640       -2.75280       -6.02270
Se         5.75400       -0.81570       -5.43870
C          1.84630       -0.72830       -6.76040
S          1.83010       -0.41850       -8.48780
C          3.36400       -0.10290       -3.40990
C          2.72660       -0.18590       -2.20810
S          1.12530       -0.87650       -2.34690
C          3.24540        0.21450       -0.94250
C          2.58370        0.52720        0.20370
C          3.44230        0.85610        1.28520
C          3.09490        1.17060        2.61560
C          1.72640        1.41640        3.00540
C          0.76590        2.06600        2.27670
C         -0.48320        2.22860        2.90390
C         -0.57210        1.69640        4.15940
S         -2.03750        1.71410        5.11380
C         -1.41410        1.20090        6.75000
C         -0.64850        2.30580        7.44810
Se         1.05280        0.90140        4.68520
C          4.15660        1.27640        3.51500
C          5.51660        1.16430        3.14830
C          5.86500        0.90080        1.81130
C          7.23210        0.70970        1.37670
C          8.23280        0.02800        2.01140
C          9.44200       -0.10030        1.29690
C          9.45130        0.49120        0.06630
S         10.81890        0.50280       -1.02320
C          9.98520        0.79850       -2.62570
C          9.14710       -0.38140       -3.07090
Se         7.81630        1.35930       -0.29170
C          4.80470        0.75830        0.92180
S          4.98280        0.33390       -0.75960
C          6.38250        1.38300        4.25960
C          5.71630        1.62070        5.40630
S          3.99640        1.61390        5.21720
H          2.75720       -7.99320       14.55760
H          4.06020       -7.65130       12.33870
H          3.61270       -6.80940        7.74130
H          6.10380       -6.96810        7.20150
H          8.33640       -5.00290       10.96940
H          8.32750       -6.70600       11.50530
H         10.71090       -6.93520       10.78050
H         10.71880       -5.25160       10.24980
H         10.54730       -5.63470       11.96800
H         -1.25830       -2.88850       11.26390
H         -3.50800       -2.59930       12.44580
H         -5.62080       -6.28390       15.58750
H         -4.24350       -6.87900       14.62860
H         -3.58100       -6.50530       17.02710
H         -2.70270       -5.40980       15.95500
H         -4.07690       -4.81140       16.89430
H         -1.30420       -4.01580        9.29470
H          1.51350       -3.49800        5.45780
H          1.05490       -2.59100        0.77540
H          3.52440       -2.65900        0.26420
H          5.73230       -2.16130        0.07880
H          7.32570       -2.49300        0.77660
H          6.67230       -4.84110        1.25280
H          6.45660       -4.49960       -0.46920
H          5.05560       -4.55050        0.60870
H         -3.65600       -1.14230        7.04970
H         -6.17500       -1.07900        7.39590
H         -7.95100       -1.01810        2.90280
H         -9.64670       -1.23900        3.39830
H         -8.79270       -3.29080        2.23820
H         -7.50250       -3.43310        3.43610
H         -9.18870       -3.63650        3.92830
H         -3.84410        0.20990        2.51520
H         -4.75640        0.86170        0.19620
H         -6.21700        0.05060       -1.13180
H         -8.70760       -0.05340       -0.59140
H        -10.43520        4.19860       -2.18150
H        -12.03740        3.96610       -1.43910
H        -11.02270        4.19750        0.83430
H        -10.69780        5.64010       -0.13790
H         -9.42880        4.43500        0.10610
H         -1.23540        5.59030       -4.08850
H          1.14920        5.55790       -4.99350
H          2.89390        4.85550       -6.54970
H          3.94880        3.49520       -6.99230
H          1.88660        2.08630       -7.39400
H          1.95750        3.48870       -8.47480
H          0.88060        3.49810       -7.07300
H         -2.62170        4.45720       -5.57230
H         -5.95820        2.24660       -7.39280
H         -4.58830       -1.01380      -11.10560
H         -6.66150       -2.48060      -10.99030
H         -9.37810       -0.38750       -7.54260
H        -10.81400       -1.37840       -7.89320
H         -9.68810        0.80480       -9.73280
H        -11.13600        0.95940       -8.73310
H        -11.10670       -0.19380      -10.07550
H         -0.13800        3.39570      -11.69810
H          1.76880        5.05890      -11.45800
H          2.49180        7.40480      -11.39220
H          3.67760        6.31880      -10.61210
H          4.62040        8.26340       -9.36040
H          4.70510        8.55040      -11.10310
H          3.45200        9.33680      -10.13420
H          0.24970        1.73790       -9.78670
H         -1.40440       -1.45300       -7.23700
H         -1.45770       -3.40060       -5.77450
H         -3.81340       -3.58260       -4.78800
H         -6.01670       -2.41330       -4.69080
H         -7.06880       -1.46090       -3.61900
H         -4.78220       -0.29030       -5.29520
H         -5.89560        0.62060       -4.26770
H         -6.49580       -0.18810       -5.72210
H          3.89420        1.01720       -8.10670
H          6.39810        1.12760       -8.56420
H          9.73120       -1.94380       -7.80210
H          7.97740       -2.19670       -7.95070
H          7.88590       -2.62490       -5.44940
H          8.90110       -3.80310       -6.29100
H          9.64710       -2.47370       -5.39290
H          4.34030        0.34370       -3.49830
H          1.51310        0.49460        0.27360
H          0.96430        2.47630        1.30060
H         -1.30750        2.74030        2.43720
H         -2.30630        0.92190        7.30940
H         -0.79350        0.31240        6.59100
H         -1.27830        3.18380        7.57140
H         -0.32160        1.96440        8.42800
H          0.23270        2.58680        6.87000
H          8.07890       -0.45980        2.95930
H         10.28660       -0.64960        1.67580
H         10.79590        0.99570       -3.32580
H          9.38110        1.70410       -2.51210
H          8.32680       -0.56120       -2.37480
H          8.72340       -0.17680       -4.05320
H          9.75780       -1.27970       -3.12620
H          7.45400        1.37990        4.18440
H          6.12170        1.81190        6.38050
