
  xtb     03052205423D
 energy: -274.047786679286 gnorm: 0.000277694923 xtb: 6.4.1 (unknown)
196205  0     0  0            999 V2000
    5.8630    5.0941    5.0303 N   0  0  0  0  0  0  0  0  0  0  0  0
    5.4841    5.0899    6.4234 C   0  0  0  0  0  0  0  0  0  0  0  0
    4.0780    5.6405    6.6775 C   0  0  0  0  0  0  0  0  0  0  0  0
    5.2504    4.2696    4.0974 C   0  0  0  0  0  0  0  0  0  0  0  0
    4.6612    3.0479    4.4167 C   0  0  0  0  0  0  0  0  0  0  0  0
    4.1494    2.2457    3.4219 C   0  0  0  0  0  0  0  0  0  0  0  0
    4.1865    2.5910    2.0664 C   0  0  0  0  0  0  0  0  0  0  0  0
    4.7766    3.8237    1.7310 C   0  0  0  0  0  0  0  0  0  0  0  0
    5.2827    4.6228    2.7528 C   0  0  0  0  0  0  0  0  0  0  0  0
    4.9235    4.3943    0.3805 C   0  0  0  0  0  0  0  0  0  0  0  0
    4.4568    5.5888    0.0477 C   0  0  0  0  0  0  0  0  0  0  0  0
    3.6094    1.6805    1.1691 N   0  0  0  0  0  0  0  0  0  0  0  0
    3.6947    1.8324   -0.2669 C   0  0  0  0  0  0  0  0  0  0  0  0
    4.9920    1.2482   -0.8210 C   0  0  0  0  0  0  0  0  0  0  0  0
    2.4578    1.0222    1.5967 N   0  0  0  0  0  0  0  0  0  0  0  0
    1.2759    1.8405    1.7951 C   0  0  0  0  0  0  0  0  0  0  0  0
    0.1869    1.5405    0.7648 C   0  0  0  0  0  0  0  0  0  0  0  0
    2.5953   -0.2138    2.2093 C   0  0  0  0  0  0  0  0  0  0  0  0
    1.5502   -0.8451    2.8845 C   0  0  0  0  0  0  0  0  0  0  0  0
    1.7710   -2.0210    3.5759 C   0  0  0  0  0  0  0  0  0  0  0  0
    3.0157   -2.6463    3.6040 C   0  0  0  0  0  0  0  0  0  0  0  0
    4.0166   -2.1239    2.7588 C   0  0  0  0  0  0  0  0  0  0  0  0
    3.7990   -0.9114    2.1184 C   0  0  0  0  0  0  0  0  0  0  0  0
    5.2431   -2.8617    2.4541 C   0  0  0  0  0  0  0  0  0  0  0  0
    6.4244   -2.3204    2.1848 C   0  0  0  0  0  0  0  0  0  0  0  0
    3.2394   -3.7825    4.3990 N   0  0  0  0  0  0  0  0  0  0  0  0
    4.5039   -3.9706    5.0905 C   0  0  0  0  0  0  0  0  0  0  0  0
    4.9333   -5.4332    5.0440 C   0  0  0  0  0  0  0  0  0  0  0  0
    2.1658   -4.2724    5.1446 N   0  0  0  0  0  0  0  0  0  0  0  0
    1.7693   -3.5480    6.3377 C   0  0  0  0  0  0  0  0  0  0  0  0
    1.9513   -4.3924    7.6000 C   0  0  0  0  0  0  0  0  0  0  0  0
    1.2805   -5.1071    4.4823 C   0  0  0  0  0  0  0  0  0  0  0  0
    1.6714   -5.7462    3.3028 C   0  0  0  0  0  0  0  0  0  0  0  0
    0.7666   -6.4655    2.5637 C   0  0  0  0  0  0  0  0  0  0  0  0
   -0.5810   -6.5927    2.9356 C   0  0  0  0  0  0  0  0  0  0  0  0
   -0.9106   -6.1685    4.2358 C   0  0  0  0  0  0  0  0  0  0  0  0
    0.0090   -5.4029    4.9580 C   0  0  0  0  0  0  0  0  0  0  0  0
   -2.1155   -6.5376    4.9822 C   0  0  0  0  0  0  0  0  0  0  0  0
   -2.5786   -7.7768    5.0866 C   0  0  0  0  0  0  0  0  0  0  0  0
   -1.4890   -7.0535    1.9757 N   0  0  0  0  0  0  0  0  0  0  0  0
   -2.9319   -6.9563    2.0901 C   0  0  0  0  0  0  0  0  0  0  0  0
   -3.5001   -5.5381    2.1573 C   0  0  0  0  0  0  0  0  0  0  0  0
   -1.0537   -7.0765    0.6484 N   0  0  0  0  0  0  0  0  0  0  0  0
   -0.8118   -8.4082    0.1248 C   0  0  0  0  0  0  0  0  0  0  0  0
   -1.7945   -8.7892   -0.9833 C   0  0  0  0  0  0  0  0  0  0  0  0
   -0.4895   -5.9558    0.0686 C   0  0  0  0  0  0  0  0  0  0  0  0
   -0.5364   -4.7098    0.7095 C   0  0  0  0  0  0  0  0  0  0  0  0
    0.1129   -3.6252    0.1716 C   0  0  0  0  0  0  0  0  0  0  0  0
    0.7918   -3.7096   -1.0377 C   0  0  0  0  0  0  0  0  0  0  0  0
    0.8023   -4.9215   -1.7320 C   0  0  0  0  0  0  0  0  0  0  0  0
    0.1776   -6.0251   -1.1547 C   0  0  0  0  0  0  0  0  0  0  0  0
    1.4485   -5.1169   -3.0302 C   0  0  0  0  0  0  0  0  0  0  0  0
    1.5626   -4.2211   -4.0005 C   0  0  0  0  0  0  0  0  0  0  0  0
    1.4555   -2.5462   -1.5194 N   0  0  0  0  0  0  0  0  0  0  0  0
    2.7923   -2.2674   -1.0319 C   0  0  0  0  0  0  0  0  0  0  0  0
    3.8223   -2.2666   -2.1586 C   0  0  0  0  0  0  0  0  0  0  0  0
    0.6628   -1.5424   -1.9724 C   0  0  0  0  0  0  0  0  0  0  0  0
    0.9699   -0.2565   -2.2938 C   0  0  0  0  0  0  0  0  0  0  0  0
   -0.1486    0.4955   -2.7468 C   0  0  0  0  0  0  0  0  0  0  0  0
   -0.2026    1.8554   -3.1100 C   0  0  0  0  0  0  0  0  0  0  0  0
    0.9584    2.7212   -3.0570 C   0  0  0  0  0  0  0  0  0  0  0  0
    0.9972    4.0157   -2.6237 C   0  0  0  0  0  0  0  0  0  0  0  0
    2.2386    4.6759   -2.7353 C   0  0  0  0  0  0  0  0  0  0  0  0
    3.2409    3.9310   -3.2782 C   0  0  0  0  0  0  0  0  0  0  0  0
    4.9055    4.4577   -3.4201 S   0  0  0  0  0  0  0  0  0  0  0  0
    5.4119    3.5689   -4.9345 C   0  0  0  0  0  0  0  0  0  0  0  0
    4.7115    4.1036   -6.1663 C   0  0  0  0  0  0  0  0  0  0  0  0
    2.6533    2.1872   -3.6873 Se  0  0  0  0  0  2  0  0  0  0  0  0
   -1.4471    2.3413   -3.5033 C   0  0  0  0  0  0  0  0  0  0  0  0
   -2.6233    1.5629   -3.5621 C   0  0  0  0  0  0  0  0  0  0  0  0
   -2.5715    0.2083   -3.1757 C   0  0  0  0  0  0  0  0  0  0  0  0
   -3.7341   -0.6556   -3.1939 C   0  0  0  0  0  0  0  0  0  0  0  0
   -4.7193   -0.7441   -4.1340 C   0  0  0  0  0  0  0  0  0  0  0  0
   -5.7220   -1.7099   -3.8984 C   0  0  0  0  0  0  0  0  0  0  0  0
   -5.5761   -2.4230   -2.7460 C   0  0  0  0  0  0  0  0  0  0  0  0
   -6.7035   -3.6448   -2.1912 S   0  0  0  0  0  0  0  0  0  0  0  0
   -5.6501   -4.6090   -1.0487 C   0  0  0  0  0  0  0  0  0  0  0  0
   -4.5893   -5.4139   -1.7719 C   0  0  0  0  0  0  0  0  0  0  0  0
   -4.0517   -1.8684   -1.7826 Se  0  0  0  0  0  2  0  0  0  0  0  0
   -1.3325   -0.2702   -2.7689 C   0  0  0  0  0  0  0  0  0  0  0  0
   -1.0324   -1.9106   -2.2449 S   0  0  0  0  0  0  0  0  0  0  0  0
   -3.7438    2.3046   -4.0185 C   0  0  0  0  0  0  0  0  0  0  0  0
   -3.4544    3.5992   -4.3292 C   0  0  0  0  0  0  0  0  0  0  0  0
   -1.7624    3.9754   -4.0404 S   0  0  0  0  0  0  0  0  0  0  0  0
   -4.2839    4.5401   -4.8633 N   0  0  0  0  0  0  0  0  0  0  0  0
   -3.7952    5.8679   -5.1631 C   0  0  0  0  0  0  0  0  0  0  0  0
   -3.8185    6.7799   -3.9365 C   0  0  0  0  0  0  0  0  0  0  0  0
   -5.6849    4.3512   -4.8071 C   0  0  0  0  0  0  0  0  0  0  0  0
   -6.3240    3.9643   -3.6334 C   0  0  0  0  0  0  0  0  0  0  0  0
   -7.6927    3.8093   -3.6028 C   0  0  0  0  0  0  0  0  0  0  0  0
   -8.4823    4.0178   -4.7380 C   0  0  0  0  0  0  0  0  0  0  0  0
   -7.8337    4.3838   -5.9391 C   0  0  0  0  0  0  0  0  0  0  0  0
   -6.4553    4.5635   -5.9404 C   0  0  0  0  0  0  0  0  0  0  0  0
   -8.5354    4.5931   -7.2061 C   0  0  0  0  0  0  0  0  0  0  0  0
   -9.5377    3.8662   -7.6864 C   0  0  0  0  0  0  0  0  0  0  0  0
   -9.8486    3.8566   -4.7146 N   0  0  0  0  0  0  0  0  0  0  0  0
  -10.6290    3.8755   -3.4996 C   0  0  0  0  0  0  0  0  0  0  0  0
  -10.6961    5.2558   -2.8422 C   0  0  0  0  0  0  0  0  0  0  0  0
    6.0420    6.0210    4.6679 H   0  0  0  0  0  0  0  0  0  0  0  0
    5.5553    4.0669    6.7996 H   0  0  0  0  0  0  0  0  0  0  0  0
    6.2199    5.6935    6.9627 H   0  0  0  0  0  0  0  0  0  0  0  0
    4.0092    6.6739    6.3430 H   0  0  0  0  0  0  0  0  0  0  0  0
    3.8421    5.6021    7.7378 H   0  0  0  0  0  0  0  0  0  0  0  0
    3.3434    5.0522    6.1321 H   0  0  0  0  0  0  0  0  0  0  0  0
    4.6021    2.7084    5.4387 H   0  0  0  0  0  0  0  0  0  0  0  0
    3.7028    1.3061    3.7084 H   0  0  0  0  0  0  0  0  0  0  0  0
    5.7387    5.5636    2.4739 H   0  0  0  0  0  0  0  0  0  0  0  0
    5.5212    3.8470   -0.3350 H   0  0  0  0  0  0  0  0  0  0  0  0
    3.8592    6.1748    0.7277 H   0  0  0  0  0  0  0  0  0  0  0  0
    4.6353    6.0087   -0.9277 H   0  0  0  0  0  0  0  0  0  0  0  0
    3.5941    2.8826   -0.5661 H   0  0  0  0  0  0  0  0  0  0  0  0
    2.8495    1.2851   -0.6881 H   0  0  0  0  0  0  0  0  0  0  0  0
    5.0143    0.1701   -0.6834 H   0  0  0  0  0  0  0  0  0  0  0  0
    5.8545    1.6752   -0.3160 H   0  0  0  0  0  0  0  0  0  0  0  0
    5.0656    1.4625   -1.8865 H   0  0  0  0  0  0  0  0  0  0  0  0
    1.5817    2.8869    1.7040 H   0  0  0  0  0  0  0  0  0  0  0  0
    0.8836    1.7010    2.8093 H   0  0  0  0  0  0  0  0  0  0  0  0
   -0.0560    0.4809    0.7576 H   0  0  0  0  0  0  0  0  0  0  0  0
   -0.7141    2.1024    0.9990 H   0  0  0  0  0  0  0  0  0  0  0  0
    0.5141    1.8208   -0.2329 H   0  0  0  0  0  0  0  0  0  0  0  0
    0.5591   -0.4221    2.9027 H   0  0  0  0  0  0  0  0  0  0  0  0
    0.9367   -2.4573    4.1020 H   0  0  0  0  0  0  0  0  0  0  0  0
    4.5907   -0.4982    1.5157 H   0  0  0  0  0  0  0  0  0  0  0  0
    5.1258   -3.9377    2.4051 H   0  0  0  0  0  0  0  0  0  0  0  0
    6.5948   -1.2585    2.2456 H   0  0  0  0  0  0  0  0  0  0  0  0
    7.2736   -2.9242    1.9125 H   0  0  0  0  0  0  0  0  0  0  0  0
    5.2606   -3.3366    4.6304 H   0  0  0  0  0  0  0  0  0  0  0  0
    4.4081   -3.6616    6.1410 H   0  0  0  0  0  0  0  0  0  0  0  0
    5.1321   -5.7435    4.0214 H   0  0  0  0  0  0  0  0  0  0  0  0
    4.1457   -6.0651    5.4476 H   0  0  0  0  0  0  0  0  0  0  0  0
    5.8366   -5.5763    5.6315 H   0  0  0  0  0  0  0  0  0  0  0  0
    0.7239   -3.2225    6.2671 H   0  0  0  0  0  0  0  0  0  0  0  0
    2.3835   -2.6457    6.4047 H   0  0  0  0  0  0  0  0  0  0  0  0
    2.9965   -4.6542    7.7433 H   0  0  0  0  0  0  0  0  0  0  0  0
    1.3807   -5.3142    7.5250 H   0  0  0  0  0  0  0  0  0  0  0  0
    1.6090   -3.8380    8.4709 H   0  0  0  0  0  0  0  0  0  0  0  0
    2.6843   -5.6429    2.9508 H   0  0  0  0  0  0  0  0  0  0  0  0
    1.1145   -6.9249    1.6520 H   0  0  0  0  0  0  0  0  0  0  0  0
   -0.3073   -5.0654    5.9324 H   0  0  0  0  0  0  0  0  0  0  0  0
   -2.5745   -5.7471    5.5649 H   0  0  0  0  0  0  0  0  0  0  0  0
   -3.4301   -8.0165    5.7013 H   0  0  0  0  0  0  0  0  0  0  0  0
   -2.1037   -8.6013    4.5794 H   0  0  0  0  0  0  0  0  0  0  0  0
   -3.2565   -7.5133    2.9713 H   0  0  0  0  0  0  0  0  0  0  0  0
   -3.3361   -7.4573    1.2070 H   0  0  0  0  0  0  0  0  0  0  0  0
   -4.5806   -5.5902    2.2690 H   0  0  0  0  0  0  0  0  0  0  0  0
   -3.2720   -4.9829    1.2506 H   0  0  0  0  0  0  0  0  0  0  0  0
   -3.0933   -5.0034    3.0115 H   0  0  0  0  0  0  0  0  0  0  0  0
   -0.9221   -9.1024    0.9614 H   0  0  0  0  0  0  0  0  0  0  0  0
    0.2170   -8.4946   -0.2445 H   0  0  0  0  0  0  0  0  0  0  0  0
   -1.5202   -9.7530   -1.4050 H   0  0  0  0  0  0  0  0  0  0  0  0
   -1.7903   -8.0459   -1.7759 H   0  0  0  0  0  0  0  0  0  0  0  0
   -2.8060   -8.8630   -0.5917 H   0  0  0  0  0  0  0  0  0  0  0  0
   -1.0472   -4.5883    1.6478 H   0  0  0  0  0  0  0  0  0  0  0  0
    0.1071   -2.6833    0.7012 H   0  0  0  0  0  0  0  0  0  0  0  0
    0.2163   -6.9519   -1.7039 H   0  0  0  0  0  0  0  0  0  0  0  0
    1.8177   -6.1230   -3.1972 H   0  0  0  0  0  0  0  0  0  0  0  0
    2.0365   -4.4708   -4.9356 H   0  0  0  0  0  0  0  0  0  0  0  0
    1.1799   -3.2205   -3.9160 H   0  0  0  0  0  0  0  0  0  0  0  0
    2.8029   -1.3030   -0.5115 H   0  0  0  0  0  0  0  0  0  0  0  0
    3.0448   -3.0412   -0.3029 H   0  0  0  0  0  0  0  0  0  0  0  0
    3.6102   -1.4754   -2.8738 H   0  0  0  0  0  0  0  0  0  0  0  0
    4.8163   -2.1108   -1.7472 H   0  0  0  0  0  0  0  0  0  0  0  0
    3.8039   -3.2185   -2.6828 H   0  0  0  0  0  0  0  0  0  0  0  0
    1.9629    0.1435   -2.2021 H   0  0  0  0  0  0  0  0  0  0  0  0
    0.1347    4.5030   -2.2018 H   0  0  0  0  0  0  0  0  0  0  0  0
    2.3851    5.6942   -2.4198 H   0  0  0  0  0  0  0  0  0  0  0  0
    5.1941    2.5082   -4.7750 H   0  0  0  0  0  0  0  0  0  0  0  0
    6.4907    3.7085   -4.9940 H   0  0  0  0  0  0  0  0  0  0  0  0
    3.6334    3.9742   -6.0777 H   0  0  0  0  0  0  0  0  0  0  0  0
    5.0522    3.5679   -7.0500 H   0  0  0  0  0  0  0  0  0  0  0  0
    4.9230    5.1630   -6.2932 H   0  0  0  0  0  0  0  0  0  0  0  0
   -4.6981   -0.1631   -5.0409 H   0  0  0  0  0  0  0  0  0  0  0  0
   -6.5297   -1.8888   -4.5874 H   0  0  0  0  0  0  0  0  0  0  0  0
   -6.3450   -5.2553   -0.5135 H   0  0  0  0  0  0  0  0  0  0  0  0
   -5.2065   -3.8966   -0.3463 H   0  0  0  0  0  0  0  0  0  0  0  0
   -4.0123   -5.9942   -1.0551 H   0  0  0  0  0  0  0  0  0  0  0  0
   -3.9042   -4.7542   -2.3047 H   0  0  0  0  0  0  0  0  0  0  0  0
   -5.0488   -6.0911   -2.4882 H   0  0  0  0  0  0  0  0  0  0  0  0
   -4.7293    1.8900   -4.1120 H   0  0  0  0  0  0  0  0  0  0  0  0
   -2.7745    5.7847   -5.5470 H   0  0  0  0  0  0  0  0  0  0  0  0
   -4.4269    6.2941   -5.9459 H   0  0  0  0  0  0  0  0  0  0  0  0
   -3.1804    6.3760   -3.1545 H   0  0  0  0  0  0  0  0  0  0  0  0
   -3.4597    7.7707   -4.2010 H   0  0  0  0  0  0  0  0  0  0  0  0
   -4.8335    6.8629   -3.5529 H   0  0  0  0  0  0  0  0  0  0  0  0
   -5.7444    3.7988   -2.7377 H   0  0  0  0  0  0  0  0  0  0  0  0
   -8.1551    3.5192   -2.6731 H   0  0  0  0  0  0  0  0  0  0  0  0
   -5.9720    4.8454   -6.8652 H   0  0  0  0  0  0  0  0  0  0  0  0
   -8.1368    5.3994   -7.8119 H   0  0  0  0  0  0  0  0  0  0  0  0
   -9.9263    3.0047   -7.1700 H   0  0  0  0  0  0  0  0  0  0  0  0
   -9.9734    4.0821   -8.6478 H   0  0  0  0  0  0  0  0  0  0  0  0
  -10.3108    4.2927   -5.5012 H   0  0  0  0  0  0  0  0  0  0  0  0
  -11.6379    3.5452   -3.7625 H   0  0  0  0  0  0  0  0  0  0  0  0
  -10.2160    3.1456   -2.8000 H   0  0  0  0  0  0  0  0  0  0  0  0
   -9.6971    5.5998   -2.5846 H   0  0  0  0  0  0  0  0  0  0  0  0
  -11.1432    5.9774   -3.5232 H   0  0  0  0  0  0  0  0  0  0  0  0
  -11.2966    5.2136   -1.9376 H   0  0  0  0  0  0  0  0  0  0  0  0
  1  2  1  0  0  0  0
  2  3  1  0  0  0  0
  1  4  1  0  0  0  0
  4  5  2  0  0  0  0
  5  6  1  0  0  0  0
  6  7  2  0  0  0  0
  7  8  1  0  0  0  0
  8  9  2  0  0  0  0
  8 10  1  0  0  0  0
 10 11  2  0  0  0  0
  7 12  1  0  0  0  0
 12 13  1  0  0  0  0
 13 14  1  0  0  0  0
 12 15  1  0  0  0  0
 15 16  1  0  0  0  0
 16 17  1  0  0  0  0
 15 18  1  0  0  0  0
 18 19  2  0  0  0  0
 19 20  1  0  0  0  0
 20 21  2  0  0  0  0
 21 22  1  0  0  0  0
 22 23  2  0  0  0  0
 22 24  1  0  0  0  0
 24 25  2  0  0  0  0
 21 26  1  0  0  0  0
 26 27  1  0  0  0  0
 27 28  1  0  0  0  0
 26 29  1  0  0  0  0
 29 30  1  0  0  0  0
 30 31  1  0  0  0  0
 29 32  1  0  0  0  0
 32 33  2  0  0  0  0
 33 34  1  0  0  0  0
 34 35  2  0  0  0  0
 35 36  1  0  0  0  0
 36 37  2  0  0  0  0
 36 38  1  0  0  0  0
 38 39  2  0  0  0  0
 35 40  1  0  0  0  0
 40 41  1  0  0  0  0
 41 42  1  0  0  0  0
 40 43  1  0  0  0  0
 43 44  1  0  0  0  0
 44 45  1  0  0  0  0
 43 46  1  0  0  0  0
 46 47  2  0  0  0  0
 47 48  1  0  0  0  0
 48 49  2  0  0  0  0
 49 50  1  0  0  0  0
 50 51  2  0  0  0  0
 50 52  1  0  0  0  0
 52 53  2  0  0  0  0
 49 54  1  0  0  0  0
 54 55  1  0  0  0  0
 55 56  1  0  0  0  0
 54 57  1  0  0  0  0
 57 58  2  0  0  0  0
 58 59  1  0  0  0  0
 59 60  2  0  0  0  0
 60 61  1  0  0  0  0
 61 62  2  0  0  0  0
 62 63  1  0  0  0  0
 63 64  2  0  0  0  0
 64 65  1  0  0  0  0
 65 66  1  0  0  0  0
 66 67  1  0  0  0  0
 64 68  1  0  0  0  0
 60 69  1  0  0  0  0
 69 70  2  0  0  0  0
 70 71  1  0  0  0  0
 71 72  1  0  0  0  0
 72 73  2  0  0  0  0
 73 74  1  0  0  0  0
 74 75  2  0  0  0  0
 75 76  1  0  0  0  0
 76 77  1  0  0  0  0
 77 78  1  0  0  0  0
 75 79  1  0  0  0  0
 71 80  2  0  0  0  0
 80 81  1  0  0  0  0
 70 82  1  0  0  0  0
 82 83  2  0  0  0  0
 83 84  1  0  0  0  0
 83 85  1  0  0  0  0
 85 86  1  0  0  0  0
 86 87  1  0  0  0  0
 85 88  1  0  0  0  0
 88 89  2  0  0  0  0
 89 90  1  0  0  0  0
 90 91  2  0  0  0  0
 91 92  1  0  0  0  0
 92 93  2  0  0  0  0
 92 94  1  0  0  0  0
 94 95  2  0  0  0  0
 91 96  1  0  0  0  0
 96 97  1  0  0  0  0
 97 98  1  0  0  0  0
  9  4  1  0  0  0  0
 23 18  1  0  0  0  0
 37 32  1  0  0  0  0
 51 46  1  0  0  0  0
 81 57  1  0  0  0  0
 93 88  1  0  0  0  0
 80 59  1  0  0  0  0
 68 61  1  0  0  0  0
 84 69  1  0  0  0  0
 79 72  1  0  0  0  0
  1 99  1  0  0  0  0
  2100  1  0  0  0  0
  2101  1  0  0  0  0
  3102  1  0  0  0  0
  3103  1  0  0  0  0
  3104  1  0  0  0  0
  5105  1  0  0  0  0
  6106  1  0  0  0  0
  9107  1  0  0  0  0
 10108  1  0  0  0  0
 11109  1  0  0  0  0
 11110  1  0  0  0  0
 13111  1  0  0  0  0
 13112  1  0  0  0  0
 14113  1  0  0  0  0
 14114  1  0  0  0  0
 14115  1  0  0  0  0
 16116  1  0  0  0  0
 16117  1  0  0  0  0
 17118  1  0  0  0  0
 17119  1  0  0  0  0
 17120  1  0  0  0  0
 19121  1  0  0  0  0
 20122  1  0  0  0  0
 23123  1  0  0  0  0
 24124  1  0  0  0  0
 25125  1  0  0  0  0
 25126  1  0  0  0  0
 27127  1  0  0  0  0
 27128  1  0  0  0  0
 28129  1  0  0  0  0
 28130  1  0  0  0  0
 28131  1  0  0  0  0
 30132  1  0  0  0  0
 30133  1  0  0  0  0
 31134  1  0  0  0  0
 31135  1  0  0  0  0
 31136  1  0  0  0  0
 33137  1  0  0  0  0
 34138  1  0  0  0  0
 37139  1  0  0  0  0
 38140  1  0  0  0  0
 39141  1  0  0  0  0
 39142  1  0  0  0  0
 41143  1  0  0  0  0
 41144  1  0  0  0  0
 42145  1  0  0  0  0
 42146  1  0  0  0  0
 42147  1  0  0  0  0
 44148  1  0  0  0  0
 44149  1  0  0  0  0
 45150  1  0  0  0  0
 45151  1  0  0  0  0
 45152  1  0  0  0  0
 47153  1  0  0  0  0
 48154  1  0  0  0  0
 51155  1  0  0  0  0
 52156  1  0  0  0  0
 53157  1  0  0  0  0
 53158  1  0  0  0  0
 55159  1  0  0  0  0
 55160  1  0  0  0  0
 56161  1  0  0  0  0
 56162  1  0  0  0  0
 56163  1  0  0  0  0
 58164  1  0  0  0  0
 62165  1  0  0  0  0
 63166  1  0  0  0  0
 66167  1  0  0  0  0
 66168  1  0  0  0  0
 67169  1  0  0  0  0
 67170  1  0  0  0  0
 67171  1  0  0  0  0
 73172  1  0  0  0  0
 74173  1  0  0  0  0
 77174  1  0  0  0  0
 77175  1  0  0  0  0
 78176  1  0  0  0  0
 78177  1  0  0  0  0
 78178  1  0  0  0  0
 82179  1  0  0  0  0
 86180  1  0  0  0  0
 86181  1  0  0  0  0
 87182  1  0  0  0  0
 87183  1  0  0  0  0
 87184  1  0  0  0  0
 89185  1  0  0  0  0
 90186  1  0  0  0  0
 93187  1  0  0  0  0
 94188  1  0  0  0  0
 95189  1  0  0  0  0
 95190  1  0  0  0  0
 96191  1  0  0  0  0
 97192  1  0  0  0  0
 97193  1  0  0  0  0
 98194  1  0  0  0  0
 98195  1  0  0  0  0
 98196  1  0  0  0  0
M  END
