206

C          6.73960       -9.40180       11.15650
C          6.86630       -8.10430       10.81330
C          6.30160       -7.80540        9.53850
C          6.22070       -6.55430        8.89290
C          6.58560       -5.31940        9.55070
C          6.39470       -4.98980       10.86500
C          6.82220       -3.70550       11.25470
C          7.37830       -2.95560       10.25830
S          7.88340       -1.29230       10.46010
C          8.96270       -1.06010        9.00390
C         10.27780       -1.79840        9.14260
Se         7.37090       -3.88270        8.61530
C          5.71770       -6.57290        7.59540
C          5.21790       -7.73500        6.96400
C          5.19060       -8.96300        7.65310
C          4.54270      -10.13270        7.10070
C          4.92030      -11.44150        7.21160
C          4.04020      -12.39060        6.65360
C          2.90770      -11.87350        6.09560
S          1.70650      -12.81760        5.24360
C          0.21270      -11.79440        5.50510
C         -0.24470      -11.81430        6.94860
Se         2.88690       -9.99280        6.19960
C          5.77810       -8.96410        8.91830
S          5.93520      -10.35460        9.95960
C          4.78090       -7.46910        5.64140
C          4.89380       -6.16170        5.28050
S          5.56730       -5.17800        6.56290
C          4.47260       -5.54100        4.07330
C          4.56090       -4.21980        3.75750
C          3.92030       -3.87420        2.54410
C          3.77950       -2.59150        1.97390
C          4.30660       -1.39290        2.59020
C          4.77730       -0.27550        1.95260
C          5.19750        0.78710        2.77430
C          5.05950        0.56950        4.11610
S          5.50520        1.70790        5.36410
C          5.49940        0.60020        6.82590
C          6.01550        1.33260        8.04610
Se         4.31310       -1.11970        4.45990
C          3.04740       -2.53740        0.78910
C          2.48880       -3.67160        0.14980
C          2.69200       -4.96330        0.68770
C          2.21750       -6.15340        0.02270
C          2.11430       -6.37160       -1.32630
C          1.64740       -7.63920       -1.72040
C          1.36180       -8.49570       -0.69590
S          0.75540      -10.12170       -0.91900
C          1.50810      -11.00000        0.50380
C          0.64870      -10.95240        1.75040
Se         1.65140       -7.67820        0.97730
C          3.37120       -5.00950        1.90250
S          3.65000       -6.45890        2.83190
C          1.68210       -3.30600       -0.95690
C          1.63070       -1.96270       -1.17980
S          2.60200       -1.06660       -0.03230
C          0.89390       -1.24960       -2.16590
C          0.77040        0.10260       -2.26500
C         -0.08070        0.53000       -3.31110
C         -0.43890        1.85120       -3.64720
C          0.05540        2.99840       -2.91690
C          0.42910        4.20780       -3.44050
C          0.89360        5.16360       -2.51780
C          0.88240        4.75670       -1.21290
S          1.34820        5.75920        0.14290
C          1.66780        4.49650        1.42580
C          2.93380        3.70700        1.16280
Se         0.19320        3.02210       -1.04150
C         -1.32410        1.98520       -4.71360
C         -1.82120        0.89490       -5.46610
C         -1.39790       -0.42160       -5.17570
C         -1.78750       -1.53960       -6.00130
C         -1.96860       -1.53970       -7.35890
C         -2.33930       -2.76640       -7.93890
C         -2.46840       -3.80580       -7.06060
S         -2.86030       -5.43610       -7.56140
C         -2.92620       -6.32740       -5.96840
C         -4.22480       -6.08640       -5.22570
Se        -2.08620       -3.26300       -5.29740
C         -0.57520       -0.56210       -4.06170
S         -0.00290       -2.08220       -3.41970
C         -2.81290        1.30650       -6.39460
C         -3.07770        2.64190       -6.36600
S         -2.05600        3.48480       -5.22160
C         -4.10290        3.35660       -7.07010
C         -4.59570        4.55010       -6.72590
C         -5.75690        4.95020       -7.58350
C         -5.63270        3.98820       -8.78070
C         -4.84080        2.78320       -8.25440
C         -4.87140        4.79440       -9.84900
C         -5.23220        6.27050       -9.57460
C         -6.30470        6.54940      -10.59450
C         -6.38050        5.59480      -11.50500
C         -5.36930        4.51080      -11.27370
C         -5.70570        6.34150       -8.14910
C         -6.08930        7.44070       -7.51030
C         -6.57410        7.43210       -6.12750
C         -5.87020        7.19260       -5.02860
C         -6.73000        7.14010       -3.79470
C         -8.04170        7.79380       -4.27690
C         -8.03300        7.65160       -5.80500
C         -7.95640        9.25450       -3.80370
C         -7.06730        9.20960       -2.54570
C         -8.07480        9.21420       -1.42520
C         -9.28500        9.52970       -1.85220
C         -9.30960        9.80220       -3.32770
C         -6.24490        7.94980       -2.62950
C         -5.28670        7.67380       -1.73920
C         -4.37930        6.55350       -1.63270
C         -3.57170        6.36680       -0.58150
C         -2.65940        5.18830       -0.75190
C         -3.28160        4.44920       -1.94720
C         -4.11430        5.50280       -2.68430
C         -4.13470        3.32630       -1.33300
C         -3.47170        3.01020        0.02320
C         -2.66740        1.77230       -0.27510
C         -2.98950        1.24260       -1.44430
C         -4.06630        2.02020       -2.13900
C         -2.64840        4.21510        0.39120
C         -2.01340        4.39120        1.53810
H          7.08250       -9.88470       12.05050
H          7.37330       -7.37860       11.42230
H          5.90370       -5.65480       11.55550
H          6.71540       -3.33580       12.25990
H          8.39840       -1.39790        8.12860
H          9.11530        0.01670        8.94150
H         10.90070       -1.60990        8.27080
H         10.80780       -1.46650       10.03230
H         10.10750       -2.87250        9.21880
H          5.84760      -11.73460        7.67360
H          4.23690      -13.44860        6.67250
H         -0.53760      -12.22360        4.84210
H          0.45200      -10.78040        5.16920
H         -1.14940      -11.21990        7.05700
H         -0.45270      -12.83300        7.26770
H          0.52270      -11.39660        7.59980
H          4.42450       -8.21580        4.95170
H          5.08700       -3.52960        4.39550
H          4.88560       -0.22880        0.88240
H          5.61710        1.69670        2.38080
H          4.47010        0.25890        6.97160
H          6.13210       -0.25670        6.57790
H          5.37230        2.17590        8.28530
H          6.04070        0.65790        8.89930
H          7.02060        1.70730        7.86580
H          2.44700       -5.64790       -2.05090
H          1.55100       -7.92950       -2.75240
H          2.48630      -10.54690        0.67270
H          1.63820      -12.02510        0.15820
H          0.51800       -9.92240        2.08860
H          1.13050      -11.52080        2.54380
H         -0.33180      -11.38020        1.55460
H          1.10600       -4.00050       -1.54050
H          1.29590        0.76260       -1.59550
H          0.43010        4.39800       -4.50080
H          1.24850        6.13590       -2.81340
H          0.78520        3.84970        1.46450
H          1.73930        5.06040        2.35540
H          2.85660        3.15710        0.22420
H          3.79240        4.37230        1.10580
H          3.09540        2.99040        1.96580
H         -1.78400       -0.66470       -7.95920
H         -2.49650       -2.88850       -8.99670
H         -2.05850       -6.00700       -5.38370
H         -2.81170       -7.37790       -6.23420
H         -4.33940       -5.02860       -4.98630
H         -5.07210       -6.39890       -5.83140
H         -4.22760       -6.65170       -4.29630
H         -3.36820        0.62150       -7.00810
H         -4.25890        5.14780       -5.90010
H         -6.68070        4.80940       -7.01000
H         -6.61120        3.69940       -9.16750
H         -5.50850        1.98210       -7.92650
H         -4.16390        2.37110       -9.00410
H         -3.79960        4.61920       -9.74400
H         -4.38910        6.95220       -9.73410
H         -6.90350        7.44190      -10.54580
H         -7.05350        5.56770      -12.34510
H         -4.55940        4.59580      -12.00400
H         -5.79730        3.51170      -11.37180
H         -6.08520        8.39720       -8.01930
H         -4.80680        7.05120       -4.98170
H         -6.87950        6.09430       -3.50350
H         -8.91300        7.31500       -3.82620
H         -8.43640        8.53260       -6.30750
H         -8.62010        6.78870       -6.13260
H         -7.51250        9.87060       -4.58710
H         -6.41700       10.08680       -2.45090
H         -7.78580        8.99030       -0.41330
H        -10.17150        9.61740       -1.24710
H        -10.15120        9.32080       -3.82900
H         -9.39020       10.87830       -3.50690
H         -5.14050        8.40400       -0.94930
H         -3.52440        6.98630        0.29770
H         -1.64530        5.55390       -0.95590
H         -2.51380        4.01580       -2.58940
H         -3.52790        5.94450       -3.49460
H         -5.01760        5.07420       -3.11420
H         -5.16080        3.67460       -1.20300
H         -4.19700        2.78820        0.81430
H         -1.95580        1.37930        0.43360
H         -2.58150        0.33980       -1.86790
H         -3.84450        2.19500       -3.19310
H         -5.01020        1.46840       -2.09120
H         -2.05630        3.66210        2.33070
H         -1.44220        5.28370        1.73430
