
  xtb     03082210423D
 energy: -269.621443660490 gnorm: 0.000582657953 xtb: 6.4.1 (unknown)
158175  0     0  0            999 V2000
   -3.0772   -8.3955   14.3890 C   0  0  0  0  0  0  0  0  0  0  0  0
   -3.6161   -9.3679   13.6123 C   0  0  0  0  0  0  0  0  0  0  0  0
   -3.5118   -8.9852   12.2271 C   0  0  0  0  0  0  0  0  0  0  0  0
   -2.9006   -7.7682   12.1380 C   0  0  0  0  0  0  0  0  0  0  0  0
   -2.6115   -7.3385   13.5337 C   0  0  0  0  0  0  0  0  0  0  0  0
   -1.9477   -5.9344   14.0494 S   0  0  0  0  0  0  0  0  0  0  0  0
   -2.6108   -7.0445   10.9532 C   0  0  0  0  0  0  0  0  0  0  0  0
   -1.9290   -5.8657   10.8017 C   0  0  0  0  0  0  0  0  0  0  0  0
   -1.8499   -5.4123    9.4689 C   0  0  0  0  0  0  0  0  0  0  0  0
   -1.2200   -4.2399    8.9838 C   0  0  0  0  0  0  0  0  0  0  0  0
   -0.6727   -3.2539    9.8802 C   0  0  0  0  0  0  0  0  0  0  0  0
   -1.1576   -2.8798   11.1075 C   0  0  0  0  0  0  0  0  0  0  0  0
   -0.4157   -1.9089   11.7993 C   0  0  0  0  0  0  0  0  0  0  0  0
    0.7032   -1.4616   11.1503 C   0  0  0  0  0  0  0  0  0  0  0  0
    1.7363   -0.2054   11.7841 S   0  0  0  0  0  0  0  0  0  0  0  0
    3.1595   -0.2701   10.6414 C   0  0  0  0  0  0  0  0  0  0  0  0
    4.0614   -1.4563   10.9154 C   0  0  0  0  0  0  0  0  0  0  0  0
    0.8894   -2.2808    9.4631 Se  0  0  0  0  0  2  0  0  0  0  0  0
   -1.1959   -4.0915    7.5996 C   0  0  0  0  0  0  0  0  0  0  0  0
   -1.7988   -5.0009    6.6993 C   0  0  0  0  0  0  0  0  0  0  0  0
   -2.4411   -6.1629    7.1855 C   0  0  0  0  0  0  0  0  0  0  0  0
   -3.0320   -7.1268    6.2827 C   0  0  0  0  0  0  0  0  0  0  0  0
   -2.5193   -7.5571    5.0889 C   0  0  0  0  0  0  0  0  0  0  0  0
   -3.2965   -8.4936    4.3792 C   0  0  0  0  0  0  0  0  0  0  0  0
   -4.4729   -8.8303    4.9833 C   0  0  0  0  0  0  0  0  0  0  0  0
   -5.7059   -9.9507    4.4491 S   0  0  0  0  0  0  0  0  0  0  0  0
   -5.4962   -9.9306    2.6317 C   0  0  0  0  0  0  0  0  0  0  0  0
   -5.8220   -8.5778    2.0320 C   0  0  0  0  0  0  0  0  0  0  0  0
   -4.7042   -7.9450    6.6217 Se  0  0  0  0  0  2  0  0  0  0  0  0
   -2.4579   -6.3198    8.5650 C   0  0  0  0  0  0  0  0  0  0  0  0
   -3.1591   -7.6739    9.4051 S   0  0  0  0  0  0  0  0  0  0  0  0
   -1.7175   -4.5504    5.3614 C   0  0  0  0  0  0  0  0  0  0  0  0
   -1.0555   -3.3659    5.2172 C   0  0  0  0  0  0  0  0  0  0  0  0
   -0.5043   -2.7315    6.7535 S   0  0  0  0  0  0  0  0  0  0  0  0
   -0.8288   -2.6364    4.0175 C   0  0  0  0  0  0  0  0  0  0  0  0
   -0.1918   -1.4387    3.8749 C   0  0  0  0  0  0  0  0  0  0  0  0
   -0.1834   -0.9481    2.5473 C   0  0  0  0  0  0  0  0  0  0  0  0
    0.4055    0.2428    2.0657 C   0  0  0  0  0  0  0  0  0  0  0  0
    1.0293    1.1959    2.9531 C   0  0  0  0  0  0  0  0  0  0  0  0
    0.6309    1.5605    4.2111 C   0  0  0  0  0  0  0  0  0  0  0  0
    1.4487    2.4920    4.8758 C   0  0  0  0  0  0  0  0  0  0  0  0
    2.5422    2.9107    4.1696 C   0  0  0  0  0  0  0  0  0  0  0  0
    3.6657    4.1093    4.7665 S   0  0  0  0  0  0  0  0  0  0  0  0
    4.9775    4.0716    3.4964 C   0  0  0  0  0  0  0  0  0  0  0  0
    5.8830    2.8651    3.6392 C   0  0  0  0  0  0  0  0  0  0  0  0
    2.6020    2.1148    2.4630 Se  0  0  0  0  0  2  0  0  0  0  0  0
    0.3419    0.4416    0.6902 C   0  0  0  0  0  0  0  0  0  0  0  0
   -0.2877   -0.4577   -0.2020 C   0  0  0  0  0  0  0  0  0  0  0  0
   -0.8705   -1.6513    0.2749 C   0  0  0  0  0  0  0  0  0  0  0  0
   -1.4497   -2.6397   -0.6095 C   0  0  0  0  0  0  0  0  0  0  0  0
   -2.5487   -3.4191   -0.3793 C   0  0  0  0  0  0  0  0  0  0  0  0
   -2.8298   -4.4010   -1.3507 C   0  0  0  0  0  0  0  0  0  0  0  0
   -1.9472   -4.4590   -2.3878 C   0  0  0  0  0  0  0  0  0  0  0  0
   -2.1017   -5.5279   -3.7638 S   0  0  0  0  0  0  0  0  0  0  0  0
   -0.3385   -5.8764   -4.1093 C   0  0  0  0  0  0  0  0  0  0  0  0
    0.3025   -6.6958   -3.0089 C   0  0  0  0  0  0  0  0  0  0  0  0
   -0.6206   -3.1258   -2.2370 Se  0  0  0  0  0  2  0  0  0  0  0  0
   -0.8149   -1.8467    1.6515 C   0  0  0  0  0  0  0  0  0  0  0  0
   -1.4374   -3.2428    2.4914 S   0  0  0  0  0  0  0  0  0  0  0  0
   -0.2788    0.0265   -1.5285 C   0  0  0  0  0  0  0  0  0  0  0  0
    0.3495    1.2317   -1.6745 C   0  0  0  0  0  0  0  0  0  0  0  0
    0.9627    1.8363   -0.1535 S   0  0  0  0  0  0  0  0  0  0  0  0
    0.5052    1.9530   -2.8915 C   0  0  0  0  0  0  0  0  0  0  0  0
   -0.0680    1.6293   -4.0913 C   0  0  0  0  0  0  0  0  0  0  0  0
    0.2792    2.4939   -5.1485 C   0  0  0  0  0  0  0  0  0  0  0  0
   -0.1760    2.4352   -6.4907 C   0  0  0  0  0  0  0  0  0  0  0  0
   -0.9758    1.3392   -6.9830 C   0  0  0  0  0  0  0  0  0  0  0  0
   -1.9386    1.3715   -7.9572 C   0  0  0  0  0  0  0  0  0  0  0  0
   -2.5174    0.1391   -8.3068 C   0  0  0  0  0  0  0  0  0  0  0  0
   -2.0276   -0.9479   -7.6365 C   0  0  0  0  0  0  0  0  0  0  0  0
   -2.6561   -2.5665   -7.8259 S   0  0  0  0  0  0  0  0  0  0  0  0
   -1.5080   -3.5497   -6.8017 C   0  0  0  0  0  0  0  0  0  0  0  0
   -0.1824   -3.7880   -7.4964 C   0  0  0  0  0  0  0  0  0  0  0  0
   -0.6990   -0.4418   -6.4095 Se  0  0  0  0  0  2  0  0  0  0  0  0
    0.2181    3.4867   -7.3088 C   0  0  0  0  0  0  0  0  0  0  0  0
    1.0561    4.5450   -6.8715 C   0  0  0  0  0  0  0  0  0  0  0  0
    1.5300    4.5914   -5.5347 C   0  0  0  0  0  0  0  0  0  0  0  0
    2.3395    5.6692   -5.0267 C   0  0  0  0  0  0  0  0  0  0  0  0
    3.3111    5.5929   -4.0603 C   0  0  0  0  0  0  0  0  0  0  0  0
    3.8769    6.8084   -3.6459 C   0  0  0  0  0  0  0  0  0  0  0  0
    3.3615    7.9240   -4.2502 C   0  0  0  0  0  0  0  0  0  0  0  0
    3.8897    9.5491   -3.9101 S   0  0  0  0  0  0  0  0  0  0  0  0
    2.7770   10.4984   -5.0119 C   0  0  0  0  0  0  0  0  0  0  0  0
    3.0464   11.9822   -4.8762 C   0  0  0  0  0  0  0  0  0  0  0  0
    2.0439    7.4721   -5.5111 Se  0  0  0  0  0  2  0  0  0  0  0  0
    1.1261    3.5409   -4.7134 C   0  0  0  0  0  0  0  0  0  0  0  0
    1.4995    3.3805   -3.0141 S   0  0  0  0  0  0  0  0  0  0  0  0
    1.3618    5.4299   -7.9190 C   0  0  0  0  0  0  0  0  0  0  0  0
    0.7727    5.1109   -9.1244 C   0  0  0  0  0  0  0  0  0  0  0  0
   -0.1858    3.6583   -9.0012 S   0  0  0  0  0  0  0  0  0  0  0  0
    0.8880    5.8389  -10.3298 C   0  0  0  0  0  0  0  0  0  0  0  0
    1.5849    7.0279  -10.5373 C   0  0  0  0  0  0  0  0  0  0  0  0
    1.4305    7.4481  -11.8642 C   0  0  0  0  0  0  0  0  0  0  0  0
    0.6150    6.5525  -12.5520 C   0  0  0  0  0  0  0  0  0  0  0  0
    0.2487    5.5006  -11.5845 C   0  0  0  0  0  0  0  0  0  0  0  0
   -0.7523    4.2239  -11.8178 S   0  0  0  0  0  0  0  0  0  0  0  0
    0.2097    6.6037  -13.8918 C   0  0  0  0  0  0  0  0  0  0  0  0
   -0.2899    5.5939  -14.6911 C   0  0  0  0  0  0  0  0  0  0  0  0
   -0.5672    6.1133  -15.9835 C   0  0  0  0  0  0  0  0  0  0  0  0
   -0.2437    7.4449  -16.0293 C   0  0  0  0  0  0  0  0  0  0  0  0
    0.2377    7.8311  -14.7495 C   0  0  0  0  0  0  0  0  0  0  0  0
    0.6063    9.3635  -14.2880 S   0  0  0  0  0  0  0  0  0  0  0  0
   -2.9998   -8.3685   15.4587 H   0  0  0  0  0  0  0  0  0  0  0  0
   -4.0578  -10.2881   13.9499 H   0  0  0  0  0  0  0  0  0  0  0  0
   -3.8598   -9.5767   11.4002 H   0  0  0  0  0  0  0  0  0  0  0  0
   -1.4670   -5.3639   11.6304 H   0  0  0  0  0  0  0  0  0  0  0  0
   -2.0800   -3.2690   11.5028 H   0  0  0  0  0  0  0  0  0  0  0  0
   -0.7008   -1.5401   12.7692 H   0  0  0  0  0  0  0  0  0  0  0  0
    3.6841    0.6717   10.7988 H   0  0  0  0  0  0  0  0  0  0  0  0
    2.7556   -0.2924    9.6241 H   0  0  0  0  0  0  0  0  0  0  0  0
    4.9065   -1.4427   10.2306 H   0  0  0  0  0  0  0  0  0  0  0  0
    3.5189   -2.3916   10.7755 H   0  0  0  0  0  0  0  0  0  0  0  0
    4.4349   -1.4216   11.9361 H   0  0  0  0  0  0  0  0  0  0  0  0
   -1.5494   -7.2487    4.7354 H   0  0  0  0  0  0  0  0  0  0  0  0
   -2.9671   -8.9118    3.4436 H   0  0  0  0  0  0  0  0  0  0  0  0
   -4.4801  -10.2495    2.4038 H   0  0  0  0  0  0  0  0  0  0  0  0
   -6.1915  -10.6938    2.2832 H   0  0  0  0  0  0  0  0  0  0  0  0
   -6.8438   -8.2943    2.2731 H   0  0  0  0  0  0  0  0  0  0  0  0
   -5.1511   -7.8128    2.4175 H   0  0  0  0  0  0  0  0  0  0  0  0
   -5.7171   -8.6194    0.9497 H   0  0  0  0  0  0  0  0  0  0  0  0
   -2.1634   -5.0611    4.5274 H   0  0  0  0  0  0  0  0  0  0  0  0
    0.2802   -0.9440    4.7038 H   0  0  0  0  0  0  0  0  0  0  0  0
   -0.2822    1.1969    4.6516 H   0  0  0  0  0  0  0  0  0  0  0  0
    1.2324    2.8564    5.8651 H   0  0  0  0  0  0  0  0  0  0  0  0
    4.4823    4.0956    2.5205 H   0  0  0  0  0  0  0  0  0  0  0  0
    5.5291    4.9999    3.6413 H   0  0  0  0  0  0  0  0  0  0  0  0
    5.3163    1.9421    3.5135 H   0  0  0  0  0  0  0  0  0  0  0  0
    6.6614    2.8968    2.8799 H   0  0  0  0  0  0  0  0  0  0  0  0
    6.3495    2.8548    4.6214 H   0  0  0  0  0  0  0  0  0  0  0  0
   -3.1791   -3.2813    0.4825 H   0  0  0  0  0  0  0  0  0  0  0  0
   -3.6698   -5.0698   -1.2768 H   0  0  0  0  0  0  0  0  0  0  0  0
    0.1612   -4.9113   -4.2378 H   0  0  0  0  0  0  0  0  0  0  0  0
   -0.3403   -6.4126   -5.0575 H   0  0  0  0  0  0  0  0  0  0  0  0
    0.2805   -6.1518   -2.0652 H   0  0  0  0  0  0  0  0  0  0  0  0
   -0.2269   -7.6369   -2.8788 H   0  0  0  0  0  0  0  0  0  0  0  0
    1.3394   -6.9077   -3.2612 H   0  0  0  0  0  0  0  0  0  0  0  0
   -0.7467   -0.4811   -2.3537 H   0  0  0  0  0  0  0  0  0  0  0  0
   -0.7701    0.8198   -4.1819 H   0  0  0  0  0  0  0  0  0  0  0  0
   -2.2731    2.2916   -8.4042 H   0  0  0  0  0  0  0  0  0  0  0  0
   -3.2945    0.0509   -9.0459 H   0  0  0  0  0  0  0  0  0  0  0  0
   -2.0362   -4.4845   -6.6159 H   0  0  0  0  0  0  0  0  0  0  0  0
   -1.3826   -3.0183   -5.8517 H   0  0  0  0  0  0  0  0  0  0  0  0
    0.3205   -2.8430   -7.7022 H   0  0  0  0  0  0  0  0  0  0  0  0
   -0.3375   -4.3085   -8.4384 H   0  0  0  0  0  0  0  0  0  0  0  0
    0.4672   -4.3905   -6.8649 H   0  0  0  0  0  0  0  0  0  0  0  0
    3.6586    4.6511   -3.6711 H   0  0  0  0  0  0  0  0  0  0  0  0
    4.6549    6.8685   -2.9049 H   0  0  0  0  0  0  0  0  0  0  0  0
    1.7510   10.2518   -4.7253 H   0  0  0  0  0  0  0  0  0  0  0  0
    2.9626   10.1513   -6.0329 H   0  0  0  0  0  0  0  0  0  0  0  0
    2.3821   12.5381   -5.5339 H   0  0  0  0  0  0  0  0  0  0  0  0
    4.0753   12.2090   -5.1455 H   0  0  0  0  0  0  0  0  0  0  0  0
    2.8772   12.3073   -3.8523 H   0  0  0  0  0  0  0  0  0  0  0  0
    2.0351    6.2648   -7.8264 H   0  0  0  0  0  0  0  0  0  0  0  0
    2.1688    7.5454   -9.7979 H   0  0  0  0  0  0  0  0  0  0  0  0
    1.9009    8.3137  -12.2893 H   0  0  0  0  0  0  0  0  0  0  0  0
   -0.4046    4.5657  -14.4077 H   0  0  0  0  0  0  0  0  0  0  0  0
   -0.9605    5.5316  -16.7983 H   0  0  0  0  0  0  0  0  0  0  0  0
   -0.3548    8.1183  -16.8574 H   0  0  0  0  0  0  0  0  0  0  0  0
  1  2  2  0  0  0  0
  2  3  1  0  0  0  0
  3  4  2  0  0  0  0
  4  5  1  0  0  0  0
  5  6  2  0  0  0  0
  4  7  1  0  0  0  0
  7  8  2  0  0  0  0
  8  9  1  0  0  0  0
  9 10  2  0  0  0  0
 10 11  1  0  0  0  0
 11 12  2  0  0  0  0
 12 13  1  0  0  0  0
 13 14  2  0  0  0  0
 14 15  1  0  0  0  0
 15 16  1  0  0  0  0
 16 17  1  0  0  0  0
 14 18  1  0  0  0  0
 10 19  1  0  0  0  0
 19 20  2  0  0  0  0
 20 21  1  0  0  0  0
 21 22  1  0  0  0  0
 22 23  2  0  0  0  0
 23 24  1  0  0  0  0
 24 25  2  0  0  0  0
 25 26  1  0  0  0  0
 26 27  1  0  0  0  0
 27 28  1  0  0  0  0
 25 29  1  0  0  0  0
 21 30  2  0  0  0  0
 30 31  1  0  0  0  0
 20 32  1  0  0  0  0
 32 33  2  0  0  0  0
 33 34  1  0  0  0  0
 33 35  1  0  0  0  0
 35 36  2  0  0  0  0
 36 37  1  0  0  0  0
 37 38  2  0  0  0  0
 38 39  1  0  0  0  0
 39 40  2  0  0  0  0
 40 41  1  0  0  0  0
 41 42  2  0  0  0  0
 42 43  1  0  0  0  0
 43 44  1  0  0  0  0
 44 45  1  0  0  0  0
 42 46  1  0  0  0  0
 38 47  1  0  0  0  0
 47 48  2  0  0  0  0
 48 49  1  0  0  0  0
 49 50  1  0  0  0  0
 50 51  2  0  0  0  0
 51 52  1  0  0  0  0
 52 53  2  0  0  0  0
 53 54  1  0  0  0  0
 54 55  1  0  0  0  0
 55 56  1  0  0  0  0
 53 57  1  0  0  0  0
 49 58  2  0  0  0  0
 58 59  1  0  0  0  0
 48 60  1  0  0  0  0
 60 61  2  0  0  0  0
 61 62  1  0  0  0  0
 61 63  1  0  0  0  0
 63 64  2  0  0  0  0
 64 65  1  0  0  0  0
 65 66  2  0  0  0  0
 66 67  1  0  0  0  0
 67 68  2  0  0  0  0
 68 69  1  0  0  0  0
 69 70  2  0  0  0  0
 70 71  1  0  0  0  0
 71 72  1  0  0  0  0
 72 73  1  0  0  0  0
 70 74  1  0  0  0  0
 66 75  1  0  0  0  0
 75 76  2  0  0  0  0
 76 77  1  0  0  0  0
 77 78  1  0  0  0  0
 78 79  2  0  0  0  0
 79 80  1  0  0  0  0
 80 81  2  0  0  0  0
 81 82  1  0  0  0  0
 82 83  1  0  0  0  0
 83 84  1  0  0  0  0
 81 85  1  0  0  0  0
 77 86  2  0  0  0  0
 86 87  1  0  0  0  0
 76 88  1  0  0  0  0
 88 89  2  0  0  0  0
 89 90  1  0  0  0  0
 89 91  1  0  0  0  0
 91 92  2  0  0  0  0
 92 93  1  0  0  0  0
 93 94  2  0  0  0  0
 94 95  1  0  0  0  0
 95 96  2  0  0  0  0
 94 97  1  0  0  0  0
 97 98  2  0  0  0  0
 98 99  1  0  0  0  0
 99100  2  0  0  0  0
100101  1  0  0  0  0
101102  2  0  0  0  0
  5  1  1  0  0  0  0
 31  7  1  0  0  0  0
 59 35  1  0  0  0  0
 87 63  1  0  0  0  0
 95 91  1  0  0  0  0
101 97  1  0  0  0  0
 30  9  1  0  0  0  0
 58 37  1  0  0  0  0
 86 65  1  0  0  0  0
 18 11  1  0  0  0  0
 34 19  1  0  0  0  0
 46 39  1  0  0  0  0
 62 47  1  0  0  0  0
 74 67  1  0  0  0  0
 90 75  1  0  0  0  0
 29 22  1  0  0  0  0
 57 50  1  0  0  0  0
 85 78  1  0  0  0  0
  1103  1  0  0  0  0
  2104  1  0  0  0  0
  3105  1  0  0  0  0
  8106  1  0  0  0  0
 12107  1  0  0  0  0
 13108  1  0  0  0  0
 16109  1  0  0  0  0
 16110  1  0  0  0  0
 17111  1  0  0  0  0
 17112  1  0  0  0  0
 17113  1  0  0  0  0
 23114  1  0  0  0  0
 24115  1  0  0  0  0
 27116  1  0  0  0  0
 27117  1  0  0  0  0
 28118  1  0  0  0  0
 28119  1  0  0  0  0
 28120  1  0  0  0  0
 32121  1  0  0  0  0
 36122  1  0  0  0  0
 40123  1  0  0  0  0
 41124  1  0  0  0  0
 44125  1  0  0  0  0
 44126  1  0  0  0  0
 45127  1  0  0  0  0
 45128  1  0  0  0  0
 45129  1  0  0  0  0
 51130  1  0  0  0  0
 52131  1  0  0  0  0
 55132  1  0  0  0  0
 55133  1  0  0  0  0
 56134  1  0  0  0  0
 56135  1  0  0  0  0
 56136  1  0  0  0  0
 60137  1  0  0  0  0
 64138  1  0  0  0  0
 68139  1  0  0  0  0
 69140  1  0  0  0  0
 72141  1  0  0  0  0
 72142  1  0  0  0  0
 73143  1  0  0  0  0
 73144  1  0  0  0  0
 73145  1  0  0  0  0
 79146  1  0  0  0  0
 80147  1  0  0  0  0
 83148  1  0  0  0  0
 83149  1  0  0  0  0
 84150  1  0  0  0  0
 84151  1  0  0  0  0
 84152  1  0  0  0  0
 88153  1  0  0  0  0
 92154  1  0  0  0  0
 93155  1  0  0  0  0
 98156  1  0  0  0  0
 99157  1  0  0  0  0
100158  1  0  0  0  0
M  END
