179

C         13.52450       -5.05940        5.85760
C         12.97010       -4.41660        4.80990
C         11.61660       -4.03550        5.04250
C         10.72720       -3.41480        4.14200
C         11.14090       -2.95830        2.83270
C         12.30680       -2.33000        2.49310
C         12.46340       -2.00110        1.13240
C         11.42180       -2.36700        0.32810
S         11.34330       -2.03990       -1.38690
C          9.92320       -3.09820       -1.85860
C          9.59890       -2.91940       -3.32710
Se        10.04320       -3.19020        1.31600
C          9.41870       -3.27110        4.58570
C          8.97120       -3.65970        5.86940
C          9.85980       -4.27500        6.77730
C          9.43400       -4.77090        8.06620
C         10.17590       -4.82710        9.21540
C          9.57050       -5.44610       10.32580
C          8.31830       -5.93880       10.09710
S          7.21010       -6.74780       11.17480
C          8.29170       -7.27410       12.55080
C          9.24290       -8.38070       12.13920
Se         7.75160       -5.61660        8.34430
C         11.17110       -4.43740        6.32370
S         12.45070       -5.24030        7.19820
C          7.60710       -3.33940        6.07340
C          7.00020       -2.78290        4.98320
S          8.12980       -2.56380        3.65480
C          5.65420       -2.38000        4.78110
S          5.31650       -1.28890        3.48600
C          3.60690       -1.31280        3.77310
C          3.30670       -2.14240        4.86000
C          4.47380       -2.76440        5.42700
C          4.32400       -3.69440        6.47200
C          3.07460       -3.96070        6.97660
C          2.92260       -4.89770        8.02440
N          2.81810       -5.65870        8.87480
C          1.92060       -3.30050        6.44860
C          0.64790       -3.57920        6.99570
N         -0.39380       -3.79470        7.42280
C          2.03950       -2.41630        5.40370
C          2.78260       -0.60000        2.86770
C          3.26000        0.16540        1.83420
C          2.26900        0.67090        0.97230
C          2.45770        1.45050       -0.19390
C          3.76920        1.78060       -0.70280
C          4.14850        2.93730       -1.33050
C          5.48560        3.00270       -1.76210
C          6.23020        1.88030       -1.52590
S          7.90020        1.69960       -2.00220
C          8.40760        0.21390       -1.06390
C          8.59440        0.48420        0.41450
Se         5.20350        0.55010       -0.68530
C          1.29410        1.85210       -0.84090
C         -0.00600        1.51940       -0.38690
C         -0.19310        0.73100        0.77200
C         -1.50700        0.36110        1.25410
C         -1.87580       -0.84570        1.78360
C         -3.20650       -0.95060        2.23520
C         -3.94660        0.18690        2.09630
S         -5.61890        0.46810        2.50630
C         -6.32710       -1.22100        2.39290
C         -7.82620       -1.12350        2.19510
Se        -2.96000        1.57800        1.32060
C          0.96870        0.31340        1.40730
S          1.03290       -0.67480        2.84460
C         -1.00100        1.96560       -1.27680
C         -0.52170        2.61140       -2.38760
S          1.22630        2.72250       -2.35380
C         -1.34680        3.08870       -3.43700
S         -3.04380        3.22310       -3.12080
C         -3.42830        3.62750       -4.76620
C         -2.26310        3.64230       -5.54720
C         -1.07560        3.37990       -4.77860
C          0.17910        3.36520       -5.41310
C          0.25960        3.54650       -6.77220
C          1.51800        3.52980       -7.41590
N          2.54310        3.51380       -7.92760
C         -0.92790        3.71260       -7.55060
C         -0.82890        3.80980       -8.95740
N         -0.76860        3.88340      -10.09910
C         -2.16120        3.75590       -6.94530
C         -4.79890        3.77010       -5.08910
S         -5.94010        2.91580       -4.09220
C         -7.29180        3.41000       -5.04190
C         -6.88860        4.25780       -6.07880
C         -5.46990        4.49240       -6.08680
C         -4.93860        5.45690       -6.96180
C         -5.76170        6.09670       -7.85780
C         -5.23390        7.07930       -8.72640
N         -4.79480        7.87720       -9.42170
C         -7.16200        5.80740       -7.89680
C         -7.98360        6.46610       -8.84080
N         -8.66490        6.97850       -9.60620
C         -7.71470        4.92280       -7.00380
C         -8.59460        2.95450       -4.70140
C         -9.64890        2.68720       -5.52590
C        -10.80050        2.22030       -4.84710
C        -12.04580        1.87990       -5.41580
C        -12.35190        2.15270       -6.80080
C        -13.17530        1.44210       -7.63280
C        -13.41460        1.99940       -8.90260
C        -12.80270        3.19860       -9.13090
S        -12.86510        4.23630      -10.53150
C        -13.30580        3.07130      -11.87010
C        -12.19700        2.07540      -12.14460
Se       -11.76620        3.74030       -7.67190
C        -12.97500        1.31670       -4.53870
C        -12.75110        1.18010       -3.14860
C        -11.55430        1.64860       -2.56470
C        -11.38550        1.71450       -1.13060
C        -12.35590        2.01740       -0.21320
C        -11.93890        2.09630        1.12910
C        -10.61260        1.86010        1.33780
S         -9.84110        1.85500        2.90620
C         -8.27790        2.70930        2.49110
C         -8.51100        4.16160        2.13540
Se        -9.72430        1.44920       -0.27990
C        -10.58480        2.10090       -3.45450
S         -8.98150        2.62230       -3.01950
C        -13.85010        0.54410       -2.50030
C        -14.86590        0.25910       -3.34010
S        -14.56020        0.73350       -4.97220
H         14.51940       -5.45100        5.94130
H         13.48410       -4.24040        3.88330
H         13.04720       -2.06410        3.22900
H         13.33540       -1.50000        0.74960
H         10.20260       -4.12980       -1.63240
H          9.07980       -2.80320       -1.22510
H          9.32950       -1.88720       -3.53860
H          8.76420       -3.56080       -3.60020
H         10.45700       -3.18350       -3.94050
H         11.15230       -4.37990        9.29330
H         10.07000       -5.51080       11.27660
H          7.59200       -7.62060       13.31100
H          8.81350       -6.39510       12.92720
H          9.84080       -8.69020       12.99420
H          8.68490       -9.24030       11.77480
H          9.91210       -8.04460       11.34990
H          7.11620       -3.44590        7.02380
H          5.17840       -4.22210        6.86720
H          1.15940       -1.93660        5.00520
H          4.31250        0.36710        1.72950
H          3.48500        3.77980       -1.43100
H          5.90280        3.87490       -2.23440
H          7.64760       -0.55350       -1.24310
H          9.34730       -0.08780       -1.52580
H          8.89910       -0.43270        0.91980
H          7.66570        0.83010        0.86920
H          9.36120        1.23920        0.56850
H         -1.20630       -1.68850        1.81910
H         -3.59520       -1.85860        2.66240
H         -6.08460       -1.74780        3.31580
H         -5.84410       -1.70860        1.54650
H         -8.05760       -0.57540        1.28100
H         -8.25250       -2.12110        2.11770
H         -8.29350       -0.60960        3.03180
H         -2.05110        1.76330       -1.15050
H          1.07710        3.20010       -4.83860
H         -3.04810        3.83780       -7.55370
H         -3.89690        5.73200       -6.90480
H         -8.78310        4.76430       -6.99610
H         -9.56910        2.72240       -6.59860
H        -13.59490        0.49040       -7.35490
H        -14.05050        1.51400       -9.62220
H        -14.24360        2.58590      -11.60340
H        -13.47550        3.71860      -12.73010
H        -11.28090        2.59620      -12.41380
H        -12.48250        1.42250      -12.96720
H        -12.00070        1.46240      -11.26660
H        -13.36200        2.26540       -0.50610
H        -12.60610        2.35630        1.93270
H         -7.65400        2.60550        3.37690
H         -7.81890        2.16010        1.66510
H         -7.55900        4.64600        1.92940
H         -9.00000        4.68200        2.95550
H         -9.13960        4.24150        1.24870
H        -13.85370        0.28130       -1.45860
H        -15.79630       -0.22220       -3.11050
