278

C         12.31850      -18.57180       -3.93560
C         12.67370      -17.31310       -4.26070
C         11.55980      -16.48770       -4.59580
C         11.55810      -15.12600       -4.95240
C         12.77390      -14.36070       -5.13140
C         13.93720      -14.75670       -5.73010
C         14.94450      -13.77610       -5.83730
C         14.62290      -12.55780       -5.31250
S         15.69640      -11.17820       -5.27760
C         14.49410       -9.80220       -5.17010
C         13.69150       -9.63390       -6.44320
Se        12.89690      -12.57070       -4.55360
C         10.30750      -14.54920       -5.15370
C          9.08380      -15.24950       -5.04540
C          9.08600      -16.60930       -4.67280
C          7.85270      -17.33500       -4.47420
C          6.69660      -16.86770       -3.91050
C          5.61930      -17.77160       -3.86390
C          5.87550      -19.00470       -4.39450
S          4.70800      -20.30780       -4.39150
C          5.55160      -21.58130       -5.39270
C          5.50620      -21.27330       -6.87530
Se         7.65090      -19.12880       -5.01450
C         10.33870      -17.18980       -4.48080
S         10.61170      -18.84380       -3.99920
C          7.97540      -14.42630       -5.37320
C          8.32060      -13.14560       -5.68170
S         10.05220      -12.89190       -5.61810
C          7.48060      -12.03140       -5.95860
C          7.88150      -10.74510       -6.16130
C          6.81570       -9.82290       -6.28580
C          6.89360       -8.42450       -6.44750
C          8.14840       -7.70470       -6.49250
C          8.42450       -6.58600       -7.22970
C          9.68840       -5.99890       -7.02450
C         10.46800       -6.61600       -6.09110
S         12.11500       -6.15580       -5.72160
C         12.25030       -6.71770       -3.98640
C         11.41100       -5.87300       -3.05070
Se         9.61430       -8.13920       -5.38350
C          5.67420       -7.75110       -6.50060
C          4.41600       -8.39640       -6.42470
C          4.34140       -9.80380       -6.32200
C          3.07630      -10.49900       -6.31070
C          1.94940      -10.19120       -7.02520
C          0.84010      -11.03470       -6.83150
C          1.03410      -12.04950       -5.93650
S         -0.21420      -13.18050       -5.47140
C          0.74530      -14.45180       -4.57440
C          1.54750      -15.33760       -5.50570
Se         2.78090      -12.01490       -5.22940
C          5.55830      -10.46840       -6.21610
S          5.73800      -12.18740       -5.97750
C          3.35020       -7.46760       -6.34590
C          3.75480       -6.16400       -6.36920
S          5.48970       -6.01860       -6.53200
C          2.94570       -4.99860       -6.21070
C          1.58390       -4.93050       -6.14190
C          1.09160       -3.63050       -5.86440
C         -0.24190       -3.23970       -5.64100
C         -1.34950       -4.18180       -5.83830
C         -2.33940       -4.35650       -4.87260
C         -3.37420       -5.24200       -5.08040
C         -3.46620       -5.99640       -6.24970
S         -4.80940       -7.14030       -6.35600
C         -5.28980       -7.14410       -8.12330
C         -5.67890       -5.76440       -8.61280
C         -2.46100       -5.82530       -7.19670
F         -2.45400       -6.54070       -8.34500
C         -1.42890       -4.92830       -7.01010
C         -0.44420       -1.93470       -5.21600
C          0.61660       -1.00990       -5.05450
C          1.94350       -1.38950       -5.30730
C          3.04290       -0.44200       -5.07230
C          3.18940        0.15020       -3.81880
C          4.18490        1.07730       -3.59200
C          5.05890        1.44940       -4.60710
S          6.31230        2.65830       -4.25420
C          5.92130        3.93420       -5.50790
C          4.55930        4.55530       -5.26650
C          4.92690        0.82300       -5.84170
C          3.93670       -0.10970       -6.08330
F          5.76640        1.12940       -6.85170
C          2.14810       -2.69610       -5.71140
S          3.70220       -3.43610       -5.97400
C          0.16130        0.25410       -4.61460
C         -1.18600        0.30990       -4.40350
S         -1.97590       -1.20140       -4.80430
C         -1.88450        1.40590       -3.81440
C         -1.32860        2.59810       -3.44900
C         -2.20120        3.43830       -2.72160
C         -1.88960        4.67120       -2.10950
C         -0.63210        5.33120       -2.36710
C          0.04250        5.37330       -3.55820
C          1.28040        6.04070       -3.54720
C          1.65050        6.55030       -2.33420
S          3.19350        7.32050       -2.04960
C          2.91010        8.14180       -0.44400
C          2.01400        9.35680       -0.56820
Se         0.33980        6.21910       -1.01780
C         -2.84780        5.17130       -1.23560
C         -4.11210        4.56980       -1.02280
C         -4.44920        3.37480       -1.69570
C         -5.71800        2.71100       -1.49520
C         -6.41350        2.54670       -0.32960
C         -7.64890        1.87920       -0.43340
C         -7.98790        1.48160       -1.69590
S         -9.43770        0.57280       -2.05750
C         -9.46410        0.60830       -3.88270
C         -9.90920        1.95070       -4.42640
Se        -6.64730        1.93470       -2.94100
C         -3.46620        2.83940       -2.52310
S         -3.55760        1.28640       -3.31620
C         -4.88400        5.29650       -0.08330
C         -4.23120        6.36930        0.45190
S         -2.64440        6.59180       -0.25300
C         -4.64710        7.20390        1.53130
C         -5.81310        7.14580        2.23910
C         -5.84820        8.02330        3.34990
C         -6.85990        8.13630        4.32920
C         -8.13760        7.47810        4.18140
C         -8.84750        7.30720        3.02390
C        -10.05640        6.59270        3.13560
C        -10.35340        6.15660        4.39400
S        -11.83090        5.32480        4.82390
C        -11.24450        4.29670        6.21780
C        -10.31520        3.19460        5.75330
Se        -9.05070        6.71240        5.64360
C         -6.54160        8.90720        5.44150
C         -5.32390        9.61270        5.59240
C         -4.34560        9.56690        4.57760
C         -3.08160       10.26550        4.66430
C         -2.38850       10.83270        3.62910
C         -1.14910       11.41550        3.95440
C         -0.78530       11.31320        5.26660
S          0.73580       11.88320        5.91010
C          0.33140       12.08410        7.68340
C         -0.59970       13.25170        7.93290
Se        -2.08390       10.38670        6.26290
C         -4.64370        8.75580        3.48370
S         -3.54320        8.39370        2.18230
C         -5.27170       10.30360        6.82800
C         -6.37380       10.12470        7.60650
S         -7.58050        9.12680        6.82280
C         -6.60380       10.60340        8.92710
C         -7.74130       10.46770        9.66160
C         -7.64030       11.00370       10.97010
C         -8.61000       10.97180       11.98410
C         -9.92650       10.38840       11.69990
C        -10.44700        9.35100       12.46980
C        -11.60700        8.71080       12.08630
C        -12.30200        9.09390       10.94140
S        -13.73750        8.16530       10.48670
C        -13.56730        7.99690        8.66880
C        -12.24930        7.36520        8.26810
C        -11.82280       10.19580       10.23890
F        -12.49150       10.67960        9.16990
C        -10.64610       10.82300       10.59030
C         -8.23350       11.47770       13.21830
C         -6.94610       12.01110       13.47480
C         -5.97330       12.03260       12.46340
C         -4.59320       12.47220       12.70030
C         -3.86190       11.97180       13.77410
C         -2.53290       12.30430       13.95320
C         -1.88230       13.14410       13.05650
S         -0.19300       13.63800       13.15370
C          0.55780       12.43340       14.30210
C          0.63940       11.04200       13.70390
C         -2.63420       13.65660       11.99830
C         -3.95950       13.33790       11.81080
F         -2.03810       14.48490       11.11570
C         -6.35630       11.54260       11.22250
S         -5.32800       11.41130        9.81680
C         -6.84500       12.50820       14.80850
C         -7.98020       12.34650       15.51790
S         -9.25440       11.58380       14.62860
H         12.95420      -19.38520       -3.64560
H         13.68810      -16.95980       -4.24260
H         14.05110      -15.73470       -6.16750
H         15.88720      -13.96030       -6.32270
H         15.10260       -8.92220       -4.96480
H         13.85160      -10.00650       -4.30730
H         13.08170      -10.51730       -6.63520
H         13.03150       -8.77300       -6.35370
H         14.35330       -9.47640       -7.29130
H          6.62610      -15.88200       -3.48230
H          4.66440      -17.51940       -3.43560
H          6.57930      -21.65120       -5.02280
H          5.02390      -22.50670       -5.16370
H          6.01870      -20.33470       -7.08870
H          4.47640      -21.19100       -7.21490
H          5.99850      -22.06790       -7.43160
H          6.95650      -14.76740       -5.39990
H          8.92570      -10.48710       -6.22270
H          7.72920       -6.18600       -7.94800
H         10.01500       -5.12010       -7.55280
H         11.95080       -7.77040       -3.96150
H         13.31130       -6.64090       -3.75150
H         11.70630       -4.82820       -3.11400
H         10.35500       -5.95040       -3.30820
H         11.54210       -6.21440       -2.02620
H          1.93120       -9.38960       -7.74470
H         -0.09180      -10.90200       -7.35330
H         -0.00280      -15.02570       -4.02840
H          1.38680      -13.92550       -3.86030
H          2.07520      -16.09570       -4.93060
H          2.28270      -14.75110       -6.05750
H          0.89160      -15.83170       -6.21850
H          2.32520       -7.75690       -6.20880
H          0.94890       -5.79090       -6.24580
H         -2.28970       -3.80440       -3.94720
H         -4.13790       -5.37290       -4.32980
H         -6.14270       -7.82270       -8.14290
H         -4.48210       -7.57440       -8.71100
H         -6.03490       -5.82830       -9.63880
H         -4.82700       -5.08770       -8.58740
H         -6.46960       -5.34740       -7.99270
H         -0.69410       -4.81510       -7.79250
H          2.51890       -0.12640       -3.01900
H          4.29590        1.53920       -2.62330
H          6.71540        4.67040       -5.39070
H          5.99640        3.48300       -6.49530
H          4.50910        4.99340       -4.27150
H          3.77280        3.80690       -5.35600
H          4.37850        5.33800       -6.00110
H          3.86500       -0.56040       -7.06110
H          0.82250        1.08300       -4.44440
H         -0.30110        2.84560       -3.63650
H         -0.37720        4.97160       -4.46560
H          1.89270        6.15030       -4.42550
H          2.48520        7.39150        0.23050
H          3.90500        8.41560       -0.09430
H          2.44520       10.07850       -1.25810
H          1.89610        9.82670        0.40580
H          1.02700        9.07170       -0.93350
H         -6.02000        2.86270        0.62210
H         -8.28240        1.68880        0.41570
H        -10.15790       -0.18310       -4.16440
H         -8.45830        0.34410       -4.22460
H        -10.90000        2.20120       -4.05460
H         -9.93930        1.91650       -5.51330
H         -9.21560        2.73600       -4.12520
H         -5.88720        5.03100        0.19170
H         -6.60200        6.45430        2.00900
H         -8.51840        7.72210        2.08580
H        -10.69800        6.39620        2.29390
H        -12.15010        3.89460        6.66970
H        -10.75090        4.96800        6.92720
H        -10.00830        2.58730        6.60200
H         -9.42390        3.61910        5.29160
H        -10.81350        2.55760        5.02640
H         -2.79220       10.89180        2.63250
H         -0.53430       11.91940        3.22910
H          1.29590       12.23410        8.16710
H         -0.09940       11.13770        8.02580
H         -1.56100       13.08940        7.44480
H         -0.77190       13.36970        9.00010
H         -0.16670       14.17180        7.54790
H         -4.45550       10.92960        7.14770
H         -8.61690        9.97330        9.28100
H         -9.91310        9.01500       13.34520
H        -11.98730        7.88000       12.65990
H        -13.70810        8.97170        8.20740
H        -14.40570        7.35410        8.40090
H        -12.11550        6.41090        8.77400
H        -11.41000        8.01090        8.52150
H        -12.24000        7.20010        7.19170
H        -10.30660       11.66170       10.00200
H         -4.33140       11.28740       14.46480
H         -2.00470       11.89560       14.79940
H          0.00670       12.45280       15.24140
H          1.55410       12.83900       14.47790
H         -0.35160       10.65590       13.47390
H          1.12230       10.36500       14.40590
H          1.22040       11.06270       12.78490
H         -4.48900       13.77230       10.97800
H         -5.96180       12.98320       15.19550
H         -8.16800       12.63260       16.53430
