296

C         -1.64700       -6.22660        7.96580
C         -1.02970       -5.15020        7.43910
C         -1.02280       -5.15780        6.01230
C         -0.49310       -4.19400        5.14300
C          0.24200       -3.02460        5.64620
C          1.32580       -3.20410        6.50380
C          2.03690       -2.11990        6.97770
C          1.68170       -0.82600        6.61810
S          2.55510        0.56010        7.31210
C          3.25450        1.32080        5.79930
C          4.49190        0.57940        5.33410
C          0.59170       -0.65950        5.77180
F          0.19380        0.58580        5.43820
C         -0.11530       -1.73370        5.26930
C         -0.64640       -4.43270        3.78710
C         -1.22250       -5.61720        3.26370
C         -1.79150       -6.56120        4.13270
C         -2.50480       -7.74180        3.63050
C         -3.79190       -8.01800        4.08210
C         -4.49910       -9.10920        3.61770
C         -3.94260       -9.96550        2.67650
S         -4.71100      -11.40710        2.01210
C         -6.38350      -11.41740        2.74210
C         -7.32380      -10.43710        2.06600
C         -2.65260       -9.67540        2.22840
C         -1.93380       -8.59510        2.68810
F         -2.08450      -10.48430        1.30770
C         -1.68770       -6.29360        5.49150
S         -2.27130       -7.31940        6.77800
C         -1.14790       -5.65350        1.84820
C         -0.56590       -4.55050        1.30180
S         -0.11110       -3.37490        2.51540
C         -0.40390       -4.24790       -0.08110
C         -0.12080       -3.03450       -0.63580
C         -0.28530       -3.00580       -2.04360
C         -0.22960       -1.88770       -2.89500
C          0.21850       -0.57640       -2.40280
C         -0.37660        0.05070       -1.30900
C          0.11370        1.24760       -0.83720
C          1.21930        1.86990       -1.42020
S          1.74270        3.37050       -0.64930
C          3.50590        3.61260       -1.09620
C          3.69430        4.57370       -2.25290
C          1.76410        1.26140       -2.54650
F          2.80040        1.81490       -3.21470
C          1.27990        0.06160       -3.03170
C         -0.69490       -2.07180       -4.18620
C         -1.12300       -3.32910       -4.68260
C         -1.05610       -4.47440       -3.87090
C         -1.50230       -5.78460       -4.35990
C         -2.44770       -6.53130       -3.65990
C         -2.81760       -7.79150       -4.08650
C         -2.24880       -8.35280       -5.22420
S         -2.59300       -9.98140       -5.81060
C         -3.01620      -10.90380       -4.28390
C         -4.50880      -11.10040       -4.09720
C         -1.35320       -7.56860       -5.95200
C         -0.97910       -6.30820       -5.54030
F         -0.81760       -8.05990       -7.08690
C         -0.67460       -4.27140       -2.55320
S         -0.73460       -5.47020       -1.28790
C         -1.89660       -3.20050       -5.86120
C         -2.15490       -1.90120       -6.20880
S         -1.16520       -0.78010       -5.27060
C         -3.41790       -1.44160       -6.70990
C         -4.53100       -2.24180       -6.65220
C         -5.69460       -1.56130       -6.22920
C         -6.75320       -2.14070       -5.49510
C         -6.93740       -3.57000       -5.32210
C         -8.14540       -4.19460       -5.17660
C         -8.10480       -5.58360       -4.93240
C         -6.85560       -6.11260       -4.84410
S         -6.45410       -7.80680       -4.63950
C         -5.62790       -8.07590       -6.25470
C         -6.58340       -7.90230       -7.41500
Se        -5.52440       -4.79430       -5.03730
C         -7.47600       -1.26010       -4.69600
C         -7.31270        0.14710       -4.71310
C         -6.33690        0.73000       -5.54860
C         -6.03550        2.15000       -5.56590
C         -5.81540        3.00800       -4.52890
C         -5.46550        4.32660       -4.88660
C         -5.39620        4.56590       -6.22830
S         -5.07460        6.13850       -6.92080
C         -4.47480        5.68060       -8.58550
C         -3.10440        5.03640       -8.54280
Se        -5.82090        3.02160       -7.22330
C         -5.49860       -0.16030       -6.20850
S         -3.86410        0.25700       -6.68770
C         -7.88430        0.76070       -3.56840
C         -8.29860       -0.13860       -2.62470
S         -8.36260       -1.77180       -3.27590
C         -8.08900        0.05500       -1.22070
C         -7.50160       -0.89190       -0.42760
C         -6.64940       -0.34470        0.56540
C         -5.59800       -1.02730        1.20320
C         -5.55840       -2.49530        1.16930
C         -6.63160       -3.23070        1.67260
C         -6.62810       -4.60740        1.62340
C         -5.56750       -5.30830        1.04900
S         -5.66090       -7.07000        1.06010
C         -4.74410       -7.59890       -0.44280
C         -5.23060       -8.97150       -0.85790
C         -4.50670       -4.55920        0.55240
F         -3.45050       -5.16590       -0.03150
C         -4.48700       -3.18050        0.61080
C         -4.58780       -0.24120        1.73380
C         -4.66940        1.17340        1.80490
C         -5.77170        1.85040        1.25380
C         -5.87690        3.31430        1.24120
C         -4.83960        4.12120        0.78400
C         -4.95690        5.49800        0.76930
C         -6.11900        6.11800        1.21550
S         -6.39310        7.85270        1.27030
C         -4.76790        8.55650        0.80040
C         -4.83800       10.06620        0.93270
C         -7.16200        5.29370        1.64650
C         -7.05980        3.92210        1.65940
F         -8.30800        5.86120        2.07100
C         -6.70290        1.06820        0.59020
S         -7.86020        1.67660       -0.57490
C         -3.47920        1.74340        2.32050
C         -2.48410        0.83660        2.53610
S         -3.02400       -0.81210        2.26860
C         -1.10430        1.14680        2.73480
C         -0.02080        0.36930        2.45030
C          1.20610        1.07920        2.49240
C          2.47070        0.63110        2.08840
C          2.69080       -0.75980        1.65290
C          2.83110       -1.06310        0.30510
C          2.96760       -2.37060       -0.12170
C          2.99640       -3.41560        0.79420
S          3.03980       -5.13080        0.40060
C          3.04860       -5.18420       -1.42370
C          4.43020       -4.95120       -2.00500
C          2.92680       -3.08500        2.14940
F          2.99390       -4.06930        3.06870
C          2.75550       -1.78960        2.58440
C          3.48640        1.56720        2.06270
C          3.31920        2.90880        2.48820
C          2.05710        3.35750        2.90760
C          1.81900        4.74970        3.30360
C          2.22020        5.81120        2.49410
C          1.99260        7.11320        2.88220
C          1.34270        7.41330        4.07920
S          1.07400        9.12660        4.42450
C          1.13710        9.27380        6.24750
C          2.44640        8.77400        6.82270
C          0.91010        6.34260        4.85550
C          1.15380        5.03350        4.49120
F          0.23000        6.54750        6.00430
C          1.02560        2.43160        2.87540
S         -0.65480        2.78970        3.15190
C          4.52420        3.64580        2.37730
C          5.55750        2.93030        1.84190
S          5.10950        1.26990        1.49780
C          6.84970        3.42330        1.48370
C          7.31050        4.70020        1.62050
C          8.60500        4.89910        1.07790
C          9.35810        6.08450        1.05600
C          8.79990        7.34930        1.54660
C          7.54310        7.77760        1.12470
C          7.00240        8.96570        1.57450
C          7.69660        9.76910        2.47230
S          7.12420       11.30770        3.11060
C          5.31700       11.25080        2.84380
C          4.64190       10.21080        3.71600
C          8.96350        9.33810        2.87080
F          9.67080       10.09570        3.73150
C          9.51640        8.15850        2.42540
C         10.63230        5.99910        0.51260
C         11.16620        4.80330       -0.02650
C         10.40860        3.62270       -0.01610
C         10.93410        2.36370       -0.55850
C         12.17510        1.87540       -0.16040
C         12.67180        0.68810       -0.66280
C         11.94830       -0.04970       -1.59300
S         12.45480       -1.57830       -2.30720
C         14.24240       -1.66970       -1.94670
C         15.04250       -0.65410       -2.74000
C         10.69930        0.44570       -1.97260
C         10.18930        1.62230       -1.47330
F          9.96610       -0.24640       -2.86690
C          9.13760        3.70450        0.53390
S          8.01120        2.38190        0.68840
C         12.46020        5.01540       -0.58970
C         12.88230        6.29030       -0.47220
S         11.74940        7.32670        0.32450
H         -1.79160       -6.46220        9.00200
H         -0.59800       -4.36020        8.02670
H          1.62370       -4.20400        6.77960
H          2.87750       -2.26090        7.63920
H          2.47970        1.34040        5.03610
H          3.49460        2.34370        6.08790
H          4.24990       -0.44390        5.05370
H          5.23550        0.55170        6.12730
H          4.92450        1.08090        4.47110
H         -0.95960       -1.55510        4.62140
H         -4.26140       -7.35580        4.79300
H         -5.49350       -9.27800        3.99480
H         -6.28830      -11.23830        3.81210
H         -6.72100      -12.44320        2.59170
H         -7.44630      -10.69760        1.01740
H         -8.29900      -10.47180        2.54790
H         -6.94280       -9.41980        2.12180
H         -0.92750       -8.44190        2.33060
H         -1.52590       -6.45890        1.24630
H          0.13970       -2.17410       -0.04640
H         -1.23710       -0.39600       -0.83470
H         -0.35030        1.73070        0.00820
H          3.95040        4.01620       -0.18530
H          3.94340        2.63700       -1.29240
H          3.25870        4.17680       -3.16520
H          4.75750        4.73430       -2.42030
H          3.22540        5.52990       -2.03040
H          1.75250       -0.37090       -3.90040
H         -2.90710       -6.11890       -2.77510
H         -3.56040       -8.33720       -3.52830
H         -2.52150      -11.86710       -4.40890
H         -2.55800      -10.37990       -3.44700
H         -4.68790      -11.68320       -3.19560
H         -4.92690      -11.63950       -4.94430
H         -5.03300      -10.15160       -4.00350
H         -0.25800       -5.75530       -6.12230
H         -2.38180       -4.04380       -6.32010
H         -4.46630       -3.31140       -6.74080
H         -9.07680       -3.66840       -5.30330
H         -8.99170       -6.18770       -4.84780
H         -5.23670       -9.09030       -6.21350
H         -4.79520       -7.36880       -6.30550
H         -7.42600       -8.58380       -7.31990
H         -6.06500       -8.11410       -8.34780
H         -6.96430       -6.88200       -7.45350
H         -5.83330        2.69090       -3.49940
H         -5.25140        5.08850       -4.15730
H         -4.45820        6.61770       -9.14070
H         -5.22390        5.01480       -9.02590
H         -2.38470        5.70590       -8.07760
H         -3.13270        4.10730       -7.97330
H         -2.77210        4.81010       -9.55360
H         -7.82880        1.81550       -3.37350
H         -7.52300       -1.94170       -0.66210
H         -7.47130       -2.71110        2.10880
H         -7.45790       -5.17130        2.01990
H         -4.94790       -6.86220       -1.21860
H         -3.68050       -7.61300       -0.20760
H         -4.66660       -9.30980       -1.72260
H         -5.08500       -9.69140       -0.05710
H         -6.28530       -8.94140       -1.12120
H         -3.63850       -2.65740        0.19730
H         -3.93620        3.66850        0.40430
H         -4.13170        6.08530        0.40140
H         -4.55690        8.26640       -0.22920
H         -4.01650        8.14120        1.47200
H         -5.60660       10.47080        0.27840
H         -3.88030       10.50520        0.66120
H         -5.07380       10.34760        1.95620
H         -7.89310        3.33500        2.01250
H         -3.33960        2.79850        2.47070
H         -0.09330       -0.66540        2.16660
H          2.80130       -0.26920       -0.42510
H          3.03560       -2.56290       -1.17950
H          2.69710       -6.19060       -1.65290
H          2.31260       -4.46960       -1.79040
H          5.12190       -5.70700       -1.64080
H          4.38920       -5.01250       -3.09100
H          4.81730       -3.97380       -1.72560
H          2.65640       -1.59820        3.64150
H          2.68920        5.60870        1.54380
H          2.30710        7.93330        2.25520
H          1.02050       10.34560        6.40970
H          0.28020        8.75590        6.67240
H          2.46190        8.95160        7.89590
H          3.28790        9.29260        6.36890
H          2.56560        7.70620        6.65220
H          0.81590        4.24390        5.14450
H          4.61400        4.67340        2.67760
H          6.75320        5.47860        2.10790
H          6.99240        7.18490        0.40950
H          6.03460        9.26920        1.20900
H          5.11960       11.10040        1.78330
H          4.99140       12.25440        3.11640
H          4.87450       10.40100        4.76140
H          3.56250       10.25570        3.58320
H          4.98220        9.20740        3.46700
H         10.49080        7.86860        2.78520
H         12.75020        2.41930        0.57390
H         13.62890        0.33660       -0.31290
H         14.50760       -2.68550       -2.23950
H         14.38950       -1.57080       -0.87190
H         16.10340       -0.76920       -2.52610
H         14.88410       -0.80270       -3.80550
H         14.74490        0.36170       -2.48810
H          9.22620        1.96330       -1.81830
H         13.02640        4.24160       -1.07530
H         13.80980        6.71090       -0.80870
