200

C          7.69620       -0.86860        5.15100
C          6.92910       -1.29620        6.17390
C          5.76230       -1.99550        5.74420
C          4.75840       -2.59400        6.52990
C          4.72940       -2.51620        7.97550
C          4.33790       -3.49680        8.84360
C          4.30890       -3.14410       10.20680
C          4.65110       -1.85100       10.47880
S          4.58110       -1.14780       12.07810
C          5.64410        0.32480       11.88160
C          7.11110       -0.03830       11.77680
Se         5.07590       -0.91030        8.90300
C          3.74520       -3.24970        5.83400
C          3.67920       -3.31870        4.42640
C          4.69730       -2.74690        3.64530
C          4.68600       -2.86360        2.20230
C          4.41490       -3.98960        1.47800
C          4.41100       -3.83570        0.07740
C          4.66410       -2.56940       -0.36160
S          4.77780       -2.11980       -2.04840
C          4.18430       -0.39390       -1.97800
C          2.72710       -0.30400       -1.57560
Se         5.01900       -1.39470        1.07320
C          5.70650       -2.08250        4.33580
S          7.07210       -1.29390        3.59600
C          2.46910       -3.91550        3.97150
C          1.64500       -4.31410        4.96890
S          2.35080       -3.99940        6.56330
N          0.41420       -4.93140        4.82500
C          0.44770       -6.30270        4.34340
C          0.98360       -6.47610        2.92720
S          0.50330       -8.18710        2.49060
C         -0.76030       -8.26160        3.68940
S         -1.57930       -9.59790        4.09290
C         -0.96860       -6.87930        4.24980
N         -1.71080       -6.82500        5.48060
C         -1.03620       -6.05000        6.50240
C         -0.56190       -4.72630        5.89500
C         -3.09000       -6.76310        5.44450
C         -3.93460       -6.70880        4.41140
N         -3.55350       -6.62980        3.04850
C         -4.24250       -7.50340        2.12360
C         -4.64590       -8.89440        2.56560
S         -4.96110       -9.74220        0.96580
C         -3.97520       -8.65510        0.03240
S         -3.86310       -8.64350       -1.58410
C         -3.23410       -7.75600        0.99600
N         -2.68400       -6.52380        0.52840
C         -3.38020       -5.32960        0.94030
C         -3.57050       -5.28130        2.47630
C         -1.55720       -6.54170       -0.25490
C         -0.97090       -5.50600       -0.85540
N          0.15560       -5.66110       -1.71700
C         -0.29200       -5.91390       -3.08040
C         -0.96220       -7.26460       -3.26940
S         -1.08550       -7.42550       -5.08070
C          0.20400       -6.29840       -5.39030
S          0.58800       -5.76010       -6.87090
C          0.86260       -5.92660       -4.09030
N          1.52080       -4.64980       -4.05730
C          2.07010       -4.45780       -2.72230
C          0.96030       -4.44580       -1.68560
C          2.44320       -4.37310       -5.07770
C          2.70840       -3.12460       -5.48320
C          2.00020       -1.94140       -5.08340
C          0.74210       -1.79700       -4.57610
C          0.34910       -0.45050       -4.36150
C         -0.90260        0.04330       -3.93050
C         -2.06520       -0.78110       -3.66790
C         -3.35970       -0.44120       -3.94340
C         -4.35260       -1.34510       -3.51720
C         -3.89410       -2.45120       -2.87330
S         -4.91280       -3.68010       -2.15220
C         -4.11130       -5.19230       -2.79940
C         -4.14410       -5.25570       -4.31130
Se        -2.01280       -2.42250       -2.74810
C         -0.99470        1.42550       -3.76890
C          0.06810        2.31420       -4.04750
C          1.27910        1.83560       -4.58600
C          2.31650        2.73890       -5.03610
C          3.67160        2.58920       -4.94920
C          4.44910        3.58220       -5.57760
C          3.73850        4.55320       -6.22110
S          4.46790        5.91440       -7.04720
C          3.25200        6.24170       -8.37970
C          2.17690        7.22370       -7.96030
Se         1.88640        4.29960       -6.00680
C          1.38770        0.45460       -4.70410
S          2.77610       -0.39010       -5.33040
C         -0.24720        3.64710       -3.69340
C         -1.50790        3.80430       -3.20060
S         -2.38050        2.28970       -3.14070
C         -2.10110        5.03300       -2.79350
C         -3.39470        5.31170       -2.47570
C         -3.62470        6.68080       -2.17660
C         -4.84280        7.30750       -1.84220
C         -6.04400        6.53930       -1.61460
C         -6.14240        5.31940       -1.00140
C         -7.43260        4.76200       -0.93070
C         -8.41950        5.51410       -1.50270
S        -10.08210        4.98730       -1.62740
C        -10.93520        6.54730       -2.04570
C        -11.03630        7.48240       -0.85800
Se        -7.73450        7.12010       -2.21500
C         -4.80990        8.69920       -1.76310
C         -3.63600        9.47040       -1.91320
C         -2.39540        8.83460       -2.12750
C         -1.15100        9.56730       -2.15610
C         -0.82090       10.67300       -1.41840
C          0.47780       11.18260       -1.60360
C          1.24560       10.49880       -2.50310
S          2.89140       10.93610       -2.90330
C          3.58860        9.33610       -3.46070
C          3.35100        9.07630       -4.93360
Se         0.29070        9.06180       -3.26050
C         -2.44670        7.45310       -2.29990
S         -1.08030        6.45680       -2.70980
C         -3.91860       10.86770       -1.85710
C         -5.22070       11.13560       -1.63600
S         -6.19610        9.71620       -1.47250
H          8.61870       -0.32420        5.20090
H          7.18970       -1.13970        7.20690
H          4.11760       -4.49860        8.51530
H          4.04120       -3.83910       10.98350
H          5.29370        0.86290       10.99510
H          5.44620        0.92810       12.76690
H          7.71050        0.86550       11.69030
H          7.42950       -0.58870       12.65890
H          7.29110       -0.65770       10.89780
H          4.24130       -4.94290        1.94930
H          4.21810       -4.64980       -0.59870
H          4.83270        0.14580       -1.28110
H          4.34290       -0.01730       -2.98710
H          2.10890       -0.91290       -2.23160
H          2.39040        0.72890       -1.63970
H          2.58880       -0.65120       -0.55170
H          2.20470       -3.97050        2.93230
H          1.05430       -6.94070        5.01250
H          2.06560       -6.40690        2.85420
H          0.51180       -5.78830        2.22440
H         -1.51110       -6.33230        3.46340
H         -0.18620       -6.61270        6.90120
H         -1.72690       -5.85310        7.32170
H         -0.12740       -4.09050        6.66820
H         -1.42960       -4.20490        5.46960
H         -3.52430       -6.79500        6.43450
H         -4.99960       -6.75500        4.62320
H         -5.14610       -7.01620        1.71170
H         -5.56290       -8.93170        3.14760
H         -3.84570       -9.41050        3.09720
H         -2.41900       -8.37830        1.40880
H         -4.35770       -5.27620        0.44340
H         -2.81150       -4.45780        0.62550
H         -4.52040       -4.76700        2.69560
H         -2.76700       -4.70400        2.94300
H         -1.13660       -7.52860       -0.38310
H         -1.35100       -4.48800       -0.77270
H         -0.98800       -5.11310       -3.40690
H         -1.96140       -7.33730       -2.84840
H         -0.33960       -8.07100       -2.88120
H          1.55890       -6.75420       -3.82720
H          2.60220       -3.50750       -2.69890
H          2.78380       -5.26540       -2.48590
H          0.32820       -3.55590       -1.86740
H          1.39690       -4.35930       -0.68720
H          2.98440       -5.20890       -5.50990
H          3.51190       -2.97250       -6.18880
H          0.10790       -2.64970       -4.40150
H         -3.61270        0.44010       -4.50760
H         -5.40170       -1.18270       -3.69430
H         -4.66850       -6.01640       -2.35600
H         -3.09080       -5.19910       -2.40880
H         -5.16640       -5.17510       -4.67400
H         -3.55790       -4.44510       -4.74550
H         -3.72910       -6.20270       -4.65000
H          4.12690        1.77140       -4.41780
H          5.52530        3.57010       -5.57210
H          2.83050        5.27670       -8.66490
H          3.84260        6.63560       -9.20630
H          1.47300        7.36740       -8.77750
H          1.62750        6.84950       -7.09430
H          2.61700        8.18350       -7.70240
H          0.44100        4.47330       -3.75890
H         -4.16840        4.56590       -2.50780
H         -5.29320        4.84000       -0.54370
H         -7.63450        3.81670       -0.45730
H        -11.92030        6.23910       -2.39430
H        -10.38590        7.00270       -2.87580
H        -11.57620        8.38290       -1.14260
H        -11.56380        6.99940       -0.03870
H        -10.04390        7.77120       -0.51120
H         -1.48530       11.08550       -0.67790
H          0.85480       12.02970       -1.05690
H          4.65360        9.40660       -3.24140
H          3.14000        8.56010       -2.83710
H          3.78730        9.87060       -5.53480
H          3.80610        8.12900       -5.21650
H          2.28080        9.02620       -5.14470
H         -3.17930       11.63000       -2.01930
H         -5.69520       12.09400       -1.55830
