158

C         -6.52980        2.62050        8.07650
C         -5.28010        2.94040        7.68580
C         -4.75280        2.04200        6.71200
C         -3.50200        2.09590        6.06530
C         -2.58920        3.20300        6.24720
C         -2.89780        4.53030        6.36380
C         -1.80870        5.41020        6.51870
C         -0.58120        4.81220        6.54480
S          0.91740        5.67580        6.80160
C          2.14770        4.45760        6.21560
C          2.14110        4.30740        4.70810
Se        -0.72520        2.94110        6.36120
C         -3.20380        1.02590        5.22770
C         -4.09770       -0.03520        4.95740
C         -5.38620       -0.03740        5.52680
C         -6.38780       -1.01800        5.17420
C         -7.33800       -1.58160        5.97790
C         -8.28290       -2.40770        5.34130
C         -8.14640       -2.51500        3.98660
S         -9.23460       -3.45100        2.98620
C         -8.70810       -3.00610        1.29300
C         -7.52020       -3.82010        0.82270
Se        -6.65430       -1.54620        3.38090
C         -5.66070        0.99810        6.42110
S         -7.15210        1.20610        7.30210
C         -3.51210       -1.01610        4.11520
C         -2.24450       -0.71180        3.71770
S         -1.70480        0.82620        4.36370
C         -1.35650       -1.46420        2.89780
C         -0.07170       -1.14420        2.57200
C          0.56970       -2.10670        1.75690
C          1.88560       -2.07640        1.24430
C          2.69500       -0.88430        1.26420
C          2.24960        0.41200        1.18850
C          3.23930        1.40730        1.12890
C          4.52550        0.94230        1.15220
S          5.93760        1.96120        0.98480
C          7.24620        0.85880        1.62910
C          7.15920        0.69410        3.13210
Se         4.57630       -0.93740        1.21350
C          2.30930       -3.24720        0.61810
C          1.45610       -4.32840        0.30180
C          0.10760       -4.30430        0.71260
C         -0.84560       -5.32730        0.34120
C         -1.82790       -5.87420        1.11730
C         -2.68070       -6.79770        0.48160
C         -2.42700       -7.00380       -0.84320
S         -3.40470       -8.03050       -1.86700
C         -2.34120       -8.21120       -3.34110
C         -1.16110       -9.12850       -3.09320
Se        -0.97130       -5.96340       -1.43090
C         -0.27290       -3.21230        1.48890
S         -1.84840       -2.99470        2.20450
C          2.12940       -5.33070       -0.44320
C          3.44030       -5.03910       -0.67900
S          3.92160       -3.52680        0.04390
C          4.38530       -5.75880       -1.46950
O          3.99340       -6.84130       -2.17070
C          5.05670       -7.28500       -2.86430
C          6.14840       -6.50940       -2.63420
C          5.71870       -5.50060       -1.73720
S          6.75010       -4.28700       -0.97780
C          6.28580       -2.79070       -1.75790
O          6.69180       -1.68070       -1.12110
C          6.35390       -0.62130       -1.89250
C          5.72400       -1.03550       -3.01620
C          5.65800       -2.45440       -2.93290
S          4.95090       -3.52640       -4.13930
C          3.27470       -3.60750       -3.62990
O          2.61770       -4.68810       -4.08900
C          1.34610       -4.60520       -3.65230
C          1.16900       -3.49010       -2.90050
C          2.42270       -2.81930       -2.89260
S          2.80340       -1.32920       -2.02500
C          1.74990       -0.18540       -2.83570
C          2.15910        0.95720       -3.43130
C          1.08490        1.73530       -3.94840
C          1.15210        2.94730       -4.66170
C          2.41960        3.52400       -5.04880
C          3.52780        2.86040       -5.49970
C          4.64820        3.65720       -5.80060
C          4.48010        4.99570       -5.58420
S          5.75460        6.17310       -5.79510
C          4.81480        7.73930       -5.80480
C          4.03940        7.93640       -7.09140
Se         2.74840        5.37620       -4.94270
C         -0.06970        3.54180       -4.97380
C         -1.32300        2.96880       -4.66430
C         -1.38780        1.71920       -4.02010
C         -2.64830        1.07080       -3.73120
C         -3.75480        0.99060       -4.52880
C         -4.87540        0.34410       -3.97000
C         -4.70710       -0.10260       -2.69080
S         -5.95050       -0.93710       -1.78410
C         -5.43950       -0.61470       -0.05790
C         -4.40820       -1.60020        0.44690
Se        -2.95620        0.22770       -2.07550
C         -0.16880        1.15250       -3.65960
S          0.01060       -0.36630       -2.82060
C         -2.39990        3.81830       -5.05710
C         -1.98490        4.95030       -5.65850
S         -0.26370        5.06680       -5.79500
H         -7.14630        3.12260        8.79620
H         -4.72610        3.76750        8.09000
H         -3.90840        4.89220        6.27330
H         -1.92770        6.47720        6.59590
H          1.92750        3.51070        6.71920
H          3.10360        4.83910        6.57290
H          2.33850        5.26410        4.23020
H          2.90750        3.59730        4.40420
H          1.17490        3.93840        4.36270
H         -7.34930       -1.43070        7.04390
H         -9.07220       -2.90800        5.87500
H         -8.49290       -1.93430        1.29520
H         -9.58370       -3.19230        0.67190
H         -6.66860       -3.67330        1.48890
H         -7.23770       -3.50830       -0.18090
H         -7.76720       -4.87890        0.80670
H         -3.98530       -1.94990        3.85740
H          0.41260       -0.26380        2.95440
H          1.20330        0.65680        1.12110
H          3.00820        2.45670        1.06080
H          7.14570       -0.10100        1.11170
H          8.18120        1.33370        1.33370
H          7.96720        0.05410        3.47960
H          7.23600        1.65960        3.62700
H          6.21070        0.23300        3.40980
H         -1.91390       -5.65770        2.16860
H         -3.47310       -7.31070        0.99830
H         -3.00110       -8.61320       -4.10930
H         -2.02180       -7.20540       -3.63310
H         -0.57320       -9.22880       -4.00320
H         -1.50450      -10.11350       -2.78610
H         -0.51810       -8.72550       -2.31000
H          1.67300       -6.24130       -0.79230
H          4.90870       -8.14900       -3.48060
H          7.13040       -6.61430       -3.04420
H          6.61250        0.35300       -1.52830
H          5.33610       -0.44040       -3.81560
H          0.67740       -5.38960       -3.94870
H          0.27260       -3.15760       -2.41670
H          3.19230        1.24750       -3.47660
H          3.52250        1.79820       -5.67940
H          5.56890        3.25050       -6.18200
H          5.56860        8.51470       -5.67230
H          4.15570        7.72500       -4.93080
H          4.71220        7.92430       -7.94570
H          3.29960        7.14590       -7.21940
H          3.51980        8.89180       -7.06570
H         -3.76240        1.37310       -5.53590
H         -5.80370        0.22210       -4.50110
H         -6.35970       -0.68580        0.52510
H         -5.06870        0.41170       -0.02030
H         -3.46760       -1.49940       -0.09720
H         -4.21770       -1.40640        1.50130
H         -4.75970       -2.62240        0.33460
H         -3.43260        3.59110       -4.86580
H         -2.58290        5.75320       -6.04250
