161

C          0.63210        5.56920        6.14020
C          0.31750        5.17910        7.41920
C         -0.11310        3.82110        7.49140
S         -0.49730        3.35130        9.11890
C         -0.08550        4.95040        9.70560
C         -0.19070        5.23050       11.14080
O          0.06660        6.28420       11.66290
O         -0.62470        4.13890       11.78690
C         -0.74890        4.23500       13.20490
C          0.58430        3.98640       13.89540
C          0.31770        5.78710        8.70700
F          0.68380        7.05320        8.88810
C         -0.12930        3.17310        6.27130
S          0.40620        4.28650        5.03430
C         -0.46910        1.84110        5.92520
C         -0.81980        0.89720        6.83230
C         -1.08670       -0.45850        6.52130
C         -1.44260       -1.08440        5.32580
C         -1.38360       -2.50550        5.40560
S         -1.87850       -3.26450        3.92090
C         -2.14000       -1.70380        3.18130
C         -2.54450       -1.65960        1.77480
O         -2.86300       -0.66970        1.16610
O         -2.51050       -2.89930        1.26500
C         -2.89670       -3.06200       -0.09890
C         -1.78860       -2.65890       -1.05880
C         -1.89450       -0.67320        4.04590
F         -2.11400        0.59900        3.72780
C         -1.00440       -3.00170        6.63800
S         -0.81990       -1.65900        7.74790
C         -0.70460       -4.31560        7.09590
C         -0.21440       -5.35510        6.37420
C          0.25370       -5.32550        5.03240
C          0.83920       -4.30100        4.28940
C          0.96880       -4.60910        2.90800
S          1.57020       -3.25920        1.99280
C          1.72660       -2.30720        3.44800
C          2.19380       -0.91600        3.40220
O          2.02250       -0.12060        4.29240
O          2.80400       -0.65850        2.24360
C          3.32290        0.65980        2.06500
C          4.71270        0.78790        2.67070
C          1.34170       -2.99960        4.56010
F          1.50630       -2.52050        5.79350
C          0.57240       -5.89070        2.56640
S          0.02860       -6.71720        4.00860
C          0.50750       -6.54280        1.31510
C          0.72300       -5.89910        0.13780
C          0.63400       -6.42800       -1.16600
C          0.49340       -7.71640       -1.69590
C          0.41510       -7.70430       -3.11410
S          0.25670       -9.29080       -3.79920
C          0.31260       -9.99140       -2.20240
C          0.23170      -11.45150       -2.11350
O          0.13130      -12.16320       -3.08410
O          0.27080      -11.88120       -0.85010
C          0.22460      -13.29370       -0.65180
C          1.59790      -13.92490       -0.83040
C          0.43760       -9.05030       -1.21680
F          0.51010       -9.37260        0.07640
C          0.47700       -6.45600       -3.71910
S          0.67260       -5.26460       -2.46500
C          0.39370       -6.27370       -5.12210
C          0.33180       -5.19330       -5.94170
C          0.31630       -3.78620       -5.73270
C          0.16210       -2.88480       -6.75950
C          0.15890       -1.53130       -6.36210
C         -0.04670       -0.38840       -7.17100
C         -0.16060       -0.46030       -8.61200
C         -0.95360        0.31320       -9.41490
C         -0.79020        0.14400      -10.80460
C          0.15800       -0.76810      -11.16180
S          0.68110       -1.24920      -12.76090
C         -0.84140       -1.02840      -13.75070
C         -1.95300       -1.95590      -13.30290
Se         0.96050       -1.56550       -9.66770
C         -0.10150        0.82710       -6.49790
C          0.08570        0.95470       -5.09860
C          0.28630       -0.18410       -4.28460
C          0.40760       -0.09840       -2.84940
C          1.16520       -0.89150       -2.02260
C          1.07440       -0.61910       -0.64940
C          0.21570        0.39690       -0.31400
S         -0.03340        0.99880        1.30090
C         -1.29240        2.29190        0.99260
C         -1.34250        3.29990        2.11880
Se        -0.59350        1.13890       -1.83090
C          0.31660       -1.40180       -4.96120
S          0.47670       -2.95860       -4.20130
C          0.08630        2.30450       -4.68760
C         -0.16030        3.19630       -5.69390
S         -0.33940        2.38850       -7.24210
C         -0.26790        4.60740       -5.58620
C         -0.55510        5.38580       -4.46460
C         -0.51800        6.78510       -4.74370
S         -0.87540        7.75080       -3.34050
C         -1.12920        6.30610       -2.39130
C         -1.51020        6.39910       -0.98320
O         -1.75770        5.45460       -0.27410
O         -1.55260        7.67840       -0.58750
C         -1.90960        7.91510        0.77340
C         -0.73880        7.67400        1.71620
C         -0.93450        5.16230       -3.11560
F         -1.11550        3.95050       -2.58110
C         -0.23710        7.10480       -6.05190
S         -0.00440        5.63370       -6.96050
C         -0.12710        8.37410       -6.70920
C         -0.25670        9.55600       -6.10840
H          0.97970        6.52610        5.80730
H         -1.12810        5.23030       13.45960
H         -1.48310        3.47360       13.47570
H          0.98420        3.01830       13.60310
H          1.29540        4.76160       13.61990
H          0.44500        4.00420       14.97240
H         -0.37810        1.58880        4.88080
H         -0.80720        1.14160        7.88620
H         -3.79440       -2.46250       -0.28550
H         -3.13200       -4.12450       -0.19100
H         -1.61790       -1.58740       -0.99780
H         -2.07470       -2.91000       -2.07590
H         -0.86360       -3.17550       -0.81500
H         -0.87890       -4.47780        8.15150
H         -0.19740       -6.32880        6.84600
H          3.34250        0.81150        0.98430
H          2.63380        1.37230        2.52820
H          5.38220        0.04780        2.23890
H          4.66470        0.63690        3.74660
H          5.10520        1.78090        2.47220
H          0.23330       -7.58440        1.34040
H          0.94450       -4.83990        0.16910
H         -0.48740      -13.72820       -1.36140
H         -0.13890      -13.42000        0.36980
H          2.31640      -13.45400       -0.16370
H          1.54280      -14.98560       -0.60340
H          1.93280      -13.80160       -1.85750
H          0.35280       -7.23460       -5.62570
H          0.25990       -5.43350       -6.99670
H          0.01530       -3.20630       -7.77710
H         -1.68900        0.99190       -9.01750
H         -1.36820        0.70690      -11.51710
H         -0.52360       -1.25480      -14.76800
H         -1.13280        0.01970      -13.69660
H         -1.62910       -2.99230      -13.36680
H         -2.23880       -1.74570      -12.27400
H         -2.82480       -1.82180      -13.94010
H          1.83630       -1.64370       -2.40130
H          1.64260       -1.15700        0.08940
H         -2.24420        1.77540        0.86330
H         -1.00720        2.79720        0.06400
H         -0.34750        3.69270        2.31880
H         -1.98320        4.12150        1.81090
H         -1.73960        2.85850        3.02720
H          0.33690        2.61660       -3.69220
H         -2.74690        7.26020        1.03760
H         -2.23010        8.95820        0.79930
H         -0.44300        6.62830        1.68400
H          0.10800        8.29310        1.42970
H         -1.03570        7.92360        2.73080
H          0.07680        8.31920       -7.77020
H         -0.45820        9.64090       -5.05460
H         -0.16590       10.47320       -6.66220
