278

C         -1.03800      -14.46120        3.31980
C         -0.15190      -13.58640        2.80240
C         -0.75960      -12.60820        1.96160
C         -0.14010      -11.53230        1.29860
C          1.25530      -11.18410        1.47210
C          2.10720      -10.68080        0.52850
C          3.37230      -10.26580        0.98680
C          3.57230      -10.40450        2.33040
S          5.03540       -9.91820        3.15420
C          4.67380      -10.50230        4.85160
C          5.83070      -10.18660        5.77680
Se         2.06840      -11.15700        3.17630
C         -0.97090      -10.74460        0.50630
C         -2.36800      -10.94030        0.39910
C         -2.99680      -11.98090        1.11100
C         -4.43380      -12.14470        1.13260
C         -5.14650      -13.31150        1.15450
C         -6.54480      -13.18320        1.25760
C         -7.00560      -11.90060        1.35740
S         -8.69280      -11.48970        1.56550
C         -8.67670       -9.67380        1.35590
C         -8.54600       -9.25350       -0.09360
Se        -5.59180      -10.66360        1.31080
C         -2.15440      -12.81060        1.85110
S         -2.66530      -14.16960        2.81800
C         -2.97230       -9.96960       -0.44140
C         -2.09930       -9.04540       -0.92760
S         -0.45640       -9.34770       -0.39930
C         -2.36810       -7.89040       -1.71650
C         -1.44810       -7.00570       -2.19100
C         -2.01900       -5.87460       -2.82110
C         -1.34190       -4.78120       -3.38140
C          0.11790       -4.66420       -3.28840
C          0.74690       -4.80610       -2.05400
C          2.11810       -4.70530       -1.93290
C          2.91350       -4.47290       -3.04900
S          4.66990       -4.36650       -3.03860
C          5.15140       -4.99280       -1.39570
C          4.92960       -6.48290       -1.22920
C          2.26670       -4.29500       -4.27370
F          3.00670       -4.04120       -5.37200
C          0.89860       -4.38140       -4.40630
C         -2.12990       -3.78050       -3.92270
C         -3.54690       -3.80020       -3.89540
C         -4.22330       -4.91710       -3.37090
C         -5.68690       -5.00250       -3.39110
C         -6.39880       -4.71920       -4.55740
C         -7.76930       -4.85150       -4.59520
C         -8.49090       -5.25860       -3.47300
S        -10.24450       -5.37450       -3.63330
C        -10.69160       -6.76520       -2.51660
C        -12.00050       -7.36890       -2.98560
C         -7.77150       -5.50020       -2.30700
C         -6.39730       -5.39200       -2.26030
F         -8.40420       -5.84700       -1.16090
C         -3.43450       -5.92620       -2.83420
S         -4.01050       -7.39120       -2.07270
C         -4.09520       -2.55230       -4.29880
C         -3.15390       -1.63010       -4.64450
S         -1.52160       -2.27680       -4.55110
C         -3.27280       -0.22090       -4.84060
C         -2.25670        0.61400       -5.19870
C         -2.51480        1.98020       -4.93340
C         -1.60440        3.04820       -5.00940
C         -0.20590        2.83920       -5.40420
C          0.42860        3.67730       -6.31740
C          1.75460        3.48240       -6.64430
C          2.49780        2.45600       -6.06740
S          4.21790        2.32770       -6.47120
C          4.41880        0.53060       -6.79250
C          5.83430        0.27210       -7.26560
C          1.85800        1.64280       -5.13810
F          2.53190        0.66300       -4.49560
C          0.53110        1.81840       -4.81080
C         -2.04170        4.27130       -4.52780
C         -3.33390        4.46260       -3.97810
C         -4.25980        3.40450       -3.94210
C         -5.56460        3.60700       -3.29940
C         -6.38090        4.67550       -3.66760
C         -7.57570        4.90400       -3.01850
C         -7.99220        4.09020       -1.96840
S         -9.49730        4.51430       -1.13280
C        -10.35080        2.90200       -0.96410
C        -10.56820        2.23450       -2.30670
C         -7.16170        3.03590       -1.60330
C         -5.97670        2.77900       -2.26080
F         -7.48460        2.23630       -0.56190
C         -3.81600        2.17610       -4.40450
S         -4.68630        0.66270       -4.29080
C         -3.42890        5.69060       -3.27790
C         -2.26300        6.40010       -3.25700
S         -1.01910        5.66010       -4.25280
C         -1.91200        7.39900       -2.30330
C         -0.67490        7.90540       -2.03180
C         -0.55450        8.44620       -0.72630
C          0.64290        8.82630       -0.07170
C          1.83480        9.10700       -0.82470
C          1.89090        9.63920       -2.08940
C          3.17090        9.79740       -2.64400
C          4.19980        9.39000       -1.83910
S          5.88230        9.45010       -2.29940
C          6.65300        8.80350       -0.77040
C          8.15820        8.74120       -0.92300
Se         3.56960        8.74680       -0.18150
C          0.59570        8.76940        1.31930
C         -0.58660        8.51980        2.05390
C         -1.83450        8.41940        1.39410
C         -3.05380        8.25100        2.13870
C         -3.33290        8.75810        3.38230
C         -4.57460        8.40520        3.93710
C         -5.34730        7.59140        3.15420
S         -6.93270        7.02950        3.63350
C         -7.56150        6.24390        2.10700
C         -7.06400        4.82440        1.93200
Se        -4.48630        7.18390        1.52800
C         -1.75590        8.31850        0.00750
S         -3.05150        7.74180       -1.00710
C         -0.30560        8.10230        3.37680
C          1.02710        8.01180        3.65860
S          2.00290        8.68800        2.35470
C          1.62250        7.08330        4.56240
C          2.93820        6.74820        4.70320
C          3.14530        5.39290        5.08230
C          4.37290        4.68650        5.08380
C          5.61790        5.37450        5.29160
C          6.90030        4.98870        4.99550
C          7.92480        5.84660        5.43020
C          7.51020        6.95040        6.12380
S          8.60990        8.11360        6.82450
C          7.48070        9.47450        7.28360
C          7.03280       10.27960        6.08070
Se         5.63810        6.98940        6.27910
C          4.25260        3.31650        4.81790
C          3.00890        2.64730        4.75600
C          1.81080        3.31270        5.10410
C          0.54850        2.62130        5.15190
C          0.32250        1.32580        5.53750
C         -0.99620        0.85460        5.40250
C         -1.88050        1.75620        4.87640
S         -3.55720        1.39030        4.54450
C         -4.15310        2.94550        3.78880
C         -4.48750        4.00680        4.81670
Se        -1.05280        3.41470        4.54170
C          1.92300        4.69500        5.19450
S          0.56800        5.79160        5.14120
C          3.10630        1.39700        4.08570
C          4.36130        1.09150        3.67440
S          5.53160        2.27460        4.23850
C          4.71570        0.25580        2.54540
C          4.32320        0.61360        1.29600
C          4.91470       -0.15380        0.26000
C          4.82600        0.06980       -1.12700
C          3.95080        1.09690       -1.64710
C          2.68670        1.39480       -1.21510
C          2.10890        2.55670       -1.75670
C          2.90020        3.23590       -2.64120
S          2.38650        4.71330       -3.43070
C          3.97790        5.38730       -4.02030
C          4.82040        5.92940       -2.88490
Se         4.52390        2.33630       -2.93880
C          5.67360       -0.69550       -1.92080
C          6.52840       -1.69960       -1.41070
C          6.56930       -1.95740       -0.02630
C          7.37700       -3.02490        0.52740
C          8.66030       -3.37510        0.22630
C          9.14750       -4.53950        0.85540
C          8.25540       -5.17540        1.67000
S          8.58760       -6.70440        2.45470
C          7.12330       -6.91500        3.52220
C          7.19640       -6.06510        4.77430
Se         6.61610       -4.25000        1.74570
C          5.77360       -1.14590        0.77760
S          5.80700       -1.11010        2.52850
C          7.25480       -2.33950       -2.45880
C          6.97760       -1.83530       -3.67820
S          5.80480       -0.56820       -3.64950
H         -0.84300      -15.29080        3.97090
H          0.90790      -13.64250        2.98620
H          1.84640      -10.64010       -0.51540
H          4.12760       -9.86480        0.33320
H          4.49740      -11.57960        4.78830
H          3.75650      -10.00260        5.17680
H          6.74680      -10.64410        5.40990
H          5.98250       -9.11200        5.84650
H          5.62170      -10.57420        6.77130
H         -4.67500      -14.27350        1.04610
H         -7.20870      -14.03020        1.25840
H         -9.62420       -9.34110        1.77870
H         -7.85650       -9.28410        1.96640
H         -8.56590       -8.16850       -0.16050
H         -9.36540       -9.66110       -0.68160
H         -7.60480       -9.60770       -0.51570
H         -4.01630       -9.95570       -0.70660
H         -0.38920       -7.16110       -2.08880
H          0.15110       -4.97540       -1.16960
H          2.56200       -4.80440       -0.95580
H          4.63520       -4.40450       -0.63520
H          6.21560       -4.76110       -1.34460
H          5.28280       -6.79240       -0.24600
H          5.48550       -7.03100       -1.98630
H          3.87690       -6.74250       -1.31880
H          0.45430       -4.25380       -5.38090
H         -5.86530       -4.42730       -5.44920
H         -8.31310       -4.64850       -5.50470
H        -10.77840       -6.37860       -1.50220
H         -9.88130       -7.49090       -2.56970
H        -11.90650       -7.74360       -4.00230
H        -12.27960       -8.19290       -2.33230
H        -12.79300       -6.62440       -2.96480
H         -5.89820       -5.58310       -1.32350
H         -5.14680       -2.32760       -4.27240
H         -1.32990        0.24830       -5.60230
H         -0.12570        4.47820       -6.78200
H          2.24450        4.13310       -7.35150
H          3.68690        0.26480       -7.55540
H          4.21780       -0.01340       -5.87340
H          6.54590        0.56340       -6.49600
H          5.95790       -0.78830       -7.47360
H          6.04950        0.83650       -8.17040
H          0.10240        1.18570       -4.04940
H         -6.07870        5.31990       -4.47910
H         -8.20790        5.72850       -3.30890
H         -9.78380        2.27140       -0.28260
H        -11.29860        3.16860       -0.49690
H         -9.61740        1.97910       -2.77170
H        -11.11550        2.89360       -2.97750
H        -11.14060        1.31920       -2.17130
H         -5.36510        1.95760       -1.92280
H         -4.29590        5.98370       -2.71220
H          0.16060        7.76360       -2.69460
H          1.00410        9.96000       -2.61000
H          3.33730       10.21160       -3.62340
H          6.36090        9.47390        0.04340
H          6.22820        7.81060       -0.59260
H          8.43010        8.08420       -1.74580
H          8.60520        8.35900       -0.00810
H          8.56200        9.73080       -1.12320
H         -2.66030        9.43370        3.88410
H         -4.90610        8.75780        4.89850
H         -7.26730        6.88210        1.26930
H         -8.64560        6.26740        2.21170
H         -7.30840        4.22460        2.80550
H         -7.53920        4.38280        1.06060
H         -5.98300        4.80770        1.78300
H         -1.05880        7.72270        4.04500
H          3.72810        7.39750        4.36020
H          7.12440        4.10200        4.42970
H          8.96590        5.65270        5.23770
H          8.05390       10.08650        7.97920
H          6.63310        9.02780        7.81270
H          7.89200       10.70350        5.56630
H          6.37950       11.08850        6.40100
H          6.48320        9.65070        5.37980
H          1.10480        0.71300        5.95440
H         -1.29050       -0.14240        5.68210
H         -5.03510        2.65270        3.21950
H         -3.37500        3.28370        3.09700
H         -3.60820        4.26000        5.41070
H         -5.26960        3.65820        5.48660
H         -4.83050        4.91030        4.31590
H          2.24790        0.80400        3.82480
H          3.68660        1.46120        1.11720
H          2.15870        0.76630       -0.51660
H          1.12630        2.90590       -1.48660
H          4.48640        4.58650       -4.56620
H          3.69850        6.17600       -4.71790
H          5.71700        6.39990       -3.28240
H          4.25380        6.66900       -2.31970
H          5.11570        5.12800       -2.20760
H          9.27970       -2.77490       -0.41940
H         10.14630       -4.91030        0.70270
H          7.10510       -7.97870        3.75690
H          6.24360       -6.67360        2.91690
H          6.30810       -6.22480        5.38220
H          7.24950       -5.00680        4.51820
H          8.07620       -6.32400        5.35880
H          7.94790       -3.14510       -2.29920
H          7.38170       -2.14020       -4.62310
