167

C         15.09340       -5.64900        6.79870
O         14.46600       -5.87210        7.98390
C         13.10330       -5.86460        8.00720
C         12.41470       -6.06800        9.16430
F         12.94690       -6.29240       10.36520
S         10.69610       -6.01320        8.97010
C         14.54130       -5.42740        5.61400
S         12.80990       -5.36770        5.27770
C         12.22220       -5.65490        6.90780
C         10.89460       -5.70060        7.25590
C          9.73520       -5.52960        6.44660
C          8.43890       -5.53720        6.87790
C          7.49050       -5.33340        5.84830
C          6.08650       -5.22470        5.96850
C          5.41280       -5.44690        7.22650
C          5.71500       -6.37370        8.18700
C          4.91220       -6.35530        9.34260
C          3.94020       -5.39460        9.35760
S          2.88460       -5.11460       10.72260
C          1.65670       -3.95780       10.02080
C          0.66570       -4.65600        9.11220
Se         3.95550       -4.37990        7.76930
C          5.40240       -4.87300        4.80980
C          6.02980       -4.67170        3.55800
C          7.42770       -4.80360        3.43030
C          8.12230       -4.55190        2.18620
C          9.21720       -5.20760        1.69550
C          9.72760       -4.73440        0.47050
C          9.07490       -3.65520       -0.05190
S          9.54130       -2.84480       -1.53060
C          8.01280       -1.92730       -1.93820
C          6.89940       -2.83720       -2.41600
Se         7.66620       -3.10350        1.06640
C          8.11610       -5.14180        4.59250
S          9.85070       -5.27640        4.72050
C          5.09200       -4.34590        2.54960
C          3.80740       -4.25710        2.99480
S          3.67730       -4.63380        4.70050
C          2.67040       -3.85080        2.24330
C          1.38490       -3.70180        2.66980
C          0.51230       -3.17100        1.68710
C         -0.84590       -2.81990        1.84580
C         -1.59390       -3.16900        3.03170
C         -2.57560       -2.45100        3.65710
C         -3.20910       -3.08160        4.74400
C         -2.77890       -4.35130        5.01190
S         -3.44880       -5.34570        6.28570
C         -2.54610       -6.92120        6.07530
C         -1.17200       -6.89190        6.71360
Se        -1.40670       -4.86640        3.83590
C         -1.42550       -2.13160        0.78250
C         -0.74010       -1.85900       -0.42590
C          0.60040       -2.25720       -0.60870
C          1.35190       -1.97160       -1.81550
C          2.29640       -2.77990       -2.38960
C          2.94290       -2.26950       -3.53230
C          2.55930       -1.01330       -3.89350
S          3.13970       -0.08250       -5.26590
C          4.93910       -0.07410       -4.92130
C          5.26090        0.67970       -3.64730
Se         1.24600       -0.32660       -2.74260
C          1.19120       -2.89990        0.47440
S          2.86790       -3.36830        0.57050
C         -1.55840       -1.16880       -1.34570
C         -2.79980       -0.86160       -0.86750
S         -3.05360       -1.50000        0.73750
C         -3.72990       -0.01450       -1.54250
C         -3.38500        0.82040       -2.56490
C         -4.44790        1.62070       -3.03570
C         -4.38580        2.57230       -4.07500
C         -3.17400        2.71670       -4.85090
C         -2.36660        1.70010       -5.28330
C         -1.16310        2.07920       -5.90930
C         -0.96630        3.42740       -5.98680
S          0.41710        4.27900       -6.62820
C          1.70050        2.96990       -6.55360
C          3.07450        3.59470       -6.68730
Se        -2.40440        4.39750       -5.26330
C         -5.52650        3.34110       -4.25540
C         -6.71900        3.15140       -3.51570
C         -6.80900        2.13560       -2.53610
C         -8.03370        1.85030       -1.82460
C         -8.16870        1.41140       -0.53440
C         -9.47750        1.12900       -0.10550
C        -10.45150        1.31550       -1.04690
S        -12.15480        1.09550       -0.72040
C        -12.91580        1.44030       -2.34490
C        -12.79500        0.27070       -3.30090
Se        -9.72170        1.92200       -2.66810
C         -5.63850        1.41200       -2.30180
S         -5.41230        0.15950       -1.10230
C         -7.69990        4.11120       -3.87120
C         -7.29650        4.97500       -4.84560
S         -5.67340        4.64560       -5.40110
C         -8.06600        6.06820       -5.38410
O         -9.35250        6.06770       -4.89110
C        -10.20620        7.04890       -5.27410
C        -11.48660        7.08940       -4.81100
F        -12.04720        6.21400       -3.97560
S        -12.40460        8.43140       -5.41320
C         -7.56130        6.96440       -6.24430
S         -8.38400        8.34680       -6.93190
C         -9.93910        8.13430       -6.15640
C        -11.01860        8.96570       -6.32830
C        -11.06640       10.15480       -7.14010
O         -9.86410       10.37540       -7.76480
C         -9.71220       11.48090       -8.54220
C         -8.53320       11.77100       -9.16000
F         -7.41300       11.05370       -9.09760
S         -8.58790       13.22740      -10.09540
C        -12.16240       10.92320       -7.24160
S        -12.32970       12.38800       -8.18370
C        -10.69590       12.47010       -8.83240
C        -10.23640       13.45500       -9.64420
H         16.16440       -5.67310        6.93550
H         15.13850       -5.26200        4.73680
H          8.18520       -5.64380        7.91680
H          6.48390       -7.11440        8.04500
H          5.04780       -7.04510       10.15750
H          1.16130       -3.52100       10.88720
H          2.21360       -3.17730        9.49270
H         -0.06010       -3.93890        8.73460
H          0.14030       -5.43540        9.65890
H          1.17830       -5.10910        8.26310
H          9.63040       -6.07570        2.18030
H         10.56270       -5.19460       -0.02840
H          7.72150       -1.36890       -1.04310
H          8.31400       -1.22520       -2.71510
H          6.65170       -3.57450       -1.65220
H          7.19920       -3.36270       -3.31980
H          6.00640       -2.25060       -2.62120
H          5.33690       -4.19210        1.51200
H          1.10100       -3.91240        3.68750
H         -2.82560       -1.44520        3.36570
H         -3.98470       -2.60840        5.32070
H         -3.18300       -7.66880        6.54730
H         -2.49210       -7.12220        5.00170
H         -0.68060       -7.85240        6.57480
H         -0.55100       -6.11910        6.25920
H         -1.25420       -6.68890        7.77810
H          2.49770       -3.77390       -2.02830
H          3.67200       -2.83840       -4.08460
H          5.27550       -1.10930       -4.87950
H          5.37860        0.40910       -5.79310
H          4.89500        1.70230       -3.70920
H          4.79520        0.19840       -2.78820
H          6.33730        0.70260       -3.49020
H         -1.25430       -0.92280       -2.34700
H         -2.37930        0.91330       -2.92900
H         -2.65360        0.66530       -5.19510
H         -0.46550        1.35360       -6.29020
H          1.58970        2.46510       -5.59440
H          1.51270        2.26550       -7.36360
H          3.24870        4.30840       -5.88550
H          3.16970        4.11320       -7.63830
H          3.83040        2.81420       -6.63590
H         -7.33120        1.33100        0.13690
H         -9.70450        0.79560        0.89220
H        -13.95920        1.65760       -2.11790
H        -12.44040        2.34270       -2.74140
H        -13.26330       -0.61530       -2.87810
H        -11.74820        0.04540       -3.50580
H        -13.28460        0.51290       -4.24180
H         -8.66130        4.21160       -3.39800
H         -6.54100        6.88370       -6.57490
H        -13.06000       10.66220       -6.71020
H        -10.77750       14.30530      -10.00450
