
  xtb     03072215193D
 energy: -486.885723133289 gnorm: 0.000328573798 xtb: 6.4.1 (unknown)
284313  0     0  0            999 V2000
    2.8395  -10.1442   21.4084 C   0  0  0  0  0  0  0  0  0  0  0  0
    2.2259   -9.0110   21.0143 C   0  0  0  0  0  0  0  0  0  0  0  0
    2.5475   -8.6352   19.6761 C   0  0  0  0  0  0  0  0  0  0  0  0
    2.0744   -7.5326   18.9405 C   0  0  0  0  0  0  0  0  0  0  0  0
    1.1803   -6.5347   19.4910 C   0  0  0  0  0  0  0  0  0  0  0  0
    0.1353   -5.9311   18.8498 C   0  0  0  0  0  0  0  0  0  0  0  0
   -0.5280   -4.9140   19.5640 C   0  0  0  0  0  0  0  0  0  0  0  0
   -0.0217   -4.6508   20.8029 C   0  0  0  0  0  0  0  0  0  0  0  0
   -0.7292   -3.5092   21.9221 S   0  0  0  0  0  0  0  0  0  0  0  0
    0.7069   -3.1126   22.9806 C   0  0  0  0  0  0  0  0  0  0  0  0
    1.7443   -2.2860   22.2493 C   0  0  0  0  0  0  0  0  0  0  0  0
    1.4224   -5.7929   21.2084 Se  0  0  0  0  0  2  0  0  0  0  0  0
    2.5331   -7.4266   17.6290 C   0  0  0  0  0  0  0  0  0  0  0  0
    3.4193   -8.3537   17.0312 C   0  0  0  0  0  0  0  0  0  0  0  0
    3.8689   -9.4744   17.7597 C   0  0  0  0  0  0  0  0  0  0  0  0
    4.7361  -10.4628   17.1601 C   0  0  0  0  0  0  0  0  0  0  0  0
    4.6777  -10.9559   15.8853 C   0  0  0  0  0  0  0  0  0  0  0  0
    5.6652  -11.8971   15.5381 C   0  0  0  0  0  0  0  0  0  0  0  0
    6.5642  -12.1825   16.5264 C   0  0  0  0  0  0  0  0  0  0  0  0
    7.9394  -13.2382   16.3024 S   0  0  0  0  0  0  0  0  0  0  0  0
    8.4264  -13.5807   18.0294 C   0  0  0  0  0  0  0  0  0  0  0  0
    7.4589  -14.5176   18.7232 C   0  0  0  0  0  0  0  0  0  0  0  0
    6.1890  -11.2114   18.0994 Se  0  0  0  0  0  2  0  0  0  0  0  0
    3.4282   -9.5642   19.0772 C   0  0  0  0  0  0  0  0  0  0  0  0
    3.8381  -10.8474   20.1840 S   0  0  0  0  0  0  0  0  0  0  0  0
    3.7956   -7.9569   15.7238 C   0  0  0  0  0  0  0  0  0  0  0  0
    3.2176   -6.7901   15.3182 C   0  0  0  0  0  0  0  0  0  0  0  0
    2.1687   -6.1130   16.5430 S   0  0  0  0  0  0  0  0  0  0  0  0
    3.3695   -6.1419   14.0541 C   0  0  0  0  0  0  0  0  0  0  0  0
    3.8992   -6.6707   12.9134 C   0  0  0  0  0  0  0  0  0  0  0  0
    3.8789   -5.7798   11.8113 C   0  0  0  0  0  0  0  0  0  0  0  0
    4.3189   -6.0233   10.4982 C   0  0  0  0  0  0  0  0  0  0  0  0
    4.9807   -7.2829   10.1393 C   0  0  0  0  0  0  0  0  0  0  0  0
    6.0444   -7.7701   10.8987 C   0  0  0  0  0  0  0  0  0  0  0  0
    6.6795   -8.9416   10.5480 C   0  0  0  0  0  0  0  0  0  0  0  0
    6.2756   -9.6814    9.4379 C   0  0  0  0  0  0  0  0  0  0  0  0
    7.1350  -11.1928    9.1138 S   0  0  0  0  0  0  0  0  0  0  0  0
    7.2993  -11.2257    7.2905 C   0  0  0  0  0  0  0  0  0  0  0  0
    8.0120   -9.9973    6.7621 C   0  0  0  0  0  0  0  0  0  0  0  0
    5.1969   -9.1965    8.7046 C   0  0  0  0  0  0  0  0  0  0  0  0
    4.7183   -9.8811    7.6427 F   0  0  0  0  0  0  0  0  0  0  0  0
    4.5667   -8.0127    9.0302 C   0  0  0  0  0  0  0  0  0  0  0  0
    4.1004   -5.0141    9.5723 C   0  0  0  0  0  0  0  0  0  0  0  0
    3.5320   -3.7650    9.9222 C   0  0  0  0  0  0  0  0  0  0  0  0
    3.1375   -3.5016   11.2450 C   0  0  0  0  0  0  0  0  0  0  0  0
    2.5918   -2.1849   11.5954 C   0  0  0  0  0  0  0  0  0  0  0  0
    1.3766   -2.0436   12.2610 C   0  0  0  0  0  0  0  0  0  0  0  0
    0.8374   -0.7913   12.4747 C   0  0  0  0  0  0  0  0  0  0  0  0
    1.4938    0.3606   12.0508 C   0  0  0  0  0  0  0  0  0  0  0  0
    0.7133    1.9305   12.3016 S   0  0  0  0  0  0  0  0  0  0  0  0
    0.8910    2.7099   10.6524 C   0  0  0  0  0  0  0  0  0  0  0  0
    0.2436    1.8731    9.5671 C   0  0  0  0  0  0  0  0  0  0  0  0
    2.7455    0.2085   11.4610 C   0  0  0  0  0  0  0  0  0  0  0  0
    3.2843   -1.0371   11.2173 C   0  0  0  0  0  0  0  0  0  0  0  0
    3.4699    1.2852   11.0950 F   0  0  0  0  0  0  0  0  0  0  0  0
    3.2879   -4.5362   12.1527 C   0  0  0  0  0  0  0  0  0  0  0  0
    2.8187   -4.4953   13.8302 S   0  0  0  0  0  0  0  0  0  0  0  0
    3.3881   -2.9162    8.7992 C   0  0  0  0  0  0  0  0  0  0  0  0
    3.8420   -3.4614    7.6342 C   0  0  0  0  0  0  0  0  0  0  0  0
    4.4884   -5.0713    7.8701 S   0  0  0  0  0  0  0  0  0  0  0  0
    3.7673   -2.8501    6.3455 C   0  0  0  0  0  0  0  0  0  0  0  0
    3.4003   -1.5604    6.0913 C   0  0  0  0  0  0  0  0  0  0  0  0
    3.3268   -1.2500    4.7126 C   0  0  0  0  0  0  0  0  0  0  0  0
    2.9018   -0.0451    4.1290 C   0  0  0  0  0  0  0  0  0  0  0  0
    2.5861    1.1291    4.9510 C   0  0  0  0  0  0  0  0  0  0  0  0
    1.3857    1.8154    4.7959 C   0  0  0  0  0  0  0  0  0  0  0  0
    1.0862    2.9189    5.5713 C   0  0  0  0  0  0  0  0  0  0  0  0
    1.9848    3.3857    6.5237 C   0  0  0  0  0  0  0  0  0  0  0  0
    1.7260    4.7660    7.5900 S   0  0  0  0  0  0  0  0  0  0  0  0
    0.3339    5.6656    6.8240 C   0  0  0  0  0  0  0  0  0  0  0  0
    0.7224    6.3204    5.5123 C   0  0  0  0  0  0  0  0  0  0  0  0
    3.1835    2.6847    6.6730 C   0  0  0  0  0  0  0  0  0  0  0  0
    4.0750    3.1045    7.5909 F   0  0  0  0  0  0  0  0  0  0  0  0
    3.4902    1.5793    5.9125 C   0  0  0  0  0  0  0  0  0  0  0  0
    2.7804   -0.0372    2.7489 C   0  0  0  0  0  0  0  0  0  0  0  0
    3.0904   -1.1554    1.9334 C   0  0  0  0  0  0  0  0  0  0  0  0
    3.5401   -2.3520    2.5190 C   0  0  0  0  0  0  0  0  0  0  0  0
    3.8408   -3.5413    1.7131 C   0  0  0  0  0  0  0  0  0  0  0  0
    5.0412   -4.2311    1.8732 C   0  0  0  0  0  0  0  0  0  0  0  0
    5.3090   -5.3568    1.1245 C   0  0  0  0  0  0  0  0  0  0  0  0
    4.3997   -5.8383    0.1846 C   0  0  0  0  0  0  0  0  0  0  0  0
    4.8783   -7.2599   -0.7529 S   0  0  0  0  0  0  0  0  0  0  0  0
    3.3445   -8.2535   -0.8712 C   0  0  0  0  0  0  0  0  0  0  0  0
    2.7895   -8.6047    0.4942 C   0  0  0  0  0  0  0  0  0  0  0  0
    3.2134   -5.1293    0.0226 C   0  0  0  0  0  0  0  0  0  0  0  0
    2.9237   -4.0116    0.7785 C   0  0  0  0  0  0  0  0  0  0  0  0
    2.2930   -5.5112   -0.8919 F   0  0  0  0  0  0  0  0  0  0  0  0
    3.6496   -2.3658    3.9013 C   0  0  0  0  0  0  0  0  0  0  0  0
    4.0777   -3.7497    4.8757 S   0  0  0  0  0  0  0  0  0  0  0  0
    2.8842   -0.8768    0.5586 C   0  0  0  0  0  0  0  0  0  0  0  0
    2.4137    0.3817    0.3198 C   0  0  0  0  0  0  0  0  0  0  0  0
    2.2467    1.3167    1.7911 S   0  0  0  0  0  0  0  0  0  0  0  0
    1.9732    0.9362   -0.9200 C   0  0  0  0  0  0  0  0  0  0  0  0
    1.7873    0.2879   -2.1068 C   0  0  0  0  0  0  0  0  0  0  0  0
    1.1926    1.0931   -3.1082 C   0  0  0  0  0  0  0  0  0  0  0  0
    0.8330    0.7203   -4.4219 C   0  0  0  0  0  0  0  0  0  0  0  0
    0.9452   -0.6411   -4.8957 C   0  0  0  0  0  0  0  0  0  0  0  0
    0.6936   -1.7919   -4.1993 C   0  0  0  0  0  0  0  0  0  0  0  0
    0.8738   -2.9986   -4.9022 C   0  0  0  0  0  0  0  0  0  0  0  0
    1.2809   -2.8566   -6.1981 C   0  0  0  0  0  0  0  0  0  0  0  0
    1.4671   -4.1946   -7.3083 S   0  0  0  0  0  0  0  0  0  0  0  0
    2.4930   -3.4427   -8.6205 C   0  0  0  0  0  0  0  0  0  0  0  0
    3.9218   -3.2166   -8.1711 C   0  0  0  0  0  0  0  0  0  0  0  0
    1.4500   -1.0376   -6.6694 Se  0  0  0  0  0  2  0  0  0  0  0  0
    0.3123    1.7343   -5.2189 C   0  0  0  0  0  0  0  0  0  0  0  0
    0.1070    3.0622   -4.7759 C   0  0  0  0  0  0  0  0  0  0  0  0
    0.4441    3.4311   -3.4570 C   0  0  0  0  0  0  0  0  0  0  0  0
    0.2502    4.7738   -2.9518 C   0  0  0  0  0  0  0  0  0  0  0  0
   -0.1473    5.1346   -1.6934 C   0  0  0  0  0  0  0  0  0  0  0  0
   -0.2507    6.5174   -1.4470 C   0  0  0  0  0  0  0  0  0  0  0  0
    0.0829    7.3208   -2.4980 C   0  0  0  0  0  0  0  0  0  0  0  0
    0.0940    9.0680   -2.4432 S   0  0  0  0  0  0  0  0  0  0  0  0
   -0.3031    9.4681   -4.1847 C   0  0  0  0  0  0  0  0  0  0  0  0
   -1.7195    9.0761   -4.5502 C   0  0  0  0  0  0  0  0  0  0  0  0
    0.6305    6.3063   -3.9868 Se  0  0  0  0  0  2  0  0  0  0  0  0
    0.9687    2.4178   -2.6573 C   0  0  0  0  0  0  0  0  0  0  0  0
    1.4601    2.6055   -0.9968 S   0  0  0  0  0  0  0  0  0  0  0  0
   -0.5250    3.8526   -5.7677 C   0  0  0  0  0  0  0  0  0  0  0  0
   -0.7892    3.1805   -6.9216 C   0  0  0  0  0  0  0  0  0  0  0  0
   -0.2604    1.5134   -6.8501 S   0  0  0  0  0  0  0  0  0  0  0  0
   -1.4727    3.6515   -8.0775 C   0  0  0  0  0  0  0  0  0  0  0  0
   -1.9000    2.9028   -9.1314 C   0  0  0  0  0  0  0  0  0  0  0  0
   -2.6345    3.6378  -10.0937 C   0  0  0  0  0  0  0  0  0  0  0  0
   -3.2108    3.1527  -11.2811 C   0  0  0  0  0  0  0  0  0  0  0  0
   -3.1072    1.7224  -11.5948 C   0  0  0  0  0  0  0  0  0  0  0  0
   -2.5764    1.2713  -12.8010 C   0  0  0  0  0  0  0  0  0  0  0  0
   -2.3397   -0.0729  -13.0012 C   0  0  0  0  0  0  0  0  0  0  0  0
   -2.6410   -1.0160  -12.0203 C   0  0  0  0  0  0  0  0  0  0  0  0
   -2.2169   -2.7045  -12.3144 S   0  0  0  0  0  0  0  0  0  0  0  0
   -1.6906   -3.2754  -10.6445 C   0  0  0  0  0  0  0  0  0  0  0  0
   -0.6581   -4.3746  -10.7919 C   0  0  0  0  0  0  0  0  0  0  0  0
   -3.2684   -0.5600  -10.8638 C   0  0  0  0  0  0  0  0  0  0  0  0
   -3.6796   -1.4260   -9.9117 F   0  0  0  0  0  0  0  0  0  0  0  0
   -3.4830    0.7829  -10.6385 C   0  0  0  0  0  0  0  0  0  0  0  0
   -3.8472    4.0820  -12.0861 C   0  0  0  0  0  0  0  0  0  0  0  0
   -3.9300    5.4557  -11.7450 C   0  0  0  0  0  0  0  0  0  0  0  0
   -3.3314    5.9469  -10.5718 C   0  0  0  0  0  0  0  0  0  0  0  0
   -3.3370    7.3826  -10.2726 C   0  0  0  0  0  0  0  0  0  0  0  0
   -2.9883    8.3065  -11.2589 C   0  0  0  0  0  0  0  0  0  0  0  0
   -2.9856    9.6573  -10.9901 C   0  0  0  0  0  0  0  0  0  0  0  0
   -3.3310   10.1453   -9.7317 C   0  0  0  0  0  0  0  0  0  0  0  0
   -3.3559   11.9032   -9.5171 S   0  0  0  0  0  0  0  0  0  0  0  0
   -2.5937   12.1532   -7.8723 C   0  0  0  0  0  0  0  0  0  0  0  0
   -1.1997   11.5630   -7.8001 C   0  0  0  0  0  0  0  0  0  0  0  0
   -3.6793    9.2143   -8.7586 C   0  0  0  0  0  0  0  0  0  0  0  0
   -3.6734    7.8570   -9.0094 C   0  0  0  0  0  0  0  0  0  0  0  0
   -4.0426    9.6142   -7.5190 F   0  0  0  0  0  0  0  0  0  0  0  0
   -2.7183    5.0108   -9.7544 C   0  0  0  0  0  0  0  0  0  0  0  0
   -1.9210    5.3382   -8.2357 S   0  0  0  0  0  0  0  0  0  0  0  0
   -4.7059    6.1805  -12.6785 C   0  0  0  0  0  0  0  0  0  0  0  0
   -5.1795    5.4241  -13.7090 C   0  0  0  0  0  0  0  0  0  0  0  0
   -4.6891    3.7463  -13.5804 S   0  0  0  0  0  0  0  0  0  0  0  0
   -5.9674    5.9138  -14.7896 C   0  0  0  0  0  0  0  0  0  0  0  0
   -6.4445    5.2748  -15.8922 C   0  0  0  0  0  0  0  0  0  0  0  0
   -7.1571    6.1237  -16.7807 C   0  0  0  0  0  0  0  0  0  0  0  0
   -7.7725    5.7905  -18.0035 C   0  0  0  0  0  0  0  0  0  0  0  0
   -7.7492    4.4582  -18.5658 C   0  0  0  0  0  0  0  0  0  0  0  0
   -8.7601    3.8414  -19.2504 C   0  0  0  0  0  0  0  0  0  0  0  0
   -8.4665    2.5737  -19.7868 C   0  0  0  0  0  0  0  0  0  0  0  0
   -7.1938    2.1310  -19.5676 C   0  0  0  0  0  0  0  0  0  0  0  0
   -6.6210    0.5521  -20.0508 S   0  0  0  0  0  0  0  0  0  0  0  0
   -4.8099    0.7748  -19.9616 C   0  0  0  0  0  0  0  0  0  0  0  0
   -4.2825    1.6388  -21.0887 C   0  0  0  0  0  0  0  0  0  0  0  0
   -6.2076    3.3691  -18.5479 Se  0  0  0  0  0  2  0  0  0  0  0  0
   -8.3931    6.8414  -18.6819 C   0  0  0  0  0  0  0  0  0  0  0  0
   -8.4497    8.1684  -18.1988 C   0  0  0  0  0  0  0  0  0  0  0  0
   -7.9011    8.4868  -16.9386 C   0  0  0  0  0  0  0  0  0  0  0  0
   -8.0400    9.7979  -16.3470 C   0  0  0  0  0  0  0  0  0  0  0  0
   -9.1109   10.6452  -16.4541 C   0  0  0  0  0  0  0  0  0  0  0  0
   -9.0263   11.8529  -15.7366 C   0  0  0  0  0  0  0  0  0  0  0  0
   -7.8770   12.0214  -15.0180 C   0  0  0  0  0  0  0  0  0  0  0  0
   -7.5326   13.4386  -14.0529 S   0  0  0  0  0  0  0  0  0  0  0  0
   -6.4525   12.7597  -12.7369 C   0  0  0  0  0  0  0  0  0  0  0  0
   -4.9858   12.7713  -13.1145 C   0  0  0  0  0  0  0  0  0  0  0  0
   -6.7113   10.5585  -15.2454 Se  0  0  0  0  0  2  0  0  0  0  0  0
   -7.2352    7.4494  -16.2915 C   0  0  0  0  0  0  0  0  0  0  0  0
   -6.4133    7.6100  -14.7676 S   0  0  0  0  0  0  0  0  0  0  0  0
   -9.0313    9.0501  -19.1570 C   0  0  0  0  0  0  0  0  0  0  0  0
   -9.4137    8.4234  -20.2880 C   0  0  0  0  0  0  0  0  0  0  0  0
   -9.1075    6.7235  -20.2698 S   0  0  0  0  0  0  0  0  0  0  0  0
    2.7681  -10.6386   22.3572 H   0  0  0  0  0  0  0  0  0  0  0  0
    1.5467   -8.4633   21.6453 H   0  0  0  0  0  0  0  0  0  0  0  0
   -0.1828   -6.2295   17.8653 H   0  0  0  0  0  0  0  0  0  0  0  0
   -1.3671   -4.3725   19.1632 H   0  0  0  0  0  0  0  0  0  0  0  0
    1.1197   -4.0625   23.3352 H   0  0  0  0  0  0  0  0  0  0  0  0
    0.2861   -2.5683   23.8253 H   0  0  0  0  0  0  0  0  0  0  0  0
    2.5674   -2.0478   22.9197 H   0  0  0  0  0  0  0  0  0  0  0  0
    2.1418   -2.8354   21.3964 H   0  0  0  0  0  0  0  0  0  0  0  0
    1.3050   -1.3589   21.8883 H   0  0  0  0  0  0  0  0  0  0  0  0
    3.8849  -10.6895   15.2060 H   0  0  0  0  0  0  0  0  0  0  0  0
    5.7099  -12.3664   14.5704 H   0  0  0  0  0  0  0  0  0  0  0  0
    8.4966  -12.6161   18.5423 H   0  0  0  0  0  0  0  0  0  0  0  0
    9.4207  -14.0197   17.9543 H   0  0  0  0  0  0  0  0  0  0  0  0
    7.3877  -15.4581   18.1820 H   0  0  0  0  0  0  0  0  0  0  0  0
    7.8022  -14.7188   19.7357 H   0  0  0  0  0  0  0  0  0  0  0  0
    6.4656  -14.0718   18.7788 H   0  0  0  0  0  0  0  0  0  0  0  0
    4.5064   -8.4938   15.1242 H   0  0  0  0  0  0  0  0  0  0  0  0
    4.2592   -7.6808   12.8471 H   0  0  0  0  0  0  0  0  0  0  0  0
    6.3945   -7.2054   11.7494 H   0  0  0  0  0  0  0  0  0  0  0  0
    7.5103   -9.3087   11.1305 H   0  0  0  0  0  0  0  0  0  0  0  0
    7.8844  -12.1279    7.1116 H   0  0  0  0  0  0  0  0  0  0  0  0
    6.3137  -11.3485    6.8470 H   0  0  0  0  0  0  0  0  0  0  0  0
    7.4244   -9.0988    6.9419 H   0  0  0  0  0  0  0  0  0  0  0  0
    8.9799   -9.8800    7.2453 H   0  0  0  0  0  0  0  0  0  0  0  0
    8.1658  -10.0970    5.6896 H   0  0  0  0  0  0  0  0  0  0  0  0
    3.7310   -7.6907    8.4289 H   0  0  0  0  0  0  0  0  0  0  0  0
    0.8320   -2.9206   12.5742 H   0  0  0  0  0  0  0  0  0  0  0  0
   -0.1193   -0.6849   12.9615 H   0  0  0  0  0  0  0  0  0  0  0  0
    1.9441    2.8932   10.4514 H   0  0  0  0  0  0  0  0  0  0  0  0
    0.3836    3.6673   10.7655 H   0  0  0  0  0  0  0  0  0  0  0  0
   -0.8042    1.6908    9.7969 H   0  0  0  0  0  0  0  0  0  0  0  0
    0.7457    0.9120    9.4650 H   0  0  0  0  0  0  0  0  0  0  0  0
    0.3096    2.3943    8.6148 H   0  0  0  0  0  0  0  0  0  0  0  0
    4.2564   -1.1026   10.7530 H   0  0  0  0  0  0  0  0  0  0  0  0
    2.9238   -1.9494    8.8521 H   0  0  0  0  0  0  0  0  0  0  0  0
    3.1609   -0.8527    6.8627 H   0  0  0  0  0  0  0  0  0  0  0  0
    0.6618    1.4698    4.0742 H   0  0  0  0  0  0  0  0  0  0  0  0
    0.1366    3.4089    5.4300 H   0  0  0  0  0  0  0  0  0  0  0  0
    0.0780    6.4163    7.5718 H   0  0  0  0  0  0  0  0  0  0  0  0
   -0.5090    4.9835    6.7172 H   0  0  0  0  0  0  0  0  0  0  0  0
   -0.1235    6.8758    5.1121 H   0  0  0  0  0  0  0  0  0  0  0  0
    1.5485    7.0101    5.6682 H   0  0  0  0  0  0  0  0  0  0  0  0
    1.0297    5.5782    4.7784 H   0  0  0  0  0  0  0  0  0  0  0  0
    4.4425    1.0922    6.0532 H   0  0  0  0  0  0  0  0  0  0  0  0
    5.7719   -3.8756    2.5829 H   0  0  0  0  0  0  0  0  0  0  0  0
    6.2385   -5.8890    1.2531 H   0  0  0  0  0  0  0  0  0  0  0  0
    3.6688   -9.1464   -1.4058 H   0  0  0  0  0  0  0  0  0  0  0  0
    2.6209   -7.7186   -1.4823 H   0  0  0  0  0  0  0  0  0  0  0  0
    3.5410   -9.1146    1.0934 H   0  0  0  0  0  0  0  0  0  0  0  0
    2.4724   -7.7102    1.0274 H   0  0  0  0  0  0  0  0  0  0  0  0
    1.9282   -9.2601    0.3810 H   0  0  0  0  0  0  0  0  0  0  0  0
    1.9720   -3.5223    0.6377 H   0  0  0  0  0  0  0  0  0  0  0  0
    3.0883   -1.5835   -0.2243 H   0  0  0  0  0  0  0  0  0  0  0  0
    2.0750   -0.7346   -2.2628 H   0  0  0  0  0  0  0  0  0  0  0  0
    0.3316   -1.7796   -3.1850 H   0  0  0  0  0  0  0  0  0  0  0  0
    0.7028   -3.9631   -4.4564 H   0  0  0  0  0  0  0  0  0  0  0  0
    2.0059   -2.5069   -8.9134 H   0  0  0  0  0  0  0  0  0  0  0  0
    2.4443   -4.1487   -9.4488 H   0  0  0  0  0  0  0  0  0  0  0  0
    4.5045   -2.7988   -8.9893 H   0  0  0  0  0  0  0  0  0  0  0  0
    4.3747   -4.1550   -7.8598 H   0  0  0  0  0  0  0  0  0  0  0  0
    3.9546   -2.5198   -7.3335 H   0  0  0  0  0  0  0  0  0  0  0  0
   -0.4363    4.4097   -0.9516 H   0  0  0  0  0  0  0  0  0  0  0  0
   -0.5890    6.9177   -0.5070 H   0  0  0  0  0  0  0  0  0  0  0  0
    0.4349    8.9583   -4.8116 H   0  0  0  0  0  0  0  0  0  0  0  0
   -0.1531   10.5445   -4.2585 H   0  0  0  0  0  0  0  0  0  0  0  0
   -1.9333    9.3599   -5.5777 H   0  0  0  0  0  0  0  0  0  0  0  0
   -1.8545    7.9985   -4.4569 H   0  0  0  0  0  0  0  0  0  0  0  0
   -2.4325    9.5714   -3.8955 H   0  0  0  0  0  0  0  0  0  0  0  0
   -0.8275    4.8775   -5.6332 H   0  0  0  0  0  0  0  0  0  0  0  0
   -1.6889    1.8517   -9.2112 H   0  0  0  0  0  0  0  0  0  0  0  0
   -2.3054    1.9834  -13.5650 H   0  0  0  0  0  0  0  0  0  0  0  0
   -1.8902   -0.4175  -13.9193 H   0  0  0  0  0  0  0  0  0  0  0  0
   -2.5697   -3.6317  -10.1100 H   0  0  0  0  0  0  0  0  0  0  0  0
   -1.2713   -2.4121  -10.1292 H   0  0  0  0  0  0  0  0  0  0  0  0
   -1.0781   -5.2249  -11.3241 H   0  0  0  0  0  0  0  0  0  0  0  0
   -0.3353   -4.7042   -9.8061 H   0  0  0  0  0  0  0  0  0  0  0  0
    0.2064   -4.0144  -11.3459 H   0  0  0  0  0  0  0  0  0  0  0  0
   -3.9609    1.0859   -9.7195 H   0  0  0  0  0  0  0  0  0  0  0  0
   -2.6885    7.9578  -12.2350 H   0  0  0  0  0  0  0  0  0  0  0  0
   -2.7089   10.3644  -11.7566 H   0  0  0  0  0  0  0  0  0  0  0  0
   -3.2535   11.7422   -7.1112 H   0  0  0  0  0  0  0  0  0  0  0  0
   -2.5674   13.2380   -7.7709 H   0  0  0  0  0  0  0  0  0  0  0  0
   -0.7548   11.7908   -6.8334 H   0  0  0  0  0  0  0  0  0  0  0  0
   -0.5681   11.9796   -8.5819 H   0  0  0  0  0  0  0  0  0  0  0  0
   -1.2269   10.4811   -7.9214 H   0  0  0  0  0  0  0  0  0  0  0  0
   -3.9676    7.1850   -8.2187 H   0  0  0  0  0  0  0  0  0  0  0  0
   -4.9327    7.2271  -12.5812 H   0  0  0  0  0  0  0  0  0  0  0  0
   -6.2931    4.2190  -16.0455 H   0  0  0  0  0  0  0  0  0  0  0  0
   -9.7370    4.2830  -19.3502 H   0  0  0  0  0  0  0  0  0  0  0  0
   -9.1862    1.9930  -20.3371 H   0  0  0  0  0  0  0  0  0  0  0  0
   -4.4048   -0.2353  -20.0116 H   0  0  0  0  0  0  0  0  0  0  0  0
   -4.5845    1.2034  -18.9797 H   0  0  0  0  0  0  0  0  0  0  0  0
   -3.2003    1.7228  -21.0145 H   0  0  0  0  0  0  0  0  0  0  0  0
   -4.7101    2.6400  -21.0386 H   0  0  0  0  0  0  0  0  0  0  0  0
   -4.5364    1.2022  -22.0518 H   0  0  0  0  0  0  0  0  0  0  0  0
  -10.0046   10.3723  -16.9895 H   0  0  0  0  0  0  0  0  0  0  0  0
   -9.8198   12.5801  -15.7241 H   0  0  0  0  0  0  0  0  0  0  0  0
   -6.8063   11.7493  -12.5239 H   0  0  0  0  0  0  0  0  0  0  0  0
   -6.6366   13.3971  -11.8728 H   0  0  0  0  0  0  0  0  0  0  0  0
   -4.6694   13.7770  -13.3801 H   0  0  0  0  0  0  0  0  0  0  0  0
   -4.3930   12.4287  -12.2683 H   0  0  0  0  0  0  0  0  0  0  0  0
   -4.8012   12.1116  -13.9647 H   0  0  0  0  0  0  0  0  0  0  0  0
   -9.1148   10.1114  -19.0149 H   0  0  0  0  0  0  0  0  0  0  0  0
   -9.8686    8.8535  -21.1587 H   0  0  0  0  0  0  0  0  0  0  0  0
  1  2  2  0  0  0  0
  2  3  1  0  0  0  0
  3  4  2  0  0  0  0
  4  5  1  0  0  0  0
  5  6  2  0  0  0  0
  6  7  1  0  0  0  0
  7  8  2  0  0  0  0
  8  9  1  0  0  0  0
  9 10  1  0  0  0  0
 10 11  1  0  0  0  0
  8 12  1  0  0  0  0
  4 13  1  0  0  0  0
 13 14  2  0  0  0  0
 14 15  1  0  0  0  0
 15 16  1  0  0  0  0
 16 17  2  0  0  0  0
 17 18  1  0  0  0  0
 18 19  2  0  0  0  0
 19 20  1  0  0  0  0
 20 21  1  0  0  0  0
 21 22  1  0  0  0  0
 19 23  1  0  0  0  0
 15 24  2  0  0  0  0
 24 25  1  0  0  0  0
 14 26  1  0  0  0  0
 26 27  2  0  0  0  0
 27 28  1  0  0  0  0
 27 29  1  0  0  0  0
 29 30  2  0  0  0  0
 30 31  1  0  0  0  0
 31 32  2  0  0  0  0
 32 33  1  0  0  0  0
 33 34  2  0  0  0  0
 34 35  1  0  0  0  0
 35 36  2  0  0  0  0
 36 37  1  0  0  0  0
 37 38  1  0  0  0  0
 38 39  1  0  0  0  0
 36 40  1  0  0  0  0
 40 41  1  0  0  0  0
 40 42  2  0  0  0  0
 32 43  1  0  0  0  0
 43 44  2  0  0  0  0
 44 45  1  0  0  0  0
 45 46  1  0  0  0  0
 46 47  2  0  0  0  0
 47 48  1  0  0  0  0
 48 49  2  0  0  0  0
 49 50  1  0  0  0  0
 50 51  1  0  0  0  0
 51 52  1  0  0  0  0
 49 53  1  0  0  0  0
 53 54  2  0  0  0  0
 53 55  1  0  0  0  0
 45 56  2  0  0  0  0
 56 57  1  0  0  0  0
 44 58  1  0  0  0  0
 58 59  2  0  0  0  0
 59 60  1  0  0  0  0
 59 61  1  0  0  0  0
 61 62  2  0  0  0  0
 62 63  1  0  0  0  0
 63 64  2  0  0  0  0
 64 65  1  0  0  0  0
 65 66  2  0  0  0  0
 66 67  1  0  0  0  0
 67 68  2  0  0  0  0
 68 69  1  0  0  0  0
 69 70  1  0  0  0  0
 70 71  1  0  0  0  0
 68 72  1  0  0  0  0
 72 73  1  0  0  0  0
 72 74  2  0  0  0  0
 64 75  1  0  0  0  0
 75 76  2  0  0  0  0
 76 77  1  0  0  0  0
 77 78  1  0  0  0  0
 78 79  2  0  0  0  0
 79 80  1  0  0  0  0
 80 81  2  0  0  0  0
 81 82  1  0  0  0  0
 82 83  1  0  0  0  0
 83 84  1  0  0  0  0
 81 85  1  0  0  0  0
 85 86  2  0  0  0  0
 85 87  1  0  0  0  0
 77 88  2  0  0  0  0
 88 89  1  0  0  0  0
 76 90  1  0  0  0  0
 90 91  2  0  0  0  0
 91 92  1  0  0  0  0
 91 93  1  0  0  0  0
 93 94  2  0  0  0  0
 94 95  1  0  0  0  0
 95 96  2  0  0  0  0
 96 97  1  0  0  0  0
 97 98  2  0  0  0  0
 98 99  1  0  0  0  0
 99100  2  0  0  0  0
100101  1  0  0  0  0
101102  1  0  0  0  0
102103  1  0  0  0  0
100104  1  0  0  0  0
 96105  1  0  0  0  0
105106  2  0  0  0  0
106107  1  0  0  0  0
107108  1  0  0  0  0
108109  2  0  0  0  0
109110  1  0  0  0  0
110111  2  0  0  0  0
111112  1  0  0  0  0
112113  1  0  0  0  0
113114  1  0  0  0  0
111115  1  0  0  0  0
107116  2  0  0  0  0
116117  1  0  0  0  0
106118  1  0  0  0  0
118119  2  0  0  0  0
119120  1  0  0  0  0
119121  1  0  0  0  0
121122  2  0  0  0  0
122123  1  0  0  0  0
123124  2  0  0  0  0
124125  1  0  0  0  0
125126  2  0  0  0  0
126127  1  0  0  0  0
127128  2  0  0  0  0
128129  1  0  0  0  0
129130  1  0  0  0  0
130131  1  0  0  0  0
128132  1  0  0  0  0
132133  1  0  0  0  0
132134  2  0  0  0  0
124135  1  0  0  0  0
135136  2  0  0  0  0
136137  1  0  0  0  0
137138  1  0  0  0  0
138139  2  0  0  0  0
139140  1  0  0  0  0
140141  2  0  0  0  0
141142  1  0  0  0  0
142143  1  0  0  0  0
143144  1  0  0  0  0
141145  1  0  0  0  0
145146  2  0  0  0  0
145147  1  0  0  0  0
137148  2  0  0  0  0
148149  1  0  0  0  0
136150  1  0  0  0  0
150151  2  0  0  0  0
151152  1  0  0  0  0
151153  1  0  0  0  0
153154  2  0  0  0  0
154155  1  0  0  0  0
155156  2  0  0  0  0
156157  1  0  0  0  0
157158  2  0  0  0  0
158159  1  0  0  0  0
159160  2  0  0  0  0
160161  1  0  0  0  0
161162  1  0  0  0  0
162163  1  0  0  0  0
160164  1  0  0  0  0
156165  1  0  0  0  0
165166  2  0  0  0  0
166167  1  0  0  0  0
167168  1  0  0  0  0
168169  2  0  0  0  0
169170  1  0  0  0  0
170171  2  0  0  0  0
171172  1  0  0  0  0
172173  1  0  0  0  0
173174  1  0  0  0  0
171175  1  0  0  0  0
167176  2  0  0  0  0
176177  1  0  0  0  0
166178  1  0  0  0  0
178179  2  0  0  0  0
179180  1  0  0  0  0
 25  1  1  0  0  0  0
 57 29  1  0  0  0  0
 89 61  1  0  0  0  0
117 93  1  0  0  0  0
149121  1  0  0  0  0
177153  1  0  0  0  0
 24  3  1  0  0  0  0
 56 31  1  0  0  0  0
 88 63  1  0  0  0  0
116 95  1  0  0  0  0
148123  1  0  0  0  0
176155  1  0  0  0  0
 12  5  1  0  0  0  0
 28 13  1  0  0  0  0
 42 33  1  0  0  0  0
 60 43  1  0  0  0  0
 74 65  1  0  0  0  0
 92 75  1  0  0  0  0
104 97  1  0  0  0  0
120105  1  0  0  0  0
134125  1  0  0  0  0
152135  1  0  0  0  0
164157  1  0  0  0  0
180165  1  0  0  0  0
 23 16  1  0  0  0  0
 54 46  1  0  0  0  0
 86 78  1  0  0  0  0
115108  1  0  0  0  0
146138  1  0  0  0  0
175168  1  0  0  0  0
  1181  1  0  0  0  0
  2182  1  0  0  0  0
  6183  1  0  0  0  0
  7184  1  0  0  0  0
 10185  1  0  0  0  0
 10186  1  0  0  0  0
 11187  1  0  0  0  0
 11188  1  0  0  0  0
 11189  1  0  0  0  0
 17190  1  0  0  0  0
 18191  1  0  0  0  0
 21192  1  0  0  0  0
 21193  1  0  0  0  0
 22194  1  0  0  0  0
 22195  1  0  0  0  0
 22196  1  0  0  0  0
 26197  1  0  0  0  0
 30198  1  0  0  0  0
 34199  1  0  0  0  0
 35200  1  0  0  0  0
 38201  1  0  0  0  0
 38202  1  0  0  0  0
 39203  1  0  0  0  0
 39204  1  0  0  0  0
 39205  1  0  0  0  0
 42206  1  0  0  0  0
 47207  1  0  0  0  0
 48208  1  0  0  0  0
 51209  1  0  0  0  0
 51210  1  0  0  0  0
 52211  1  0  0  0  0
 52212  1  0  0  0  0
 52213  1  0  0  0  0
 54214  1  0  0  0  0
 58215  1  0  0  0  0
 62216  1  0  0  0  0
 66217  1  0  0  0  0
 67218  1  0  0  0  0
 70219  1  0  0  0  0
 70220  1  0  0  0  0
 71221  1  0  0  0  0
 71222  1  0  0  0  0
 71223  1  0  0  0  0
 74224  1  0  0  0  0
 79225  1  0  0  0  0
 80226  1  0  0  0  0
 83227  1  0  0  0  0
 83228  1  0  0  0  0
 84229  1  0  0  0  0
 84230  1  0  0  0  0
 84231  1  0  0  0  0
 86232  1  0  0  0  0
 90233  1  0  0  0  0
 94234  1  0  0  0  0
 98235  1  0  0  0  0
 99236  1  0  0  0  0
102237  1  0  0  0  0
102238  1  0  0  0  0
103239  1  0  0  0  0
103240  1  0  0  0  0
103241  1  0  0  0  0
109242  1  0  0  0  0
110243  1  0  0  0  0
113244  1  0  0  0  0
113245  1  0  0  0  0
114246  1  0  0  0  0
114247  1  0  0  0  0
114248  1  0  0  0  0
118249  1  0  0  0  0
122250  1  0  0  0  0
126251  1  0  0  0  0
127252  1  0  0  0  0
130253  1  0  0  0  0
130254  1  0  0  0  0
131255  1  0  0  0  0
131256  1  0  0  0  0
131257  1  0  0  0  0
134258  1  0  0  0  0
139259  1  0  0  0  0
140260  1  0  0  0  0
143261  1  0  0  0  0
143262  1  0  0  0  0
144263  1  0  0  0  0
144264  1  0  0  0  0
144265  1  0  0  0  0
146266  1  0  0  0  0
150267  1  0  0  0  0
154268  1  0  0  0  0
158269  1  0  0  0  0
159270  1  0  0  0  0
162271  1  0  0  0  0
162272  1  0  0  0  0
163273  1  0  0  0  0
163274  1  0  0  0  0
163275  1  0  0  0  0
169276  1  0  0  0  0
170277  1  0  0  0  0
173278  1  0  0  0  0
173279  1  0  0  0  0
174280  1  0  0  0  0
174281  1  0  0  0  0
174282  1  0  0  0  0
178283  1  0  0  0  0
179284  1  0  0  0  0
M  END
