178

C          2.93780        8.15110       12.92980
C          1.81520        7.20980       13.21550
C          0.62690        7.17320       12.61590
O         -0.27450        6.25370       13.11170
C         -1.34880        5.77810       12.33910
C         -0.95220        4.90430       11.14300
C         -0.56150        5.67740        9.86650
O          0.74170        6.21750        9.95980
C          0.82350        7.60660       10.15530
C          0.22360        8.08560       11.48890
C         -0.59170        4.73670        8.69850
C          0.45610        4.14370        8.08870
C          0.08030        3.27330        7.02400
C          0.91570        2.51330        6.18470
C          2.36010        2.60220        6.22480
C          3.26040        1.58880        6.04650
C          4.61770        1.96260        6.01560
C          4.85400        3.30020        6.15130
S          6.45740        3.99430        6.23500
C          6.11610        5.75270        5.87550
C          5.76740        5.98350        4.41940
Se         3.24900        4.25750        6.39080
C          0.27160        1.67680        5.27380
C         -1.13490        1.60410        5.13570
C         -1.96780        2.41370        5.93550
C         -3.40620        2.41190        5.77130
C         -4.10040        2.36350        4.59370
C         -5.50500        2.30010        4.69930
C         -5.97850        2.29400        5.97820
S         -7.63200        2.18300        6.54220
C         -8.57140        2.92540        5.15830
C         -8.25250        4.39550        4.97610
Se        -4.59570        2.41170        7.24320
C         -1.32350        3.20620        6.87970
S         -2.12420        4.26740        8.00890
C         -1.52260        0.65310        4.15810
C         -0.47070        0.04560        3.53920
S          1.06740        0.61470        4.14590
C         -0.50650       -0.96020        2.52630
C         -1.57290       -1.37620        1.78620
C         -1.25760       -2.40740        0.86520
C         -2.11400       -3.05480       -0.04780
C         -3.52150       -2.73410       -0.13100
C         -4.39680       -2.50790        0.89270
C         -5.71040       -2.16130        0.51900
C         -5.92610       -2.07820       -0.82640
S         -7.44400       -1.56500       -1.52770
C         -7.23680       -2.06220       -3.27250
C         -7.34450       -3.56170       -3.46070
Se        -4.36220       -2.47920       -1.80060
C         -1.51880       -3.98550       -0.89230
C         -0.14440       -4.30860       -0.86810
C          0.70360       -3.69790        0.07460
C          2.10580       -4.03930        0.17360
C          2.67030       -5.28000        0.06450
C          4.07050       -5.33790        0.20610
C          4.67970       -4.13390        0.41880
S          6.41240       -3.93310        0.54370
C          6.53720       -2.27480        1.30090
C          6.13140       -2.27340        2.76040
Se         3.42620       -2.72560        0.46320
C          0.11440       -2.74770        0.90470
S          0.95760       -1.82700        2.11700
C          0.19610       -5.22430       -1.90580
C         -0.85910       -5.61720       -2.65410
S         -2.35700       -4.89940       -2.11740
C         -0.84790       -6.49490       -3.86310
C          0.05680       -5.92400       -4.91970
C         -0.17350       -4.81940       -5.62530
O          0.72900       -4.43410       -6.60840
C          1.93670       -3.87040       -6.13070
C          1.68910       -2.67040       -5.21140
C          0.61350       -1.74220       -5.80720
O         -0.55510       -1.60540       -5.01030
C         -1.16360       -2.76520       -4.49720
C         -1.37990       -3.92950       -5.48890
C          1.13700       -0.31210       -6.02560
C          2.22800       -0.29070       -7.04530
C          2.13580        0.07630       -8.32390
O          3.30690        0.04730       -9.04860
C          3.25040       -0.33500      -10.40600
C          2.94820       -1.82220      -10.60770
C          1.52170       -2.21690      -10.18090
O          0.58050       -1.24440      -10.60860
C         -0.01310       -0.48340       -9.59000
C          0.89370        0.60760       -8.98690
C          1.15950       -3.57820      -10.79780
C         -0.22630       -4.01470      -10.43390
C         -0.67800       -5.26640      -10.36390
O         -2.03670       -5.42110      -10.18920
C         -2.49280       -6.53680       -9.45460
C         -1.94180       -6.55100       -8.02040
C         -1.09010       -7.79250       -7.73820
O         -0.22200       -8.15580       -8.78400
C          0.66780       -7.15850       -9.24590
C          0.18320       -6.48650      -10.55090
H          3.72350        7.63930       12.37230
H          2.61700        9.01290       12.35100
H          3.37420        8.50200       13.86400
H          1.99330        6.48870       14.00010
H         -2.01270        6.58970       12.00850
H         -1.91000        5.16140       13.04790
H         -1.80070        4.26150       10.90190
H         -0.10550        4.27720       11.42690
H         -1.29970        6.47400        9.68570
H          1.89580        7.81140       10.13980
H          0.34550        8.14240        9.31960
H          0.58520        9.09580       11.68440
H         -0.86280        8.13950       11.41500
H          1.46650        4.31230        8.41780
H          2.95880        0.55860        5.96400
H          5.41510        1.25110        5.88830
H          7.03170        6.27420        6.15270
H          5.30710        6.06750        6.54230
H          6.57730        5.64520        3.77720
H          4.86170        5.44050        4.15080
H          5.59820        7.04380        4.24360
H         -3.60900        2.41090        3.63600
H         -6.13790        2.25260        3.82970
H         -8.36860        2.34440        4.25980
H         -9.61250        2.77970        5.44490
H         -8.85730        4.80720        4.17050
H         -8.46720        4.94430        5.89020
H         -7.20190        4.53440        4.72870
H         -2.54610        0.39950        3.95480
H         -2.54900       -0.93540        1.86830
H         -4.11670       -2.64530        1.92400
H         -6.49250       -1.98150        1.23630
H         -8.02940       -1.53720       -3.80480
H         -6.26600       -1.67960       -3.60380
H         -7.24400       -3.80840       -4.51540
H         -8.30740       -3.92070       -3.10510
H         -6.55630       -4.07570       -2.90980
H          2.07460       -6.16980       -0.05430
H          4.62380       -6.26020        0.16560
H          5.91280       -1.60110        0.70540
H          7.58310       -1.99500        1.17890
H          5.08790       -2.56950        2.87080
H          6.24850       -1.27360        3.17280
H          6.75070       -2.96410        3.32790
H          1.20400       -5.54150       -2.10420
H         -0.49370       -7.49170       -3.59010
H         -1.86760       -6.59100       -4.24330
H          0.98160       -6.45660       -5.09510
H          2.46770       -3.55630       -7.03300
H          2.53890       -4.62690       -5.60900
H          1.36930       -3.02370       -4.23020
H          2.62660       -2.13480       -5.07250
H          0.32060       -2.14920       -6.78860
H         -0.61060       -3.13560       -3.62170
H         -2.13990       -2.41050       -4.14560
H         -2.22480       -4.51580       -5.12780
H         -1.63500       -3.51470       -6.46550
H          0.28860        0.30130       -6.32730
H          1.50460        0.06610       -5.06950
H          3.20060       -0.62520       -6.71270
H          2.51670        0.25370      -10.96770
H          4.24760       -0.10990      -10.79350
H          3.07100       -2.03590      -11.67090
H          3.66570       -2.42100      -10.04500
H          1.47900       -2.30550       -9.08740
H         -0.36930       -1.13560       -8.78000
H         -0.87760       -0.00500      -10.06010
H          0.30350        1.15050       -8.24810
H          1.17700        1.31200       -9.77120
H          1.22120       -3.47300      -11.88620
H          1.90560       -4.30550      -10.47680
H         -0.94680       -3.21800      -10.32250
H         -3.58000       -6.43360       -9.46230
H         -2.23110       -7.47630       -9.95790
H         -1.33060       -5.65640       -7.88850
H         -2.74770       -6.51240       -7.28800
H         -0.52270       -7.62700       -6.80960
H         -1.73020       -8.66950       -7.60650
H          1.60400       -7.68620       -9.45930
H          0.85960       -6.40570       -8.47330
H          1.05650       -6.19660      -11.13270
H         -0.36140       -7.23690      -11.12770
