
  xtb     03082202033D
 energy: -172.462138350023 gnorm: 0.000442915716 xtb: 6.4.1 (unknown)
116125  0     0  0            999 V2000
    2.1252   -2.7218    3.7494 C   0  0  0  0  0  0  0  0  0  0  0  0
    2.6063   -3.9569    4.0771 C   0  0  0  0  0  0  0  0  0  0  0  0
    2.7873   -4.6174    5.3994 C   0  0  0  0  0  0  0  0  0  0  0  0
    2.9725   -4.5722    2.9138 N   0  0  0  0  0  0  0  0  0  0  0  0
    2.7396   -3.7447    1.8480 C   0  0  0  0  0  0  0  0  0  0  0  0
    3.0176   -4.2103    0.4615 C   0  0  0  0  0  0  0  0  0  0  0  0
    2.2086   -2.5738    2.3391 C   0  0  0  0  0  0  0  0  0  0  0  0
    1.8416   -1.3598    1.6302 C   0  0  0  0  0  0  0  0  0  0  0  0
    2.5650   -0.7080    0.6571 C   0  0  0  0  0  0  0  0  0  0  0  0
    3.8459   -1.0390   -0.0232 C   0  0  0  0  0  0  0  0  0  0  0  0
    1.9170    0.4575    0.3670 N   0  0  0  0  0  0  0  0  0  0  0  0
    0.7936    0.5782    1.1316 C   0  0  0  0  0  0  0  0  0  0  0  0
   -0.0737    1.7784    0.9992 C   0  0  0  0  0  0  0  0  0  0  0  0
    0.7075   -0.5404    1.9320 C   0  0  0  0  0  0  0  0  0  0  0  0
   -0.3826   -0.8733    2.8392 C   0  0  0  0  0  0  0  0  0  0  0  0
   -0.9799   -0.0426    3.7589 C   0  0  0  0  0  0  0  0  0  0  0  0
   -0.6423    1.3369    4.2050 C   0  0  0  0  0  0  0  0  0  0  0  0
   -2.0008   -0.7339    4.3508 N   0  0  0  0  0  0  0  0  0  0  0  0
   -2.0740   -1.9963    3.8373 C   0  0  0  0  0  0  0  0  0  0  0  0
   -3.1406   -2.9456    4.2564 C   0  0  0  0  0  0  0  0  0  0  0  0
   -1.0769   -2.1256    2.9000 C   0  0  0  0  0  0  0  0  0  0  0  0
   -0.8040   -3.3053    2.0945 C   0  0  0  0  0  0  0  0  0  0  0  0
   -0.5940   -4.5960    2.5113 C   0  0  0  0  0  0  0  0  0  0  0  0
   -0.5785   -5.1891    3.8743 C   0  0  0  0  0  0  0  0  0  0  0  0
   -0.3442   -5.3593    1.4013 N   0  0  0  0  0  0  0  0  0  0  0  0
   -0.3783   -4.5917    0.2766 C   0  0  0  0  0  0  0  0  0  0  0  0
   -0.2043   -5.1667   -1.0840 C   0  0  0  0  0  0  0  0  0  0  0  0
   -0.6637   -3.3038    0.6730 C   0  0  0  0  0  0  0  0  0  0  0  0
   -0.8333   -2.1435   -0.1571 C   0  0  0  0  0  0  0  0  0  0  0  0
   -0.0227   -1.6801   -1.1396 C   0  0  0  0  0  0  0  0  0  0  0  0
   -0.4581   -0.4621   -1.7242 C   0  0  0  0  0  0  0  0  0  0  0  0
    0.1884    0.3377   -2.6879 C   0  0  0  0  0  0  0  0  0  0  0  0
    1.5018    0.0173   -3.2124 C   0  0  0  0  0  0  0  0  0  0  0  0
    2.4906    0.9142   -3.5184 C   0  0  0  0  0  0  0  0  0  0  0  0
    3.6947    0.3753   -4.0107 C   0  0  0  0  0  0  0  0  0  0  0  0
    3.7220   -0.9827   -4.1176 C   0  0  0  0  0  0  0  0  0  0  0  0
    5.0756   -1.8934   -4.7648 S   0  0  0  0  0  0  0  0  0  0  0  0
    5.4676   -3.0160   -3.3642 C   0  0  0  0  0  0  0  0  0  0  0  0
    4.6049   -4.2611   -3.3503 C   0  0  0  0  0  0  0  0  0  0  0  0
    2.0742   -1.7330   -3.5999 Se  0  0  0  0  0  2  0  0  0  0  0  0
   -0.4830    1.4985   -3.0756 C   0  0  0  0  0  0  0  0  0  0  0  0
   -1.7201    1.9104   -2.5263 C   0  0  0  0  0  0  0  0  0  0  0  0
   -2.3310    1.1408   -1.5190 C   0  0  0  0  0  0  0  0  0  0  0  0
   -3.5602    1.5476   -0.8689 C   0  0  0  0  0  0  0  0  0  0  0  0
   -4.7023    2.0321   -1.4355 C   0  0  0  0  0  0  0  0  0  0  0  0
   -5.7494    2.3589   -0.5478 C   0  0  0  0  0  0  0  0  0  0  0  0
   -5.4692    2.1545    0.7707 C   0  0  0  0  0  0  0  0  0  0  0  0
   -6.5737    2.5547    2.0708 S   0  0  0  0  0  0  0  0  0  0  0  0
   -5.7636    1.7716    3.5088 C   0  0  0  0  0  0  0  0  0  0  0  0
   -5.9149    0.2634    3.5163 C   0  0  0  0  0  0  0  0  0  0  0  0
   -3.7282    1.4790    1.0078 Se  0  0  0  0  0  2  0  0  0  0  0  0
   -1.6751   -0.0277   -1.1515 C   0  0  0  0  0  0  0  0  0  0  0  0
   -2.2312   -1.1244    0.0779 S   0  0  0  0  0  0  0  0  0  0  0  0
   -2.1734    3.1362   -3.0823 C   0  0  0  0  0  0  0  0  0  0  0  0
   -1.3629    3.6416   -4.0500 C   0  0  0  0  0  0  0  0  0  0  0  0
    0.0457    2.6250   -4.2992 S   0  0  0  0  0  0  0  0  0  0  0  0
   -1.5023    4.8297   -4.8422 C   0  0  0  0  0  0  0  0  0  0  0  0
   -2.5886    5.6869   -4.9242 C   0  0  0  0  0  0  0  0  0  0  0  0
   -3.9183    5.6668   -4.2587 C   0  0  0  0  0  0  0  0  0  0  0  0
   -2.2629    6.6658   -5.8113 N   0  0  0  0  0  0  0  0  0  0  0  0
   -1.0032    6.4695   -6.3078 C   0  0  0  0  0  0  0  0  0  0  0  0
   -0.4053    7.4028   -7.2990 C   0  0  0  0  0  0  0  0  0  0  0  0
   -0.5096    5.3389   -5.7265 C   0  0  0  0  0  0  0  0  0  0  0  0
    1.7517   -1.9819    4.4286 H   0  0  0  0  0  0  0  0  0  0  0  0
    2.2864   -4.0376    6.1691 H   0  0  0  0  0  0  0  0  0  0  0  0
    3.8453   -4.6902    5.6588 H   0  0  0  0  0  0  0  0  0  0  0  0
    2.3725   -5.6261    5.3983 H   0  0  0  0  0  0  0  0  0  0  0  0
    3.3672   -5.4957    2.8482 H   0  0  0  0  0  0  0  0  0  0  0  0
    2.6845   -5.2411    0.3352 H   0  0  0  0  0  0  0  0  0  0  0  0
    4.0846   -4.1762    0.2294 H   0  0  0  0  0  0  0  0  0  0  0  0
    2.4876   -3.5816   -0.2464 H   0  0  0  0  0  0  0  0  0  0  0  0
    3.6645   -1.4520   -1.0208 H   0  0  0  0  0  0  0  0  0  0  0  0
    4.3991   -1.7670    0.5619 H   0  0  0  0  0  0  0  0  0  0  0  0
    4.4556   -0.1427   -0.1410 H   0  0  0  0  0  0  0  0  0  0  0  0
    2.2092    1.1174   -0.3348 H   0  0  0  0  0  0  0  0  0  0  0  0
    0.2943    2.6087    1.6051 H   0  0  0  0  0  0  0  0  0  0  0  0
   -0.1098    2.1118   -0.0379 H   0  0  0  0  0  0  0  0  0  0  0  0
   -1.0836    1.5391    1.3313 H   0  0  0  0  0  0  0  0  0  0  0  0
   -0.6686    1.4007    5.2937 H   0  0  0  0  0  0  0  0  0  0  0  0
    0.3561    1.5942    3.8653 H   0  0  0  0  0  0  0  0  0  0  0  0
   -1.3468    2.0708    3.8069 H   0  0  0  0  0  0  0  0  0  0  0  0
   -2.6103   -0.3615    5.0596 H   0  0  0  0  0  0  0  0  0  0  0  0
   -3.1912   -3.7657    3.5466 H   0  0  0  0  0  0  0  0  0  0  0  0
   -2.9458   -3.3561    5.2492 H   0  0  0  0  0  0  0  0  0  0  0  0
   -4.1095   -2.4459    4.2807 H   0  0  0  0  0  0  0  0  0  0  0  0
   -1.5159   -5.7018    4.0997 H   0  0  0  0  0  0  0  0  0  0  0  0
    0.2313   -5.9117    3.9653 H   0  0  0  0  0  0  0  0  0  0  0  0
   -0.4290   -4.4004    4.6050 H   0  0  0  0  0  0  0  0  0  0  0  0
   -0.1676   -6.3502    1.4159 H   0  0  0  0  0  0  0  0  0  0  0  0
   -0.8753   -6.0134   -1.2344 H   0  0  0  0  0  0  0  0  0  0  0  0
    0.8174   -5.5138   -1.2433 H   0  0  0  0  0  0  0  0  0  0  0  0
   -0.4263   -4.4086   -1.8303 H   0  0  0  0  0  0  0  0  0  0  0  0
    0.9033   -2.1744   -1.3759 H   0  0  0  0  0  0  0  0  0  0  0  0
    2.3788    1.9720   -3.3506 H   0  0  0  0  0  0  0  0  0  0  0  0
    4.5435    0.9851   -4.2692 H   0  0  0  0  0  0  0  0  0  0  0  0
    6.5177   -3.2683   -3.5092 H   0  0  0  0  0  0  0  0  0  0  0  0
    5.3591   -2.4354   -2.4486 H   0  0  0  0  0  0  0  0  0  0  0  0
    4.8915   -4.9019   -2.5185 H   0  0  0  0  0  0  0  0  0  0  0  0
    4.7232   -4.8145   -4.2789 H   0  0  0  0  0  0  0  0  0  0  0  0
    3.5513   -3.9991   -3.2348 H   0  0  0  0  0  0  0  0  0  0  0  0
   -4.8205    2.1069   -2.5041 H   0  0  0  0  0  0  0  0  0  0  0  0
   -6.7025    2.7318   -0.8824 H   0  0  0  0  0  0  0  0  0  0  0  0
   -6.2504    2.2225    4.3736 H   0  0  0  0  0  0  0  0  0  0  0  0
   -4.7110    2.0720    3.4887 H   0  0  0  0  0  0  0  0  0  0  0  0
   -6.9654   -0.0127    3.4601 H   0  0  0  0  0  0  0  0  0  0  0  0
   -5.3900   -0.1812    2.6705 H   0  0  0  0  0  0  0  0  0  0  0  0
   -5.4950   -0.1431    4.4345 H   0  0  0  0  0  0  0  0  0  0  0  0
   -3.0632    3.6271   -2.7406 H   0  0  0  0  0  0  0  0  0  0  0  0
   -4.3954    4.6958   -4.3849 H   0  0  0  0  0  0  0  0  0  0  0  0
   -4.5654    6.4283   -4.6904 H   0  0  0  0  0  0  0  0  0  0  0  0
   -3.8257    5.8624   -3.1898 H   0  0  0  0  0  0  0  0  0  0  0  0
   -2.8687    7.4275   -6.0698 H   0  0  0  0  0  0  0  0  0  0  0  0
   -0.3189    8.4079   -6.8843 H   0  0  0  0  0  0  0  0  0  0  0  0
    0.5858    7.0564   -7.5763 H   0  0  0  0  0  0  0  0  0  0  0  0
   -1.0186    7.4591   -8.1990 H   0  0  0  0  0  0  0  0  0  0  0  0
    0.4534    4.8993   -5.8946 H   0  0  0  0  0  0  0  0  0  0  0  0
  1  2  2  0  0  0  0
  2  3  1  0  0  0  0
  2  4  1  0  0  0  0
  4  5  1  0  0  0  0
  5  6  1  0  0  0  0
  5  7  2  0  0  0  0
  7  8  1  0  0  0  0
  8  9  2  0  0  0  0
  9 10  1  0  0  0  0
  9 11  1  0  0  0  0
 11 12  1  0  0  0  0
 12 13  1  0  0  0  0
 12 14  2  0  0  0  0
 14 15  1  0  0  0  0
 15 16  2  0  0  0  0
 16 17  1  0  0  0  0
 16 18  1  0  0  0  0
 18 19  1  0  0  0  0
 19 20  1  0  0  0  0
 19 21  2  0  0  0  0
 21 22  1  0  0  0  0
 22 23  2  0  0  0  0
 23 24  1  0  0  0  0
 23 25  1  0  0  0  0
 25 26  1  0  0  0  0
 26 27  1  0  0  0  0
 26 28  2  0  0  0  0
 28 29  1  0  0  0  0
 29 30  2  0  0  0  0
 30 31  1  0  0  0  0
 31 32  2  0  0  0  0
 32 33  1  0  0  0  0
 33 34  2  0  0  0  0
 34 35  1  0  0  0  0
 35 36  2  0  0  0  0
 36 37  1  0  0  0  0
 37 38  1  0  0  0  0
 38 39  1  0  0  0  0
 36 40  1  0  0  0  0
 32 41  1  0  0  0  0
 41 42  2  0  0  0  0
 42 43  1  0  0  0  0
 43 44  1  0  0  0  0
 44 45  2  0  0  0  0
 45 46  1  0  0  0  0
 46 47  2  0  0  0  0
 47 48  1  0  0  0  0
 48 49  1  0  0  0  0
 49 50  1  0  0  0  0
 47 51  1  0  0  0  0
 43 52  2  0  0  0  0
 52 53  1  0  0  0  0
 42 54  1  0  0  0  0
 54 55  2  0  0  0  0
 55 56  1  0  0  0  0
 55 57  1  0  0  0  0
 57 58  2  0  0  0  0
 58 59  1  0  0  0  0
 58 60  1  0  0  0  0
 60 61  1  0  0  0  0
 61 62  1  0  0  0  0
 61 63  2  0  0  0  0
  7  1  1  0  0  0  0
 14  8  1  0  0  0  0
 21 15  1  0  0  0  0
 28 22  1  0  0  0  0
 53 29  1  0  0  0  0
 63 57  1  0  0  0  0
 52 31  1  0  0  0  0
 40 33  1  0  0  0  0
 56 41  1  0  0  0  0
 51 44  1  0  0  0  0
  1 64  1  0  0  0  0
  3 65  1  0  0  0  0
  3 66  1  0  0  0  0
  3 67  1  0  0  0  0
  4 68  1  0  0  0  0
  6 69  1  0  0  0  0
  6 70  1  0  0  0  0
  6 71  1  0  0  0  0
 10 72  1  0  0  0  0
 10 73  1  0  0  0  0
 10 74  1  0  0  0  0
 11 75  1  0  0  0  0
 13 76  1  0  0  0  0
 13 77  1  0  0  0  0
 13 78  1  0  0  0  0
 17 79  1  0  0  0  0
 17 80  1  0  0  0  0
 17 81  1  0  0  0  0
 18 82  1  0  0  0  0
 20 83  1  0  0  0  0
 20 84  1  0  0  0  0
 20 85  1  0  0  0  0
 24 86  1  0  0  0  0
 24 87  1  0  0  0  0
 24 88  1  0  0  0  0
 25 89  1  0  0  0  0
 27 90  1  0  0  0  0
 27 91  1  0  0  0  0
 27 92  1  0  0  0  0
 30 93  1  0  0  0  0
 34 94  1  0  0  0  0
 35 95  1  0  0  0  0
 38 96  1  0  0  0  0
 38 97  1  0  0  0  0
 39 98  1  0  0  0  0
 39 99  1  0  0  0  0
 39100  1  0  0  0  0
 45101  1  0  0  0  0
 46102  1  0  0  0  0
 49103  1  0  0  0  0
 49104  1  0  0  0  0
 50105  1  0  0  0  0
 50106  1  0  0  0  0
 50107  1  0  0  0  0
 54108  1  0  0  0  0
 59109  1  0  0  0  0
 59110  1  0  0  0  0
 59111  1  0  0  0  0
 60112  1  0  0  0  0
 62113  1  0  0  0  0
 62114  1  0  0  0  0
 62115  1  0  0  0  0
 63116  1  0  0  0  0
M  END
