
  xtb     03082201253D
 energy: -333.223596283070 gnorm: 0.000604646048 xtb: 6.4.1 (unknown)
191211  0     0  0            999 V2000
    2.3573   -9.6047    6.5752 C   0  0  0  0  0  0  0  0  0  0  0  0
    3.2011   -9.0171    5.7032 C   0  0  0  0  0  0  0  0  0  0  0  0
    2.7134   -7.7750    5.1989 C   0  0  0  0  0  0  0  0  0  0  0  0
    3.3371   -6.9038    4.2830 C   0  0  0  0  0  0  0  0  0  0  0  0
    4.6689   -7.1298    3.7588 C   0  0  0  0  0  0  0  0  0  0  0  0
    5.1304   -6.8356    2.5057 C   0  0  0  0  0  0  0  0  0  0  0  0
    6.5003   -7.0664    2.2749 C   0  0  0  0  0  0  0  0  0  0  0  0
    7.2008   -7.5285    3.3512 C   0  0  0  0  0  0  0  0  0  0  0  0
    8.9290   -7.7919    3.3438 S   0  0  0  0  0  0  0  0  0  0  0  0
    9.1338   -8.9100    4.7743 C   0  0  0  0  0  0  0  0  0  0  0  0
    8.6077  -10.3022    4.4917 C   0  0  0  0  0  0  0  0  0  0  0  0
    6.0866   -7.7229    4.8563 Se  0  0  0  0  0  2  0  0  0  0  0  0
    2.6116   -5.7672    3.9340 C   0  0  0  0  0  0  0  0  0  0  0  0
    1.3511   -5.4463    4.4918 C   0  0  0  0  0  0  0  0  0  0  0  0
    0.7198   -6.3229    5.3938 C   0  0  0  0  0  0  0  0  0  0  0  0
   -0.6148   -6.0885    5.9085 C   0  0  0  0  0  0  0  0  0  0  0  0
   -1.5904   -7.0401    6.0409 C   0  0  0  0  0  0  0  0  0  0  0  0
   -2.8381   -6.5947    6.5188 C   0  0  0  0  0  0  0  0  0  0  0  0
   -2.8942   -5.2644    6.8132 C   0  0  0  0  0  0  0  0  0  0  0  0
   -4.2704   -4.3405    7.3869 S   0  0  0  0  0  0  0  0  0  0  0  0
   -5.0582   -5.5190    8.5429 C   0  0  0  0  0  0  0  0  0  0  0  0
   -4.1431   -5.8854    9.6928 C   0  0  0  0  0  0  0  0  0  0  0  0
   -1.2567   -4.4077    6.4939 Se  0  0  0  0  0  2  0  0  0  0  0  0
    1.4319   -7.4762    5.7162 C   0  0  0  0  0  0  0  0  0  0  0  0
    0.9034   -8.7088    6.8318 S   0  0  0  0  0  0  0  0  0  0  0  0
    0.8538   -4.2211    3.9906 C   0  0  0  0  0  0  0  0  0  0  0  0
    1.6651   -3.6256    3.0749 C   0  0  0  0  0  0  0  0  0  0  0  0
    3.1265   -4.5457    2.7949 S   0  0  0  0  0  0  0  0  0  0  0  0
    1.3721   -2.4286    2.3636 C   0  0  0  0  0  0  0  0  0  0  0  0
    2.0204   -1.8570    1.3127 C   0  0  0  0  0  0  0  0  0  0  0  0
    1.3886   -0.6826    0.8333 C   0  0  0  0  0  0  0  0  0  0  0  0
    1.8014    0.1456   -0.2275 C   0  0  0  0  0  0  0  0  0  0  0  0
    2.9599   -0.1440   -1.0426 C   0  0  0  0  0  0  0  0  0  0  0  0
    3.3672   -1.3512   -1.5385 C   0  0  0  0  0  0  0  0  0  0  0  0
    4.5360   -1.3345   -2.3241 C   0  0  0  0  0  0  0  0  0  0  0  0
    5.1162   -0.1057   -2.4699 C   0  0  0  0  0  0  0  0  0  0  0  0
    6.5817    0.1726   -3.3834 S   0  0  0  0  0  0  0  0  0  0  0  0
    6.8514    1.9635   -3.1410 C   0  0  0  0  0  0  0  0  0  0  0  0
    6.0097    2.8099   -4.0744 C   0  0  0  0  0  0  0  0  0  0  0  0
    4.1344    1.2265   -1.5743 Se  0  0  0  0  0  2  0  0  0  0  0  0
    0.9958    1.2474   -0.4836 C   0  0  0  0  0  0  0  0  0  0  0  0
   -0.1930    1.5547    0.2192 C   0  0  0  0  0  0  0  0  0  0  0  0
   -0.5584    0.7801    1.3487 C   0  0  0  0  0  0  0  0  0  0  0  0
   -1.6492    1.1433    2.2145 C   0  0  0  0  0  0  0  0  0  0  0  0
   -2.1952    2.3898    2.4198 C   0  0  0  0  0  0  0  0  0  0  0  0
   -3.2320    2.4719    3.3626 C   0  0  0  0  0  0  0  0  0  0  0  0
   -3.5648    1.2850    3.9634 C   0  0  0  0  0  0  0  0  0  0  0  0
   -4.8397    1.1001    5.1411 S   0  0  0  0  0  0  0  0  0  0  0  0
   -4.5498   -0.6117    5.7120 C   0  0  0  0  0  0  0  0  0  0  0  0
   -3.3533   -0.7267    6.6327 C   0  0  0  0  0  0  0  0  0  0  0  0
   -2.4852   -0.1137    3.3381 Se  0  0  0  0  0  2  0  0  0  0  0  0
    0.2373   -0.3442    1.5831 C   0  0  0  0  0  0  0  0  0  0  0  0
   -0.0426   -1.5099    2.8421 S   0  0  0  0  0  0  0  0  0  0  0  0
   -0.9151    2.5961   -0.4115 C   0  0  0  0  0  0  0  0  0  0  0  0
   -0.2896    3.1122   -1.5114 C   0  0  0  0  0  0  0  0  0  0  0  0
    1.2617    2.3498   -1.7993 S   0  0  0  0  0  0  0  0  0  0  0  0
   -0.6893    4.1055   -2.4440 C   0  0  0  0  0  0  0  0  0  0  0  0
    0.4040    4.4457   -3.7537 S   0  0  0  0  0  0  0  0  0  0  0  0
   -0.6415    5.6649   -4.4154 C   0  0  0  0  0  0  0  0  0  0  0  0
   -1.7979    5.7513   -3.6494 C   0  0  0  0  0  0  0  0  0  0  0  0
   -1.8347    4.8763   -2.5443 C   0  0  0  0  0  0  0  0  0  0  0  0
   -3.1948    4.6534   -1.4473 S   0  0  0  0  0  0  0  0  0  0  0  0
   -3.8115    6.3561   -1.1206 C   0  0  0  0  0  0  0  0  0  0  0  0
   -2.7180    7.3502   -1.3945 C   0  0  0  0  0  0  0  0  0  0  0  0
   -1.7791    7.5231   -0.6642 O   0  0  0  0  0  0  0  0  0  0  0  0
   -2.8609    8.0740   -2.7098 C   0  0  0  0  0  0  0  0  0  0  0  0
   -3.1169    6.8565   -4.0531 S   0  0  0  0  0  0  0  0  0  0  0  0
   -0.3587    6.5040   -5.5243 C   0  0  0  0  0  0  0  0  0  0  0  0
    0.6350    6.5517   -6.4473 C   0  0  0  0  0  0  0  0  0  0  0  0
    1.7365    5.7191   -6.7847 C   0  0  0  0  0  0  0  0  0  0  0  0
    2.2165    4.2272   -6.0121 S   0  0  0  0  0  0  0  0  0  0  0  0
    3.4163    3.8915   -7.2248 C   0  0  0  0  0  0  0  0  0  0  0  0
    3.4944    4.9320   -8.1251 C   0  0  0  0  0  0  0  0  0  0  0  0
    2.5436    5.9465   -7.8948 C   0  0  0  0  0  0  0  0  0  0  0  0
    2.3774    7.3667   -8.9261 S   0  0  0  0  0  0  0  0  0  0  0  0
    1.8289    6.5665  -10.4907 C   0  0  0  0  0  0  0  0  0  0  0  0
    3.0152    6.0670  -11.2806 C   0  0  0  0  0  0  0  0  0  0  0  0
    3.5257    6.7265  -12.1471 O   0  0  0  0  0  0  0  0  0  0  0  0
    3.5550    4.7190  -10.8738 C   0  0  0  0  0  0  0  0  0  0  0  0
    4.6775    4.9486   -9.4372 S   0  0  0  0  0  0  0  0  0  0  0  0
    4.2341    2.7140   -7.2039 C   0  0  0  0  0  0  0  0  0  0  0  0
    3.9005    1.5233   -6.6796 C   0  0  0  0  0  0  0  0  0  0  0  0
    2.6046    1.1740   -6.1488 C   0  0  0  0  0  0  0  0  0  0  0  0
    2.4937    0.3858   -4.6052 S   0  0  0  0  0  0  0  0  0  0  0  0
    0.7595    0.3496   -4.6784 C   0  0  0  0  0  0  0  0  0  0  0  0
    0.3136    0.8475   -5.8835 C   0  0  0  0  0  0  0  0  0  0  0  0
    1.3591    1.3077   -6.7218 C   0  0  0  0  0  0  0  0  0  0  0  0
    1.1856    1.7521   -8.4227 S   0  0  0  0  0  0  0  0  0  0  0  0
   -0.0119    3.1469   -8.4593 C   0  0  0  0  0  0  0  0  0  0  0  0
   -1.4362    2.7521   -8.1554 C   0  0  0  0  0  0  0  0  0  0  0  0
   -2.2595    2.6129   -9.0209 O   0  0  0  0  0  0  0  0  0  0  0  0
   -1.7373    2.5172   -6.7002 C   0  0  0  0  0  0  0  0  0  0  0  0
   -1.3755    0.7405   -6.3805 S   0  0  0  0  0  0  0  0  0  0  0  0
    0.0163   -0.1213   -3.5479 C   0  0  0  0  0  0  0  0  0  0  0  0
   -1.1691    0.4018   -3.1862 C   0  0  0  0  0  0  0  0  0  0  0  0
   -1.9563    0.0224   -2.0640 C   0  0  0  0  0  0  0  0  0  0  0  0
   -3.0353    0.7144   -1.5997 C   0  0  0  0  0  0  0  0  0  0  0  0
   -3.6720    0.1081   -0.4933 C   0  0  0  0  0  0  0  0  0  0  0  0
   -4.7843    0.5908    0.2137 C   0  0  0  0  0  0  0  0  0  0  0  0
   -5.3898    1.8736   -0.0822 C   0  0  0  0  0  0  0  0  0  0  0  0
   -5.8264    2.3440   -1.2851 C   0  0  0  0  0  0  0  0  0  0  0  0
   -6.4137    3.6260   -1.2670 C   0  0  0  0  0  0  0  0  0  0  0  0
   -6.4535    4.2203   -0.0406 C   0  0  0  0  0  0  0  0  0  0  0  0
   -7.0277    5.8521    0.2383 S   0  0  0  0  0  0  0  0  0  0  0  0
   -7.4267    5.7855    2.0196 C   0  0  0  0  0  0  0  0  0  0  0  0
   -8.6398    4.9253    2.3038 C   0  0  0  0  0  0  0  0  0  0  0  0
   -5.6620    3.1344    1.2842 Se  0  0  0  0  0  2  0  0  0  0  0  0
   -5.2981   -0.2501    1.1928 C   0  0  0  0  0  0  0  0  0  0  0  0
   -4.7473   -1.5116    1.5124 C   0  0  0  0  0  0  0  0  0  0  0  0
   -3.5179   -1.9150    0.9268 C   0  0  0  0  0  0  0  0  0  0  0  0
   -2.8087   -3.0746    1.4055 C   0  0  0  0  0  0  0  0  0  0  0  0
   -2.9175   -3.6542    2.6470 C   0  0  0  0  0  0  0  0  0  0  0  0
   -2.1579   -4.8122    2.8675 C   0  0  0  0  0  0  0  0  0  0  0  0
   -1.3654   -5.1922    1.8205 C   0  0  0  0  0  0  0  0  0  0  0  0
   -0.3592   -6.6171    1.8407 S   0  0  0  0  0  0  0  0  0  0  0  0
    0.7154   -6.2677    0.4007 C   0  0  0  0  0  0  0  0  0  0  0  0
    1.7520   -7.3611    0.2530 C   0  0  0  0  0  0  0  0  0  0  0  0
   -1.5370   -4.0076    0.3659 Se  0  0  0  0  0  2  0  0  0  0  0  0
   -3.0471   -1.1019   -0.1068 C   0  0  0  0  0  0  0  0  0  0  0  0
   -1.6492   -1.4163   -1.1053 S   0  0  0  0  0  0  0  0  0  0  0  0
   -5.6011   -2.2179    2.4113 C   0  0  0  0  0  0  0  0  0  0  0  0
   -6.6887   -1.5093    2.7832 C   0  0  0  0  0  0  0  0  0  0  0  0
   -6.7692    0.0603    2.0711 S   0  0  0  0  0  0  0  0  0  0  0  0
    2.4842  -10.5370    7.0895 H   0  0  0  0  0  0  0  0  0  0  0  0
    4.1348   -9.4632    5.4054 H   0  0  0  0  0  0  0  0  0  0  0  0
    4.4819   -6.4966    1.7163 H   0  0  0  0  0  0  0  0  0  0  0  0
    6.9665   -6.8957    1.3202 H   0  0  0  0  0  0  0  0  0  0  0  0
    8.6228   -8.4469    5.6245 H   0  0  0  0  0  0  0  0  0  0  0  0
   10.2063   -8.9214    4.9653 H   0  0  0  0  0  0  0  0  0  0  0  0
    7.5386  -10.2721    4.2799 H   0  0  0  0  0  0  0  0  0  0  0  0
    8.7699  -10.9420    5.3565 H   0  0  0  0  0  0  0  0  0  0  0  0
    9.1181  -10.7336    3.6338 H   0  0  0  0  0  0  0  0  0  0  0  0
   -1.4405   -8.0610    5.7339 H   0  0  0  0  0  0  0  0  0  0  0  0
   -3.6800   -7.2579    6.6209 H   0  0  0  0  0  0  0  0  0  0  0  0
   -5.3707   -6.3929    7.9727 H   0  0  0  0  0  0  0  0  0  0  0  0
   -5.9430   -4.9874    8.8921 H   0  0  0  0  0  0  0  0  0  0  0  0
   -4.6632   -6.5504   10.3791 H   0  0  0  0  0  0  0  0  0  0  0  0
   -3.8382   -4.9926   10.2344 H   0  0  0  0  0  0  0  0  0  0  0  0
   -3.2511   -6.3920    9.3284 H   0  0  0  0  0  0  0  0  0  0  0  0
   -0.0955   -3.7910    4.2586 H   0  0  0  0  0  0  0  0  0  0  0  0
    2.9320   -2.2564    0.9062 H   0  0  0  0  0  0  0  0  0  0  0  0
    2.8000   -2.2543   -1.3829 H   0  0  0  0  0  0  0  0  0  0  0  0
    4.9447   -2.2190   -2.7812 H   0  0  0  0  0  0  0  0  0  0  0  0
    6.6338    2.1785   -2.0902 H   0  0  0  0  0  0  0  0  0  0  0  0
    7.9149    2.1134   -3.3247 H   0  0  0  0  0  0  0  0  0  0  0  0
    6.1934    3.8644   -3.8803 H   0  0  0  0  0  0  0  0  0  0  0  0
    4.9473    2.6123   -3.9254 H   0  0  0  0  0  0  0  0  0  0  0  0
    6.2590    2.5955   -5.1104 H   0  0  0  0  0  0  0  0  0  0  0  0
   -1.8093    3.2744    1.9437 H   0  0  0  0  0  0  0  0  0  0  0  0
   -3.7063    3.4027    3.6301 H   0  0  0  0  0  0  0  0  0  0  0  0
   -4.4312   -1.2274    4.8139 H   0  0  0  0  0  0  0  0  0  0  0  0
   -5.4689   -0.8998    6.2205 H   0  0  0  0  0  0  0  0  0  0  0  0
   -2.4415   -0.4053    6.1265 H   0  0  0  0  0  0  0  0  0  0  0  0
   -3.4937   -0.1145    7.5199 H   0  0  0  0  0  0  0  0  0  0  0  0
   -3.2287   -1.7659    6.9349 H   0  0  0  0  0  0  0  0  0  0  0  0
   -1.8951    2.9071   -0.1066 H   0  0  0  0  0  0  0  0  0  0  0  0
   -4.7020    6.5214   -1.7242 H   0  0  0  0  0  0  0  0  0  0  0  0
   -4.0645    6.3454   -0.0606 H   0  0  0  0  0  0  0  0  0  0  0  0
   -3.7532    8.7000   -2.7102 H   0  0  0  0  0  0  0  0  0  0  0  0
   -1.9761    8.6749   -2.9228 H   0  0  0  0  0  0  0  0  0  0  0  0
   -1.1138    7.2748   -5.6363 H   0  0  0  0  0  0  0  0  0  0  0  0
    0.5663    7.3858   -7.1377 H   0  0  0  0  0  0  0  0  0  0  0  0
    1.3333    7.3650  -11.0418 H   0  0  0  0  0  0  0  0  0  0  0  0
    1.1232    5.7792  -10.2319 H   0  0  0  0  0  0  0  0  0  0  0  0
    2.7886    4.0004  -10.5894 H   0  0  0  0  0  0  0  0  0  0  0  0
    4.1900    4.3186  -11.6628 H   0  0  0  0  0  0  0  0  0  0  0  0
    5.2034    2.8313   -7.6689 H   0  0  0  0  0  0  0  0  0  0  0  0
    4.6502    0.7451   -6.6259 H   0  0  0  0  0  0  0  0  0  0  0  0
    0.3365    3.9167   -7.7737 H   0  0  0  0  0  0  0  0  0  0  0  0
    0.0474    3.4913   -9.4924 H   0  0  0  0  0  0  0  0  0  0  0  0
   -1.1367    3.1195   -6.0215 H   0  0  0  0  0  0  0  0  0  0  0  0
   -2.8014    2.6395   -6.5049 H   0  0  0  0  0  0  0  0  0  0  0  0
    0.4911   -0.8721   -2.9298 H   0  0  0  0  0  0  0  0  0  0  0  0
   -1.5892    1.2149   -3.7626 H   0  0  0  0  0  0  0  0  0  0  0  0
   -3.3624    1.6434   -2.0310 H   0  0  0  0  0  0  0  0  0  0  0  0
   -5.7808    1.7485   -2.1818 H   0  0  0  0  0  0  0  0  0  0  0  0
   -6.8183    4.0943   -2.1476 H   0  0  0  0  0  0  0  0  0  0  0  0
   -6.5352    5.4084    2.5324 H   0  0  0  0  0  0  0  0  0  0  0  0
   -7.5946    6.8233    2.3053 H   0  0  0  0  0  0  0  0  0  0  0  0
   -8.4584    3.8943    1.9995 H   0  0  0  0  0  0  0  0  0  0  0  0
   -8.8546    4.9346    3.3700 H   0  0  0  0  0  0  0  0  0  0  0  0
   -9.5071    5.3004    1.7654 H   0  0  0  0  0  0  0  0  0  0  0  0
   -3.4995   -3.2193    3.4422 H   0  0  0  0  0  0  0  0  0  0  0  0
   -2.1911   -5.3650    3.7914 H   0  0  0  0  0  0  0  0  0  0  0  0
    1.1791   -5.2939    0.5795 H   0  0  0  0  0  0  0  0  0  0  0  0
    0.0678   -6.2050   -0.4796 H   0  0  0  0  0  0  0  0  0  0  0  0
    1.2717   -8.3172    0.0593 H   0  0  0  0  0  0  0  0  0  0  0  0
    2.4195   -7.1302   -0.5743 H   0  0  0  0  0  0  0  0  0  0  0  0
    2.3375   -7.4515    1.1656 H   0  0  0  0  0  0  0  0  0  0  0  0
   -5.4421   -3.2342    2.7200 H   0  0  0  0  0  0  0  0  0  0  0  0
   -7.4769   -1.8159    3.4425 H   0  0  0  0  0  0  0  0  0  0  0  0
  1  2  2  0  0  0  0
  2  3  1  0  0  0  0
  3  4  2  0  0  0  0
  4  5  1  0  0  0  0
  5  6  2  0  0  0  0
  6  7  1  0  0  0  0
  7  8  2  0  0  0  0
  8  9  1  0  0  0  0
  9 10  1  0  0  0  0
 10 11  1  0  0  0  0
  8 12  1  0  0  0  0
  4 13  1  0  0  0  0
 13 14  2  0  0  0  0
 14 15  1  0  0  0  0
 15 16  1  0  0  0  0
 16 17  2  0  0  0  0
 17 18  1  0  0  0  0
 18 19  2  0  0  0  0
 19 20  1  0  0  0  0
 20 21  1  0  0  0  0
 21 22  1  0  0  0  0
 19 23  1  0  0  0  0
 15 24  2  0  0  0  0
 24 25  1  0  0  0  0
 14 26  1  0  0  0  0
 26 27  2  0  0  0  0
 27 28  1  0  0  0  0
 27 29  1  0  0  0  0
 29 30  2  0  0  0  0
 30 31  1  0  0  0  0
 31 32  2  0  0  0  0
 32 33  1  0  0  0  0
 33 34  2  0  0  0  0
 34 35  1  0  0  0  0
 35 36  2  0  0  0  0
 36 37  1  0  0  0  0
 37 38  1  0  0  0  0
 38 39  1  0  0  0  0
 36 40  1  0  0  0  0
 32 41  1  0  0  0  0
 41 42  2  0  0  0  0
 42 43  1  0  0  0  0
 43 44  1  0  0  0  0
 44 45  2  0  0  0  0
 45 46  1  0  0  0  0
 46 47  2  0  0  0  0
 47 48  1  0  0  0  0
 48 49  1  0  0  0  0
 49 50  1  0  0  0  0
 47 51  1  0  0  0  0
 43 52  2  0  0  0  0
 52 53  1  0  0  0  0
 42 54  1  0  0  0  0
 54 55  2  0  0  0  0
 55 56  1  0  0  0  0
 55 57  1  0  0  0  0
 57 58  1  0  0  0  0
 58 59  1  0  0  0  0
 59 60  2  0  0  0  0
 60 61  1  0  0  0  0
 61 62  1  0  0  0  0
 62 63  1  0  0  0  0
 63 64  1  0  0  0  0
 64 65  2  0  0  0  0
 64 66  1  0  0  0  0
 66 67  1  0  0  0  0
 59 68  1  0  0  0  0
 68 69  2  0  0  0  0
 69 70  1  0  0  0  0
 70 71  1  0  0  0  0
 71 72  1  0  0  0  0
 72 73  2  0  0  0  0
 73 74  1  0  0  0  0
 74 75  1  0  0  0  0
 75 76  1  0  0  0  0
 76 77  1  0  0  0  0
 77 78  2  0  0  0  0
 77 79  1  0  0  0  0
 79 80  1  0  0  0  0
 72 81  1  0  0  0  0
 81 82  2  0  0  0  0
 82 83  1  0  0  0  0
 83 84  1  0  0  0  0
 84 85  1  0  0  0  0
 85 86  2  0  0  0  0
 86 87  1  0  0  0  0
 87 88  1  0  0  0  0
 88 89  1  0  0  0  0
 89 90  1  0  0  0  0
 90 91  2  0  0  0  0
 90 92  1  0  0  0  0
 92 93  1  0  0  0  0
 85 94  1  0  0  0  0
 94 95  2  0  0  0  0
 95 96  1  0  0  0  0
 96 97  2  0  0  0  0
 97 98  1  0  0  0  0
 98 99  2  0  0  0  0
 99100  1  0  0  0  0
100101  2  0  0  0  0
101102  1  0  0  0  0
102103  2  0  0  0  0
103104  1  0  0  0  0
104105  1  0  0  0  0
105106  1  0  0  0  0
103107  1  0  0  0  0
 99108  1  0  0  0  0
108109  2  0  0  0  0
109110  1  0  0  0  0
110111  1  0  0  0  0
111112  2  0  0  0  0
112113  1  0  0  0  0
113114  2  0  0  0  0
114115  1  0  0  0  0
115116  1  0  0  0  0
116117  1  0  0  0  0
114118  1  0  0  0  0
110119  2  0  0  0  0
119120  1  0  0  0  0
109121  1  0  0  0  0
121122  2  0  0  0  0
122123  1  0  0  0  0
 25  1  1  0  0  0  0
 53 29  1  0  0  0  0
 61 57  2  0  0  0  0
 74 70  2  0  0  0  0
 87 83  2  0  0  0  0
120 96  1  0  0  0  0
 24  3  1  0  0  0  0
 52 31  1  0  0  0  0
 67 60  1  0  0  0  0
 80 73  1  0  0  0  0
 93 86  1  0  0  0  0
119 98  1  0  0  0  0
 12  5  1  0  0  0  0
 28 13  1  0  0  0  0
 40 33  1  0  0  0  0
 56 41  1  0  0  0  0
107100  1  0  0  0  0
123108  1  0  0  0  0
 23 16  1  0  0  0  0
 51 44  1  0  0  0  0
118111  1  0  0  0  0
  1124  1  0  0  0  0
  2125  1  0  0  0  0
  6126  1  0  0  0  0
  7127  1  0  0  0  0
 10128  1  0  0  0  0
 10129  1  0  0  0  0
 11130  1  0  0  0  0
 11131  1  0  0  0  0
 11132  1  0  0  0  0
 17133  1  0  0  0  0
 18134  1  0  0  0  0
 21135  1  0  0  0  0
 21136  1  0  0  0  0
 22137  1  0  0  0  0
 22138  1  0  0  0  0
 22139  1  0  0  0  0
 26140  1  0  0  0  0
 30141  1  0  0  0  0
 34142  1  0  0  0  0
 35143  1  0  0  0  0
 38144  1  0  0  0  0
 38145  1  0  0  0  0
 39146  1  0  0  0  0
 39147  1  0  0  0  0
 39148  1  0  0  0  0
 45149  1  0  0  0  0
 46150  1  0  0  0  0
 49151  1  0  0  0  0
 49152  1  0  0  0  0
 50153  1  0  0  0  0
 50154  1  0  0  0  0
 50155  1  0  0  0  0
 54156  1  0  0  0  0
 63157  1  0  0  0  0
 63158  1  0  0  0  0
 66159  1  0  0  0  0
 66160  1  0  0  0  0
 68161  1  0  0  0  0
 69162  1  0  0  0  0
 76163  1  0  0  0  0
 76164  1  0  0  0  0
 79165  1  0  0  0  0
 79166  1  0  0  0  0
 81167  1  0  0  0  0
 82168  1  0  0  0  0
 89169  1  0  0  0  0
 89170  1  0  0  0  0
 92171  1  0  0  0  0
 92172  1  0  0  0  0
 94173  1  0  0  0  0
 95174  1  0  0  0  0
 97175  1  0  0  0  0
101176  1  0  0  0  0
102177  1  0  0  0  0
105178  1  0  0  0  0
105179  1  0  0  0  0
106180  1  0  0  0  0
106181  1  0  0  0  0
106182  1  0  0  0  0
112183  1  0  0  0  0
113184  1  0  0  0  0
116185  1  0  0  0  0
116186  1  0  0  0  0
117187  1  0  0  0  0
117188  1  0  0  0  0
117189  1  0  0  0  0
121190  1  0  0  0  0
122191  1  0  0  0  0
M  END
