
  xtb     03082206183D
 energy: -260.828780525683 gnorm: 0.000509558724 xtb: 6.4.1 (unknown)
170187  0     0  0            999 V2000
   -7.2646   -2.5883   12.5736 C   0  0  0  0  0  0  0  0  0  0  0  0
   -5.7756   -2.2437   11.7852 S   0  0  0  0  0  0  0  0  0  0  0  0
   -6.4497   -2.6713   10.2245 C   0  0  0  0  0  0  0  0  0  0  0  0
   -7.7612   -3.0525   10.3598 C   0  0  0  0  0  0  0  0  0  0  0  0
   -8.2211   -3.0005   11.7032 C   0  0  0  0  0  0  0  0  0  0  0  0
   -9.6482   -3.3602   11.9714 C   0  0  0  0  0  0  0  0  0  0  0  0
   -9.9867   -3.4216   13.4565 C   0  0  0  0  0  0  0  0  0  0  0  0
   -9.9840   -4.6957   11.2780 C   0  0  0  0  0  0  0  0  0  0  0  0
   -9.3193   -4.8748    9.9012 C   0  0  0  0  0  0  0  0  0  0  0  0
   -8.7177   -3.5776    9.3453 C   0  0  0  0  0  0  0  0  0  0  0  0
   -5.6072   -2.5546    9.0772 C   0  0  0  0  0  0  0  0  0  0  0  0
   -4.2726   -2.2732    9.0865 C   0  0  0  0  0  0  0  0  0  0  0  0
   -3.6840   -2.1757    7.8019 C   0  0  0  0  0  0  0  0  0  0  0  0
   -2.3287   -1.9422    7.4876 C   0  0  0  0  0  0  0  0  0  0  0  0
   -1.3254   -1.6598    8.4909 C   0  0  0  0  0  0  0  0  0  0  0  0
   -0.0179   -2.0596    8.4866 C   0  0  0  0  0  0  0  0  0  0  0  0
    0.7923   -1.5465    9.5180 C   0  0  0  0  0  0  0  0  0  0  0  0
    0.1637   -0.6951   10.3797 C   0  0  0  0  0  0  0  0  0  0  0  0
    0.9280   -0.0007   11.7910 S   0  0  0  0  0  0  0  0  0  0  0  0
   -0.1573    1.4318   12.1211 C   0  0  0  0  0  0  0  0  0  0  0  0
    0.0125    2.5283   11.0897 C   0  0  0  0  0  0  0  0  0  0  0  0
   -1.6578   -0.4987    9.9415 Se  0  0  0  0  0  2  0  0  0  0  0  0
   -2.0028   -1.9603    6.1336 C   0  0  0  0  0  0  0  0  0  0  0  0
   -2.9549   -2.1771    5.1102 C   0  0  0  0  0  0  0  0  0  0  0  0
   -4.3056   -2.4386    5.4225 C   0  0  0  0  0  0  0  0  0  0  0  0
   -5.2834   -2.7662    4.4073 C   0  0  0  0  0  0  0  0  0  0  0  0
   -6.6148   -2.4552    4.3909 C   0  0  0  0  0  0  0  0  0  0  0  0
   -7.3757   -3.0240    3.3502 C   0  0  0  0  0  0  0  0  0  0  0  0
   -6.6823   -3.8406    2.5037 C   0  0  0  0  0  0  0  0  0  0  0  0
   -7.3980   -4.6476    1.1239 S   0  0  0  0  0  0  0  0  0  0  0  0
   -6.2897   -6.0876    0.8895 C   0  0  0  0  0  0  0  0  0  0  0  0
   -5.1062   -5.7896   -0.0092 C   0  0  0  0  0  0  0  0  0  0  0  0
   -4.8571   -3.8951    2.9545 Se  0  0  0  0  0  2  0  0  0  0  0  0
   -4.6296   -2.4112    6.7753 C   0  0  0  0  0  0  0  0  0  0  0  0
   -6.2120   -2.7176    7.4405 S   0  0  0  0  0  0  0  0  0  0  0  0
   -2.3825   -2.0417    3.8250 C   0  0  0  0  0  0  0  0  0  0  0  0
   -1.0459   -1.7659    3.8391 C   0  0  0  0  0  0  0  0  0  0  0  0
   -0.4180   -1.6574    5.4648 S   0  0  0  0  0  0  0  0  0  0  0  0
   -0.2384   -1.5933    2.6755 C   0  0  0  0  0  0  0  0  0  0  0  0
   -0.7171   -1.3625    1.4204 C   0  0  0  0  0  0  0  0  0  0  0  0
    0.2830   -1.3021    0.4227 C   0  0  0  0  0  0  0  0  0  0  0  0
    0.1018   -1.1155   -0.9627 C   0  0  0  0  0  0  0  0  0  0  0  0
   -1.2154   -1.0551   -1.5598 C   0  0  0  0  0  0  0  0  0  0  0  0
   -1.6290   -0.2584   -2.5907 C   0  0  0  0  0  0  0  0  0  0  0  0
   -2.9802   -0.3843   -2.9714 C   0  0  0  0  0  0  0  0  0  0  0  0
   -3.6984   -1.3078   -2.2708 C   0  0  0  0  0  0  0  0  0  0  0  0
   -5.3828   -1.6858   -2.5510 S   0  0  0  0  0  0  0  0  0  0  0  0
   -5.9063   -2.1339   -0.8567 C   0  0  0  0  0  0  0  0  0  0  0  0
   -5.9037   -0.9475    0.0834 C   0  0  0  0  0  0  0  0  0  0  0  0
   -2.6184   -2.1957   -1.0079 Se  0  0  0  0  0  2  0  0  0  0  0  0
    1.2682   -0.9873   -1.7127 C   0  0  0  0  0  0  0  0  0  0  0  0
    2.5678   -1.0912   -1.1614 C   0  0  0  0  0  0  0  0  0  0  0  0
    2.7403   -1.3877    0.2081 C   0  0  0  0  0  0  0  0  0  0  0  0
    4.0451   -1.6437    0.7713 C   0  0  0  0  0  0  0  0  0  0  0  0
    5.0903   -2.2975    0.1767 C   0  0  0  0  0  0  0  0  0  0  0  0
    6.2670   -2.4133    0.9391 C   0  0  0  0  0  0  0  0  0  0  0  0
    6.2051   -1.8537    2.1847 C   0  0  0  0  0  0  0  0  0  0  0  0
    7.5256   -1.9248    3.3308 S   0  0  0  0  0  0  0  0  0  0  0  0
    6.8647   -0.9765    4.7447 C   0  0  0  0  0  0  0  0  0  0  0  0
    6.9400    0.5202    4.5214 C   0  0  0  0  0  0  0  0  0  0  0  0
    4.5120   -1.0942    2.5125 Se  0  0  0  0  0  2  0  0  0  0  0  0
    1.5773   -1.4448    0.9710 C   0  0  0  0  0  0  0  0  0  0  0  0
    1.5058   -1.7182    2.6942 S   0  0  0  0  0  0  0  0  0  0  0  0
    3.5742   -0.8302   -2.1306 C   0  0  0  0  0  0  0  0  0  0  0  0
    3.0927   -0.6072   -3.3815 C   0  0  0  0  0  0  0  0  0  0  0  0
    1.3390   -0.6802   -3.4244 S   0  0  0  0  0  0  0  0  0  0  0  0
    3.7731   -0.2011   -4.5833 C   0  0  0  0  0  0  0  0  0  0  0  0
    3.0815    1.1844   -5.3955 S   0  0  0  0  0  0  0  0  0  0  0  0
    4.3195    1.1790   -6.6222 C   0  0  0  0  0  0  0  0  0  0  0  0
    5.1986    0.1474   -6.3893 C   0  0  0  0  0  0  0  0  0  0  0  0
    4.8794   -0.6482   -5.2548 C   0  0  0  0  0  0  0  0  0  0  0  0
    5.7062   -1.8906   -5.0936 C   0  0  0  0  0  0  0  0  0  0  0  0
    5.3556   -2.8013   -3.9261 C   0  0  0  0  0  0  0  0  0  0  0  0
    7.2004   -1.5182   -5.0611 C   0  0  0  0  0  0  0  0  0  0  0  0
    7.5582   -0.3879   -6.0371 C   0  0  0  0  0  0  0  0  0  0  0  0
    6.4753   -0.1624   -7.0983 C   0  0  0  0  0  0  0  0  0  0  0  0
    4.3073    2.1337   -7.6931 C   0  0  0  0  0  0  0  0  0  0  0  0
    5.0569    1.7026   -9.2118 S   0  0  0  0  0  0  0  0  0  0  0  0
    4.6960    3.2615   -9.8890 C   0  0  0  0  0  0  0  0  0  0  0  0
    4.0485    4.0582   -8.9834 C   0  0  0  0  0  0  0  0  0  0  0  0
    3.7859    3.4080   -7.7517 C   0  0  0  0  0  0  0  0  0  0  0  0
    2.9769    4.0878   -6.6879 C   0  0  0  0  0  0  0  0  0  0  0  0
    1.5017    3.6905   -6.8324 C   0  0  0  0  0  0  0  0  0  0  0  0
    3.1565    5.6058   -6.7961 C   0  0  0  0  0  0  0  0  0  0  0  0
    2.8278    6.1102   -8.1969 C   0  0  0  0  0  0  0  0  0  0  0  0
    3.7927    5.5160   -9.2185 C   0  0  0  0  0  0  0  0  0  0  0  0
    5.1203    3.5929  -11.2316 C   0  0  0  0  0  0  0  0  0  0  0  0
    6.8285    3.7526  -11.5508 S   0  0  0  0  0  0  0  0  0  0  0  0
    6.5104    4.1731  -13.1837 C   0  0  0  0  0  0  0  0  0  0  0  0
    5.1839    4.1779  -13.4741 C   0  0  0  0  0  0  0  0  0  0  0  0
    4.3742    3.8303  -12.3547 C   0  0  0  0  0  0  0  0  0  0  0  0
    2.8725    3.7465  -12.4415 C   0  0  0  0  0  0  0  0  0  0  0  0
    2.3204    2.4853  -11.7743 C   0  0  0  0  0  0  0  0  0  0  0  0
    2.4186    3.7930  -13.9052 C   0  0  0  0  0  0  0  0  0  0  0  0
    3.1436    4.8842  -14.6829 C   0  0  0  0  0  0  0  0  0  0  0  0
    4.6151    4.5083  -14.8184 C   0  0  0  0  0  0  0  0  0  0  0  0
   -7.3278   -2.4566   13.6347 H   0  0  0  0  0  0  0  0  0  0  0  0
  -10.2642   -2.5770   11.5089 H   0  0  0  0  0  0  0  0  0  0  0  0
   -9.8419   -2.4503   13.9233 H   0  0  0  0  0  0  0  0  0  0  0  0
  -11.0253   -3.7154   13.5911 H   0  0  0  0  0  0  0  0  0  0  0  0
   -9.3549   -4.1487   13.9621 H   0  0  0  0  0  0  0  0  0  0  0  0
  -11.0691   -4.7614   11.1808 H   0  0  0  0  0  0  0  0  0  0  0  0
   -9.6685   -5.5095   11.9336 H   0  0  0  0  0  0  0  0  0  0  0  0
  -10.0436   -5.2672    9.1863 H   0  0  0  0  0  0  0  0  0  0  0  0
   -8.5106   -5.6041    9.9805 H   0  0  0  0  0  0  0  0  0  0  0  0
   -9.5098   -2.8432    9.1732 H   0  0  0  0  0  0  0  0  0  0  0  0
   -8.2311   -3.7783    8.3920 H   0  0  0  0  0  0  0  0  0  0  0  0
   -3.7264   -2.1729   10.0096 H   0  0  0  0  0  0  0  0  0  0  0  0
    0.3696   -2.7487    7.7555 H   0  0  0  0  0  0  0  0  0  0  0  0
    1.8343   -1.7957    9.6192 H   0  0  0  0  0  0  0  0  0  0  0  0
    0.1292    1.7726   13.1154 H   0  0  0  0  0  0  0  0  0  0  0  0
   -1.1857    1.0582   12.1520 H   0  0  0  0  0  0  0  0  0  0  0  0
   -0.2596    2.1681   10.0979 H   0  0  0  0  0  0  0  0  0  0  0  0
    1.0455    2.8675   11.0630 H   0  0  0  0  0  0  0  0  0  0  0  0
   -0.6289    3.3715   11.3375 H   0  0  0  0  0  0  0  0  0  0  0  0
   -7.0592   -1.7972    5.1180 H   0  0  0  0  0  0  0  0  0  0  0  0
   -8.4317   -2.8491    3.2378 H   0  0  0  0  0  0  0  0  0  0  0  0
   -5.9720   -6.4091    1.8829 H   0  0  0  0  0  0  0  0  0  0  0  0
   -6.9279   -6.8538    0.4497 H   0  0  0  0  0  0  0  0  0  0  0  0
   -4.4595   -5.0293    0.4350 H   0  0  0  0  0  0  0  0  0  0  0  0
   -5.4431   -5.4395   -0.9823 H   0  0  0  0  0  0  0  0  0  0  0  0
   -4.5176   -6.6940   -0.1487 H   0  0  0  0  0  0  0  0  0  0  0  0
   -2.9388   -2.1216    2.9071 H   0  0  0  0  0  0  0  0  0  0  0  0
   -1.7606   -1.1828    1.2329 H   0  0  0  0  0  0  0  0  0  0  0  0
   -0.9855    0.4784   -3.0404 H   0  0  0  0  0  0  0  0  0  0  0  0
   -3.4267    0.2224   -3.7401 H   0  0  0  0  0  0  0  0  0  0  0  0
   -5.2255   -2.9159   -0.5086 H   0  0  0  0  0  0  0  0  0  0  0  0
   -6.9054   -2.5517   -0.9689 H   0  0  0  0  0  0  0  0  0  0  0  0
   -6.5758   -0.1718   -0.2755 H   0  0  0  0  0  0  0  0  0  0  0  0
   -4.9010   -0.5272    0.1672 H   0  0  0  0  0  0  0  0  0  0  0  0
   -6.2293   -1.2656    1.0728 H   0  0  0  0  0  0  0  0  0  0  0  0
    4.9980   -2.7492   -0.7965 H   0  0  0  0  0  0  0  0  0  0  0  0
    7.1490   -2.9148    0.5795 H   0  0  0  0  0  0  0  0  0  0  0  0
    7.4778   -1.2811    5.5924 H   0  0  0  0  0  0  0  0  0  0  0  0
    5.8357   -1.3121    4.9046 H   0  0  0  0  0  0  0  0  0  0  0  0
    6.3466    0.8089    3.6533 H   0  0  0  0  0  0  0  0  0  0  0  0
    7.9697    0.8286    4.3559 H   0  0  0  0  0  0  0  0  0  0  0  0
    6.5510    1.0425    5.3927 H   0  0  0  0  0  0  0  0  0  0  0  0
    4.6143   -0.7365   -1.8804 H   0  0  0  0  0  0  0  0  0  0  0  0
    5.5327   -2.4645   -6.0152 H   0  0  0  0  0  0  0  0  0  0  0  0
    4.2911   -3.0208   -3.9091 H   0  0  0  0  0  0  0  0  0  0  0  0
    5.6371   -2.3447   -2.9823 H   0  0  0  0  0  0  0  0  0  0  0  0
    5.8993   -3.7394   -4.0222 H   0  0  0  0  0  0  0  0  0  0  0  0
    7.7772   -2.4153   -5.2936 H   0  0  0  0  0  0  0  0  0  0  0  0
    7.4639   -1.2167   -4.0454 H   0  0  0  0  0  0  0  0  0  0  0  0
    8.5074   -0.6033   -6.5291 H   0  0  0  0  0  0  0  0  0  0  0  0
    7.6793    0.5468   -5.4854 H   0  0  0  0  0  0  0  0  0  0  0  0
    6.7748    0.6563   -7.7514 H   0  0  0  0  0  0  0  0  0  0  0  0
    6.3598   -1.0572   -7.7163 H   0  0  0  0  0  0  0  0  0  0  0  0
    3.3203    3.7640   -5.6994 H   0  0  0  0  0  0  0  0  0  0  0  0
    0.8972    4.2306   -6.1075 H   0  0  0  0  0  0  0  0  0  0  0  0
    1.1355    3.9114   -7.8314 H   0  0  0  0  0  0  0  0  0  0  0  0
    1.3740    2.6255   -6.6600 H   0  0  0  0  0  0  0  0  0  0  0  0
    2.5128    6.0957   -6.0631 H   0  0  0  0  0  0  0  0  0  0  0  0
    4.1923    5.8607   -6.5583 H   0  0  0  0  0  0  0  0  0  0  0  0
    1.8022    5.8438   -8.4537 H   0  0  0  0  0  0  0  0  0  0  0  0
    2.8994    7.1995   -8.2246 H   0  0  0  0  0  0  0  0  0  0  0  0
    4.7577    6.0306   -9.1440 H   0  0  0  0  0  0  0  0  0  0  0  0
    3.4259    5.6788  -10.2335 H   0  0  0  0  0  0  0  0  0  0  0  0
    7.3296    4.3936  -13.8392 H   0  0  0  0  0  0  0  0  0  0  0  0
    2.4497    4.6205  -11.9271 H   0  0  0  0  0  0  0  0  0  0  0  0
    1.2525    2.4043  -11.9666 H   0  0  0  0  0  0  0  0  0  0  0  0
    2.8124    1.6011  -12.1739 H   0  0  0  0  0  0  0  0  0  0  0  0
    2.4727    2.5072  -10.6997 H   0  0  0  0  0  0  0  0  0  0  0  0
    1.3400    3.9596  -13.9355 H   0  0  0  0  0  0  0  0  0  0  0  0
    2.6209    2.8271  -14.3742 H   0  0  0  0  0  0  0  0  0  0  0  0
    3.0521    5.8356  -14.1535 H   0  0  0  0  0  0  0  0  0  0  0  0
    2.6985    5.0036  -15.6723 H   0  0  0  0  0  0  0  0  0  0  0  0
    4.7069    3.6346  -15.4721 H   0  0  0  0  0  0  0  0  0  0  0  0
    5.1866    5.3196  -15.2747 H   0  0  0  0  0  0  0  0  0  0  0  0
  1  2  1  0  0  0  0
  2  3  1  0  0  0  0
  3  4  2  0  0  0  0
  4  5  1  0  0  0  0
  5  6  1  0  0  0  0
  6  7  1  0  0  0  0
  6  8  1  0  0  0  0
  8  9  1  0  0  0  0
  9 10  1  0  0  0  0
  3 11  1  0  0  0  0
 11 12  2  0  0  0  0
 12 13  1  0  0  0  0
 13 14  2  0  0  0  0
 14 15  1  0  0  0  0
 15 16  2  0  0  0  0
 16 17  1  0  0  0  0
 17 18  2  0  0  0  0
 18 19  1  0  0  0  0
 19 20  1  0  0  0  0
 20 21  1  0  0  0  0
 18 22  1  0  0  0  0
 14 23  1  0  0  0  0
 23 24  2  0  0  0  0
 24 25  1  0  0  0  0
 25 26  1  0  0  0  0
 26 27  2  0  0  0  0
 27 28  1  0  0  0  0
 28 29  2  0  0  0  0
 29 30  1  0  0  0  0
 30 31  1  0  0  0  0
 31 32  1  0  0  0  0
 29 33  1  0  0  0  0
 25 34  2  0  0  0  0
 34 35  1  0  0  0  0
 24 36  1  0  0  0  0
 36 37  2  0  0  0  0
 37 38  1  0  0  0  0
 37 39  1  0  0  0  0
 39 40  2  0  0  0  0
 40 41  1  0  0  0  0
 41 42  2  0  0  0  0
 42 43  1  0  0  0  0
 43 44  2  0  0  0  0
 44 45  1  0  0  0  0
 45 46  2  0  0  0  0
 46 47  1  0  0  0  0
 47 48  1  0  0  0  0
 48 49  1  0  0  0  0
 46 50  1  0  0  0  0
 42 51  1  0  0  0  0
 51 52  2  0  0  0  0
 52 53  1  0  0  0  0
 53 54  1  0  0  0  0
 54 55  2  0  0  0  0
 55 56  1  0  0  0  0
 56 57  2  0  0  0  0
 57 58  1  0  0  0  0
 58 59  1  0  0  0  0
 59 60  1  0  0  0  0
 57 61  1  0  0  0  0
 53 62  2  0  0  0  0
 62 63  1  0  0  0  0
 52 64  1  0  0  0  0
 64 65  2  0  0  0  0
 65 66  1  0  0  0  0
 65 67  1  0  0  0  0
 67 68  1  0  0  0  0
 68 69  1  0  0  0  0
 69 70  2  0  0  0  0
 70 71  1  0  0  0  0
 71 72  1  0  0  0  0
 72 73  1  0  0  0  0
 72 74  1  0  0  0  0
 74 75  1  0  0  0  0
 75 76  1  0  0  0  0
 69 77  1  0  0  0  0
 77 78  1  0  0  0  0
 78 79  1  0  0  0  0
 79 80  2  0  0  0  0
 80 81  1  0  0  0  0
 81 82  1  0  0  0  0
 82 83  1  0  0  0  0
 82 84  1  0  0  0  0
 84 85  1  0  0  0  0
 85 86  1  0  0  0  0
 79 87  1  0  0  0  0
 87 88  1  0  0  0  0
 88 89  1  0  0  0  0
 89 90  2  0  0  0  0
 90 91  1  0  0  0  0
 91 92  1  0  0  0  0
 92 93  1  0  0  0  0
 92 94  1  0  0  0  0
 94 95  1  0  0  0  0
 95 96  1  0  0  0  0
  5  1  2  0  0  0  0
 35 11  1  0  0  0  0
 63 39  1  0  0  0  0
 71 67  2  0  0  0  0
 81 77  2  0  0  0  0
 91 87  2  0  0  0  0
 10  4  1  0  0  0  0
 34 13  1  0  0  0  0
 62 41  1  0  0  0  0
 76 70  1  0  0  0  0
 86 80  1  0  0  0  0
 96 90  1  0  0  0  0
 22 15  1  0  0  0  0
 38 23  1  0  0  0  0
 50 43  1  0  0  0  0
 66 51  1  0  0  0  0
 33 26  1  0  0  0  0
 61 54  1  0  0  0  0
  1 97  1  0  0  0  0
  6 98  1  0  0  0  0
  7 99  1  0  0  0  0
  7100  1  0  0  0  0
  7101  1  0  0  0  0
  8102  1  0  0  0  0
  8103  1  0  0  0  0
  9104  1  0  0  0  0
  9105  1  0  0  0  0
 10106  1  0  0  0  0
 10107  1  0  0  0  0
 12108  1  0  0  0  0
 16109  1  0  0  0  0
 17110  1  0  0  0  0
 20111  1  0  0  0  0
 20112  1  0  0  0  0
 21113  1  0  0  0  0
 21114  1  0  0  0  0
 21115  1  0  0  0  0
 27116  1  0  0  0  0
 28117  1  0  0  0  0
 31118  1  0  0  0  0
 31119  1  0  0  0  0
 32120  1  0  0  0  0
 32121  1  0  0  0  0
 32122  1  0  0  0  0
 36123  1  0  0  0  0
 40124  1  0  0  0  0
 44125  1  0  0  0  0
 45126  1  0  0  0  0
 48127  1  0  0  0  0
 48128  1  0  0  0  0
 49129  1  0  0  0  0
 49130  1  0  0  0  0
 49131  1  0  0  0  0
 55132  1  0  0  0  0
 56133  1  0  0  0  0
 59134  1  0  0  0  0
 59135  1  0  0  0  0
 60136  1  0  0  0  0
 60137  1  0  0  0  0
 60138  1  0  0  0  0
 64139  1  0  0  0  0
 72140  1  0  0  0  0
 73141  1  0  0  0  0
 73142  1  0  0  0  0
 73143  1  0  0  0  0
 74144  1  0  0  0  0
 74145  1  0  0  0  0
 75146  1  0  0  0  0
 75147  1  0  0  0  0
 76148  1  0  0  0  0
 76149  1  0  0  0  0
 82150  1  0  0  0  0
 83151  1  0  0  0  0
 83152  1  0  0  0  0
 83153  1  0  0  0  0
 84154  1  0  0  0  0
 84155  1  0  0  0  0
 85156  1  0  0  0  0
 85157  1  0  0  0  0
 86158  1  0  0  0  0
 86159  1  0  0  0  0
 89160  1  0  0  0  0
 92161  1  0  0  0  0
 93162  1  0  0  0  0
 93163  1  0  0  0  0
 93164  1  0  0  0  0
 94165  1  0  0  0  0
 94166  1  0  0  0  0
 95167  1  0  0  0  0
 95168  1  0  0  0  0
 96169  1  0  0  0  0
 96170  1  0  0  0  0
M  END
