
  xtb     03072223523D
 energy: -218.470584433422 gnorm: 0.001760718538 xtb: 6.4.1 (unknown)
121135  0     0  0            999 V2000
    2.4090   -3.6216    4.5690 C   0  0  0  0  0  0  0  0  0  0  0  0
    2.8137   -3.3102    6.2228 S   0  0  0  0  0  0  0  0  0  0  0  0
    4.4582   -3.1085    5.7975 C   0  0  0  0  0  0  0  0  0  0  0  0
    4.6621   -3.2680    4.4375 C   0  0  0  0  0  0  0  0  0  0  0  0
    3.4847   -3.5760    3.7343 C   0  0  0  0  0  0  0  0  0  0  0  0
    6.1031   -3.0970    4.1838 C   0  0  0  0  0  0  0  0  0  0  0  0
    6.7473   -3.4037    3.2095 O   0  0  0  0  0  0  0  0  0  0  0  0
    6.6626   -2.6453    5.5402 C   0  0  0  0  0  0  0  0  0  0  0  0
    5.6810   -2.7511    6.4680 C   0  0  0  0  0  0  0  0  0  0  0  0
    8.0188   -2.1753    5.6645 C   0  0  0  0  0  0  0  0  0  0  0  0
    8.5467   -1.3178    4.7696 C   0  0  0  0  0  0  0  0  0  0  0  0
    7.7626   -0.7043    3.7358 C   0  0  0  0  0  0  0  0  0  0  0  0
    8.1416   -0.2754    2.5027 C   0  0  0  0  0  0  0  0  0  0  0  0
    7.0605    0.1335    1.6746 C   0  0  0  0  0  0  0  0  0  0  0  0
    7.0914    0.5185    0.3179 C   0  0  0  0  0  0  0  0  0  0  0  0
    8.3162    0.5083   -0.4515 C   0  0  0  0  0  0  0  0  0  0  0  0
    9.3040   -0.4362   -0.4311 C   0  0  0  0  0  0  0  0  0  0  0  0
   10.4072   -0.1958   -1.2729 C   0  0  0  0  0  0  0  0  0  0  0  0
   10.3409    0.9593   -1.9988 C   0  0  0  0  0  0  0  0  0  0  0  0
   11.5530    1.4293   -3.1692 S   0  0  0  0  0  0  0  0  0  0  0  0
   11.1159    3.1768   -3.4766 C   0  0  0  0  0  0  0  0  0  0  0  0
   11.5127    4.0791   -2.3256 C   0  0  0  0  0  0  0  0  0  0  0  0
    8.7316    1.8860   -1.6702 Se  0  0  0  0  0  2  0  0  0  0  0  0
    5.8687    0.8653   -0.2508 C   0  0  0  0  0  0  0  0  0  0  0  0
    4.6334    0.7682    0.4303 C   0  0  0  0  0  0  0  0  0  0  0  0
    4.5898    0.3133    1.7641 C   0  0  0  0  0  0  0  0  0  0  0  0
    3.3499    0.0173    2.4474 C   0  0  0  0  0  0  0  0  0  0  0  0
    3.0581    0.1601    3.7755 C   0  0  0  0  0  0  0  0  0  0  0  0
    1.7908   -0.3009    4.1853 C   0  0  0  0  0  0  0  0  0  0  0  0
    1.0286   -0.8580    3.1999 C   0  0  0  0  0  0  0  0  0  0  0  0
   -0.5497   -1.5721    3.4485 S   0  0  0  0  0  0  0  0  0  0  0  0
   -1.2766   -1.3893    1.7806 C   0  0  0  0  0  0  0  0  0  0  0  0
   -1.5492    0.0594    1.4332 C   0  0  0  0  0  0  0  0  0  0  0  0
    1.9405   -0.8639    1.5538 Se  0  0  0  0  0  2  0  0  0  0  0  0
    5.8222    0.0604    2.3570 C   0  0  0  0  0  0  0  0  0  0  0  0
    6.0336   -0.4851    3.9921 S   0  0  0  0  0  0  0  0  0  0  0  0
    3.5457    1.1476   -0.3877 C   0  0  0  0  0  0  0  0  0  0  0  0
    3.9024    1.4836   -1.6639 C   0  0  0  0  0  0  0  0  0  0  0  0
    5.6338    1.3749   -1.9028 S   0  0  0  0  0  0  0  0  0  0  0  0
    3.0117    1.8278   -2.7179 C   0  0  0  0  0  0  0  0  0  0  0  0
    3.5848    2.2892   -4.3095 S   0  0  0  0  0  0  0  0  0  0  0  0
    1.9778    2.3980   -4.8822 C   0  0  0  0  0  0  0  0  0  0  0  0
    1.0539    2.1005   -3.8866 C   0  0  0  0  0  0  0  0  0  0  0  0
    1.6297    1.7873   -2.6601 C   0  0  0  0  0  0  0  0  0  0  0  0
   -0.2894    2.2207   -4.4731 C   0  0  0  0  0  0  0  0  0  0  0  0
   -1.3548    2.2702   -3.9099 O   0  0  0  0  0  0  0  0  0  0  0  0
   -0.0215    2.4676   -5.9567 C   0  0  0  0  0  0  0  0  0  0  0  0
    1.3152    2.6507   -6.1301 C   0  0  0  0  0  0  0  0  0  0  0  0
   -1.1048    2.5472   -6.8907 C   0  0  0  0  0  0  0  0  0  0  0  0
   -2.1572    1.6995   -6.8409 C   0  0  0  0  0  0  0  0  0  0  0  0
   -2.1901    0.5006   -6.0674 C   0  0  0  0  0  0  0  0  0  0  0  0
   -0.6976   -0.3323   -5.6277 S   0  0  0  0  0  0  0  0  0  0  0  0
   -1.5814   -1.5198   -4.7828 C   0  0  0  0  0  0  0  0  0  0  0  0
   -2.9520   -1.2923   -4.8400 C   0  0  0  0  0  0  0  0  0  0  0  0
   -3.2997   -0.1692   -5.5903 C   0  0  0  0  0  0  0  0  0  0  0  0
   -3.6108   -2.3646   -4.0699 C   0  0  0  0  0  0  0  0  0  0  0  0
   -4.7837   -2.6247   -3.9851 O   0  0  0  0  0  0  0  0  0  0  0  0
   -2.4500   -3.1847   -3.5082 C   0  0  0  0  0  0  0  0  0  0  0  0
   -1.2865   -2.6881   -4.0051 C   0  0  0  0  0  0  0  0  0  0  0  0
   -2.6742   -4.3568   -2.7132 C   0  0  0  0  0  0  0  0  0  0  0  0
   -3.5488   -4.4134   -1.6843 C   0  0  0  0  0  0  0  0  0  0  0  0
   -4.1518   -3.2932   -1.0468 C   0  0  0  0  0  0  0  0  0  0  0  0
   -3.5030   -1.6658   -1.2326 S   0  0  0  0  0  0  0  0  0  0  0  0
   -4.6736   -1.0515   -0.1517 C   0  0  0  0  0  0  0  0  0  0  0  0
   -5.5178   -2.0483    0.3296 C   0  0  0  0  0  0  0  0  0  0  0  0
   -5.2130   -3.3160   -0.1577 C   0  0  0  0  0  0  0  0  0  0  0  0
   -6.4611   -1.4129    1.2719 C   0  0  0  0  0  0  0  0  0  0  0  0
   -7.2261   -1.9450    2.0359 O   0  0  0  0  0  0  0  0  0  0  0  0
   -6.1241    0.0710    1.1915 C   0  0  0  0  0  0  0  0  0  0  0  0
   -5.0279    0.2230    0.3933 C   0  0  0  0  0  0  0  0  0  0  0  0
   -6.7757    1.0704    1.9755 C   0  0  0  0  0  0  0  0  0  0  0  0
   -8.0910    1.0905    2.2990 C   0  0  0  0  0  0  0  0  0  0  0  0
   -9.1048    0.2977    1.6929 C   0  0  0  0  0  0  0  0  0  0  0  0
  -10.6340    0.0741    2.5224 S   0  0  0  0  0  0  0  0  0  0  0  0
  -11.2350   -0.8535    1.2238 C   0  0  0  0  0  0  0  0  0  0  0  0
  -10.3101   -0.9638    0.1908 C   0  0  0  0  0  0  0  0  0  0  0  0
   -9.1097   -0.3118    0.4465 C   0  0  0  0  0  0  0  0  0  0  0  0
  -10.9406   -1.7594   -0.8884 C   0  0  0  0  0  0  0  0  0  0  0  0
  -10.4682   -2.0601   -1.9556 O   0  0  0  0  0  0  0  0  0  0  0  0
  -12.3164   -2.0946   -0.3485 C   0  0  0  0  0  0  0  0  0  0  0  0
  -12.4464   -1.5408    0.8902 C   0  0  0  0  0  0  0  0  0  0  0  0
  -13.3154   -2.8610   -1.0365 C   0  0  0  0  0  0  0  0  0  0  0  0
  -13.1686   -3.3957   -2.2502 C   0  0  0  0  0  0  0  0  0  0  0  0
    1.3824   -3.8114    4.3248 H   0  0  0  0  0  0  0  0  0  0  0  0
    3.4324   -3.7399    2.6729 H   0  0  0  0  0  0  0  0  0  0  0  0
    5.7611   -2.5249    7.5158 H   0  0  0  0  0  0  0  0  0  0  0  0
    8.6154   -2.5440    6.4875 H   0  0  0  0  0  0  0  0  0  0  0  0
    9.5955   -1.0582    4.8044 H   0  0  0  0  0  0  0  0  0  0  0  0
    9.1649   -0.2868    2.1743 H   0  0  0  0  0  0  0  0  0  0  0  0
    9.2227   -1.3336    0.1590 H   0  0  0  0  0  0  0  0  0  0  0  0
   11.2428   -0.8702   -1.3464 H   0  0  0  0  0  0  0  0  0  0  0  0
   11.6492    3.4397   -4.3895 H   0  0  0  0  0  0  0  0  0  0  0  0
   10.0379    3.2099   -3.6667 H   0  0  0  0  0  0  0  0  0  0  0  0
   10.9839    3.7949   -1.4157 H   0  0  0  0  0  0  0  0  0  0  0  0
   12.5822    4.0101   -2.1414 H   0  0  0  0  0  0  0  0  0  0  0  0
   11.2617    5.1112   -2.5614 H   0  0  0  0  0  0  0  0  0  0  0  0
    3.7241    0.6575    4.4600 H   0  0  0  0  0  0  0  0  0  0  0  0
    1.4378   -0.2090    5.1980 H   0  0  0  0  0  0  0  0  0  0  0  0
   -2.1962   -1.9728    1.8087 H   0  0  0  0  0  0  0  0  0  0  0  0
   -0.5808   -1.8516    1.0725 H   0  0  0  0  0  0  0  0  0  0  0  0
   -2.2790    0.4833    2.1192 H   0  0  0  0  0  0  0  0  0  0  0  0
   -1.9332    0.1276    0.4178 H   0  0  0  0  0  0  0  0  0  0  0  0
   -0.6326    0.6469    1.4950 H   0  0  0  0  0  0  0  0  0  0  0  0
    2.5310    1.2102   -0.0363 H   0  0  0  0  0  0  0  0  0  0  0  0
    1.0777    1.5143   -1.7804 H   0  0  0  0  0  0  0  0  0  0  0  0
    1.8135    2.8752   -7.0555 H   0  0  0  0  0  0  0  0  0  0  0  0
   -1.0862    3.3412   -7.6247 H   0  0  0  0  0  0  0  0  0  0  0  0
   -3.0345    1.8931   -7.4441 H   0  0  0  0  0  0  0  0  0  0  0  0
   -4.3051    0.1748   -5.7518 H   0  0  0  0  0  0  0  0  0  0  0  0
   -0.2982   -3.0663   -3.8161 H   0  0  0  0  0  0  0  0  0  0  0  0
   -2.1302   -5.2497   -2.9926 H   0  0  0  0  0  0  0  0  0  0  0  0
   -3.7822   -5.3723   -1.2399 H   0  0  0  0  0  0  0  0  0  0  0  0
   -5.7461   -4.2153    0.0925 H   0  0  0  0  0  0  0  0  0  0  0  0
   -4.5324    1.1491    0.1635 H   0  0  0  0  0  0  0  0  0  0  0  0
   -6.1419    1.8604    2.3598 H   0  0  0  0  0  0  0  0  0  0  0  0
   -8.4304    1.7973    3.0452 H   0  0  0  0  0  0  0  0  0  0  0  0
   -8.2875   -0.2487   -0.2433 H   0  0  0  0  0  0  0  0  0  0  0  0
  -13.3115   -1.6012    1.5261 H   0  0  0  0  0  0  0  0  0  0  0  0
  -14.2448   -2.9909   -0.4931 H   0  0  0  0  0  0  0  0  0  0  0  0
  -12.2564   -3.2827   -2.8086 H   0  0  0  0  0  0  0  0  0  0  0  0
  -13.9605   -3.9599   -2.7125 H   0  0  0  0  0  0  0  0  0  0  0  0
  1  2  1  0  0  0  0
  2  3  1  0  0  0  0
  3  4  2  0  0  0  0
  4  5  1  0  0  0  0
  4  6  1  0  0  0  0
  6  7  2  0  0  0  0
  6  8  1  0  0  0  0
  8  9  2  0  0  0  0
  8 10  1  0  0  0  0
 10 11  2  0  0  0  0
 11 12  1  0  0  0  0
 12 13  2  0  0  0  0
 13 14  1  0  0  0  0
 14 15  2  0  0  0  0
 15 16  1  0  0  0  0
 16 17  2  0  0  0  0
 17 18  1  0  0  0  0
 18 19  2  0  0  0  0
 19 20  1  0  0  0  0
 20 21  1  0  0  0  0
 21 22  1  0  0  0  0
 19 23  1  0  0  0  0
 15 24  1  0  0  0  0
 24 25  2  0  0  0  0
 25 26  1  0  0  0  0
 26 27  1  0  0  0  0
 27 28  2  0  0  0  0
 28 29  1  0  0  0  0
 29 30  2  0  0  0  0
 30 31  1  0  0  0  0
 31 32  1  0  0  0  0
 32 33  1  0  0  0  0
 30 34  1  0  0  0  0
 26 35  2  0  0  0  0
 35 36  1  0  0  0  0
 25 37  1  0  0  0  0
 37 38  2  0  0  0  0
 38 39  1  0  0  0  0
 38 40  1  0  0  0  0
 40 41  1  0  0  0  0
 41 42  1  0  0  0  0
 42 43  2  0  0  0  0
 43 44  1  0  0  0  0
 43 45  1  0  0  0  0
 45 46  2  0  0  0  0
 45 47  1  0  0  0  0
 47 48  2  0  0  0  0
 47 49  1  0  0  0  0
 49 50  2  0  0  0  0
 50 51  1  0  0  0  0
 51 52  1  0  0  0  0
 52 53  1  0  0  0  0
 53 54  2  0  0  0  0
 54 55  1  0  0  0  0
 54 56  1  0  0  0  0
 56 57  2  0  0  0  0
 56 58  1  0  0  0  0
 58 59  2  0  0  0  0
 58 60  1  0  0  0  0
 60 61  2  0  0  0  0
 61 62  1  0  0  0  0
 62 63  1  0  0  0  0
 63 64  1  0  0  0  0
 64 65  2  0  0  0  0
 65 66  1  0  0  0  0
 65 67  1  0  0  0  0
 67 68  2  0  0  0  0
 67 69  1  0  0  0  0
 69 70  2  0  0  0  0
 69 71  1  0  0  0  0
 71 72  2  0  0  0  0
 72 73  1  0  0  0  0
 73 74  1  0  0  0  0
 74 75  1  0  0  0  0
 75 76  2  0  0  0  0
 76 77  1  0  0  0  0
 76 78  1  0  0  0  0
 78 79  2  0  0  0  0
 78 80  1  0  0  0  0
 80 81  2  0  0  0  0
 80 82  1  0  0  0  0
 82 83  2  0  0  0  0
  5  1  2  0  0  0  0
 36 12  1  0  0  0  0
 44 40  2  0  0  0  0
 55 51  2  0  0  0  0
 66 62  2  0  0  0  0
 77 73  2  0  0  0  0
  9  3  1  0  0  0  0
 35 14  1  0  0  0  0
 48 42  1  0  0  0  0
 59 53  1  0  0  0  0
 70 64  1  0  0  0  0
 81 75  1  0  0  0  0
 23 16  1  0  0  0  0
 39 24  1  0  0  0  0
 34 27  1  0  0  0  0
  1 84  1  0  0  0  0
  5 85  1  0  0  0  0
  9 86  1  0  0  0  0
 10 87  1  0  0  0  0
 11 88  1  0  0  0  0
 13 89  1  0  0  0  0
 17 90  1  0  0  0  0
 18 91  1  0  0  0  0
 21 92  1  0  0  0  0
 21 93  1  0  0  0  0
 22 94  1  0  0  0  0
 22 95  1  0  0  0  0
 22 96  1  0  0  0  0
 28 97  1  0  0  0  0
 29 98  1  0  0  0  0
 32 99  1  0  0  0  0
 32100  1  0  0  0  0
 33101  1  0  0  0  0
 33102  1  0  0  0  0
 33103  1  0  0  0  0
 37104  1  0  0  0  0
 44105  1  0  0  0  0
 48106  1  0  0  0  0
 49107  1  0  0  0  0
 50108  1  0  0  0  0
 55109  1  0  0  0  0
 59110  1  0  0  0  0
 60111  1  0  0  0  0
 61112  1  0  0  0  0
 66113  1  0  0  0  0
 70114  1  0  0  0  0
 71115  1  0  0  0  0
 72116  1  0  0  0  0
 77117  1  0  0  0  0
 81118  1  0  0  0  0
 82119  1  0  0  0  0
 83120  1  0  0  0  0
 83121  1  0  0  0  0
M  END
