162

C          0.92650        3.87320       14.49250
S         -0.53750        3.44830       13.70720
C          0.32270        2.52150       12.50190
C          1.67790        2.55670       12.74930
C          2.01750        3.33290       13.88620
C          3.42810        3.52790       14.34710
C          4.39750        3.22030       13.21020
C          4.07770        1.84740       12.63370
C          2.71750        1.84900       11.92400
O          2.27240        0.52790       11.68500
C         -0.39100        1.93930       11.40650
S          0.41220        1.62660        9.90230
C         -1.05960        1.09090        9.15270
C         -2.12150        1.17370       10.03570
C         -1.73430        1.62950       11.31500
C         -2.69130        1.65190       12.46410
C         -3.82250        0.66150       12.20580
C         -4.49310        1.00420       10.88520
C         -3.54640        0.81170        9.69170
O         -4.02880        1.54580        8.57960
C         -0.97440        0.59470        7.81580
C         -1.94510        0.32480        6.89830
C         -1.44930       -0.15770        5.66130
C         -2.18850       -0.50240        4.50860
C         -3.63100       -0.55600        4.51210
C         -4.45140       -0.94320        5.53760
C         -5.83430       -0.90540        5.27920
C         -6.17860       -0.47030        4.03100
S         -7.82950       -0.26680        3.49080
C         -7.61580       -0.12650        1.68050
C         -7.28030       -1.45370        1.03120
Se        -4.65260       -0.05180        3.00800
C         -1.43620       -0.77070        3.36830
C         -0.02270       -0.79880        3.33450
C          0.71050       -0.58850        4.52320
C          2.14430       -0.74580        4.56140
C          2.89550       -1.64550        3.85300
C          4.28860       -1.57830        4.04020
C          4.70750       -0.61290        4.91050
S          6.38090       -0.39230        5.37100
C          6.33730        1.27680        6.11230
C          6.16550        2.36180        5.06920
Se         3.24700        0.32330        5.65440
C         -0.03680       -0.22420        5.64080
S          0.62720        0.23090        7.18350
C          0.47060       -0.99000        2.01790
C         -0.50890       -1.14400        1.08430
S         -2.11110       -1.08740        1.79600
C         -0.40930       -1.28360       -0.32830
C         -1.45460       -1.35960       -1.19950
C         -1.06620       -1.42640       -2.55700
C         -1.90840       -1.44250       -3.68860
C         -3.34030       -1.29600       -3.55880
C         -4.01650       -0.48840       -2.68540
C         -5.42090       -0.56740       -2.72370
C         -5.92280       -1.45340       -3.63430
S         -7.62840       -1.76580       -3.85290
C         -7.56510       -2.94930       -5.24690
C         -8.96380       -3.37470       -5.64170
Se        -4.54540       -2.30040       -4.60480
C         -1.27250       -1.58310       -4.91540
C          0.13190       -1.64650       -5.06440
C          0.98000       -1.55730       -3.93830
C          2.42140       -1.53430       -4.05650
C          3.33730       -2.06440       -3.18940
C          4.69300       -1.87990       -3.52270
C          4.91780       -1.17410       -4.66940
S          6.51160       -0.81960       -5.30150
C          6.17920       -0.61930       -7.09240
C          5.79650        0.80040       -7.45970
Se         3.30190       -0.61380       -5.44900
C          0.34170       -1.46510       -2.70330
S          1.13460       -1.33450       -1.15100
C          0.49870       -1.79200       -6.42130
C         -0.54890       -1.79180       -7.29810
S         -2.08110       -1.65080       -6.45870
C         -0.42320       -1.87310       -8.71380
S          1.18650       -1.85840       -9.37560
C          0.59330       -1.94290      -11.01050
C         -0.78990       -2.02040      -11.00560
C         -1.36410       -1.93850       -9.71930
C         -2.84100       -1.90720       -9.48910
C         -3.58500       -1.61310      -10.78660
C         -3.07560       -2.54000      -11.88090
C         -1.63210       -2.17380      -12.24120
O         -1.56010       -0.95480      -12.95880
C          1.51500       -1.93120      -12.10270
S          0.94940       -2.09620      -13.74510
C          2.54700       -2.03500      -14.35290
C          3.47580       -1.87990      -13.36880
C          2.89390       -1.80190      -12.07850
C          3.72990       -1.60130      -10.85470
C          5.16090       -1.19360      -11.20160
C          5.71650       -2.07220      -12.31190
C          4.96220       -1.79970      -13.61200
O          5.41180       -2.73340      -14.57190
H          0.89500        4.49250       15.36680
H          3.56250        4.54960       14.70850
H          3.62700        2.85320       15.18580
H          4.30100        3.97600       12.42710
H          5.42380        3.24340       13.58000
H          4.04010        1.11080       13.44000
H          4.84950        1.53740       11.92480
H          2.81580        2.38820       10.96270
H          2.89100        0.09330       11.08820
H         -2.16610        1.39380       13.38580
H         -3.10360        2.65780       12.59370
H         -4.54970        0.70910       13.01750
H         -3.42090       -0.35310       12.16500
H         -5.38560        0.39730       10.72770
H         -4.80740        2.05220       10.90950
H         -3.57070       -0.23450        9.35880
H         -3.97330        2.48630        8.78490
H         -2.98200        0.53920        7.06760
H         -4.06330       -1.31780        6.46920
H         -6.57000       -1.20580        6.00510
H         -8.56840        0.26100        1.32060
H         -6.83420        0.62020        1.50680
H         -7.21260       -1.33280       -0.04820
H         -8.05000       -2.18910        1.25270
H         -6.32390       -1.82890        1.39640
H          2.44640       -2.39080        3.21850
H          4.97720       -2.23550        3.53770
H          7.28880        1.37320        6.63420
H          5.52140        1.28360        6.84220
H          6.97230        2.31990        4.34140
H          5.21760        2.24050        4.54460
H          6.17160        3.33900        5.54730
H          1.51280       -0.95870        1.75550
H         -2.47580       -1.38830       -0.86560
H         -3.50860        0.20610       -2.03790
H         -6.05480        0.02840       -2.08960
H         -7.05200       -2.44550       -6.07120
H         -6.96640       -3.80330       -4.91570
H         -9.46420       -3.85790       -4.80590
H         -9.55240       -2.51170       -5.94410
H         -8.91530       -4.07440       -6.47300
H          3.04610       -2.65180       -2.33550
H          5.49780       -2.28580       -2.93450
H          5.39150       -1.32950       -7.35330
H          7.10870       -0.91330       -7.57950
H          6.58040        1.49350       -7.16430
H          4.87070        1.09100       -6.96060
H          5.64480        0.87540       -8.53460
H          1.50890       -1.93160       -6.76710
H         -3.07860       -1.14550       -8.74290
H         -3.16450       -2.87090       -9.08100
H         -4.65760       -1.74340      -10.63710
H         -3.40010       -0.58040      -11.08950
H         -3.69450       -2.45790      -12.77780
H         -3.10710       -3.57640      -11.53880
H         -1.21010       -2.98900      -12.85600
H         -2.05190       -1.04740      -13.78170
H          2.69690       -2.11700      -15.41220
H          3.28110       -0.83330      -10.21920
H          3.74290       -2.53110      -10.27610
H          5.17560       -0.15110      -11.52930
H          5.78450       -1.27560      -10.31010
H          5.59580       -3.12700      -12.06090
H          6.77750       -1.88160      -12.47310
H          5.20090       -0.77550      -13.95760
H          4.92310       -2.60830      -15.39140
