
  xtb     03052207233D
 energy: -335.659568208748 gnorm: 0.000209172162 xtb: 6.4.1 (unknown)
191211  0     0  0            999 V2000
    8.2154   -5.6182    8.3147 C   0  0  0  0  0  0  0  0  0  0  0  0
    8.3956   -4.7140    7.3321 C   0  0  0  0  0  0  0  0  0  0  0  0
    7.2306   -3.9334    7.0725 C   0  0  0  0  0  0  0  0  0  0  0  0
    7.0714   -2.8874    6.1457 C   0  0  0  0  0  0  0  0  0  0  0  0
    8.0852   -2.5416    5.1728 C   0  0  0  0  0  0  0  0  0  0  0  0
    8.8536   -3.3963    4.4309 C   0  0  0  0  0  0  0  0  0  0  0  0
    9.6914   -2.7984    3.4696 C   0  0  0  0  0  0  0  0  0  0  0  0
    9.6333   -1.4330    3.4207 C   0  0  0  0  0  0  0  0  0  0  0  0
   10.5964   -0.4553    2.3374 S   0  0  0  0  0  0  0  0  0  0  0  0
    9.8831    1.2089    2.5872 C   0  0  0  0  0  0  0  0  0  0  0  0
    8.5374    1.3822    1.9145 C   0  0  0  0  0  0  0  0  0  0  0  0
    8.4284   -0.7520    4.6987 Se  0  0  0  0  0  2  0  0  0  0  0  0
    5.8404   -2.2387    6.1610 C   0  0  0  0  0  0  0  0  0  0  0  0
    4.7543   -2.6164    6.9832 C   0  0  0  0  0  0  0  0  0  0  0  0
    4.9185   -3.6584    7.9212 C   0  0  0  0  0  0  0  0  0  0  0  0
    3.8562   -4.0276    8.8274 C   0  0  0  0  0  0  0  0  0  0  0  0
    2.9707   -3.1911    9.4505 C   0  0  0  0  0  0  0  0  0  0  0  0
    2.0145   -3.8063   10.2803 C   0  0  0  0  0  0  0  0  0  0  0  0
    2.0920   -5.1686   10.3405 C   0  0  0  0  0  0  0  0  0  0  0  0
    0.9548   -6.1618   11.2225 S   0  0  0  0  0  0  0  0  0  0  0  0
    1.8617   -7.7433   11.3390 C   0  0  0  0  0  0  0  0  0  0  0  0
    3.0155   -7.6725   12.3180 C   0  0  0  0  0  0  0  0  0  0  0  0
    3.5005   -5.8250    9.2710 Se  0  0  0  0  0  2  0  0  0  0  0  0
    6.1616   -4.2888    7.9260 C   0  0  0  0  0  0  0  0  0  0  0  0
    6.6254   -5.5837    8.9984 S   0  0  0  0  0  0  0  0  0  0  0  0
    3.5823   -1.8865    6.6657 C   0  0  0  0  0  0  0  0  0  0  0  0
    3.7591   -0.9624    5.6744 C   0  0  0  0  0  0  0  0  0  0  0  0
    5.4056   -0.9335    5.0940 S   0  0  0  0  0  0  0  0  0  0  0  0
    2.7742   -0.1131    5.0997 C   0  0  0  0  0  0  0  0  0  0  0  0
    1.1214   -0.2602    5.6304 S   0  0  0  0  0  0  0  0  0  0  0  0
    0.5924    0.9361    4.4885 C   0  0  0  0  0  0  0  0  0  0  0  0
    1.6552    1.4611    3.7910 C   0  0  0  0  0  0  0  0  0  0  0  0
    2.8952    0.8366    4.1030 C   0  0  0  0  0  0  0  0  0  0  0  0
    4.4282    1.1249    3.2878 S   0  0  0  0  0  0  0  0  0  0  0  0
    3.9362    2.1277    1.8378 C   0  0  0  0  0  0  0  0  0  0  0  0
    3.6504    3.4907    2.3942 C   0  0  0  0  0  0  0  0  0  0  0  0
    4.4403    4.3978    2.3881 O   0  0  0  0  0  0  0  0  0  0  0  0
    2.2868    3.6162    3.0573 C   0  0  0  0  0  0  0  0  0  0  0  0
    1.4478    2.4918    2.9165 O   0  0  0  0  0  0  0  0  0  0  0  0
   -0.8154    1.2321    4.3702 C   0  0  0  0  0  0  0  0  0  0  0  0
   -1.5617    1.1446    3.2556 C   0  0  0  0  0  0  0  0  0  0  0  0
   -1.2033    0.6795    1.9517 C   0  0  0  0  0  0  0  0  0  0  0  0
   -2.1223    0.3365    0.9963 C   0  0  0  0  0  0  0  0  0  0  0  0
   -1.5714   -0.1559   -0.2112 C   0  0  0  0  0  0  0  0  0  0  0  0
   -2.2375   -0.5768   -1.3912 C   0  0  0  0  0  0  0  0  0  0  0  0
   -3.6626   -0.7989   -1.4262 C   0  0  0  0  0  0  0  0  0  0  0  0
   -4.4926   -0.9007   -2.5140 C   0  0  0  0  0  0  0  0  0  0  0  0
   -5.8172   -1.2997   -2.2623 C   0  0  0  0  0  0  0  0  0  0  0  0
   -6.1080   -1.5476   -0.9502 C   0  0  0  0  0  0  0  0  0  0  0  0
   -7.6881   -2.0113   -0.3700 S   0  0  0  0  0  0  0  0  0  0  0  0
   -7.3982   -2.2375    1.4197 C   0  0  0  0  0  0  0  0  0  0  0  0
   -6.7354   -3.5623    1.7370 C   0  0  0  0  0  0  0  0  0  0  0  0
   -4.6199   -1.2383    0.1397 Se  0  0  0  0  0  2  0  0  0  0  0  0
   -1.4114   -0.8378   -2.4895 C   0  0  0  0  0  0  0  0  0  0  0  0
    0.0038   -0.7945   -2.4308 C   0  0  0  0  0  0  0  0  0  0  0  0
    0.6606   -0.4387   -1.2373 C   0  0  0  0  0  0  0  0  0  0  0  0
    2.1028   -0.3317   -1.1660 C   0  0  0  0  0  0  0  0  0  0  0  0
    2.9188    0.2639   -2.0858 C   0  0  0  0  0  0  0  0  0  0  0  0
    4.2987    0.2207   -1.8080 C   0  0  0  0  0  0  0  0  0  0  0  0
    4.6391   -0.4294   -0.6578 C   0  0  0  0  0  0  0  0  0  0  0  0
    6.2904   -0.5471   -0.0867 S   0  0  0  0  0  0  0  0  0  0  0  0
    6.3548   -2.2542    0.5720 C   0  0  0  0  0  0  0  0  0  0  0  0
    5.9351   -2.3188    2.0231 C   0  0  0  0  0  0  0  0  0  0  0  0
    3.1046   -1.0322    0.2694 Se  0  0  0  0  0  2  0  0  0  0  0  0
   -0.1588   -0.1347   -0.1577 C   0  0  0  0  0  0  0  0  0  0  0  0
    0.4227    0.4072    1.3877 S   0  0  0  0  0  0  0  0  0  0  0  0
    0.6158   -1.1945   -3.6446 C   0  0  0  0  0  0  0  0  0  0  0  0
   -0.2700   -1.4858   -4.6389 C   0  0  0  0  0  0  0  0  0  0  0  0
   -1.9292   -1.2987   -4.0944 S   0  0  0  0  0  0  0  0  0  0  0  0
   -0.0328   -1.8821   -5.9880 C   0  0  0  0  0  0  0  0  0  0  0  0
   -1.3979   -2.0559   -7.0513 S   0  0  0  0  0  0  0  0  0  0  0  0
   -0.3887   -2.4868   -8.3908 C   0  0  0  0  0  0  0  0  0  0  0  0
    0.9306   -2.5520   -8.0036 C   0  0  0  0  0  0  0  0  0  0  0  0
    1.1478   -2.1626   -6.6534 C   0  0  0  0  0  0  0  0  0  0  0  0
    2.7131   -2.0233   -5.8615 S   0  0  0  0  0  0  0  0  0  0  0  0
    3.9179   -2.1069   -7.2440 C   0  0  0  0  0  0  0  0  0  0  0  0
    3.4651   -1.1637   -8.3240 C   0  0  0  0  0  0  0  0  0  0  0  0
    3.6639    0.0220   -8.3118 O   0  0  0  0  0  0  0  0  0  0  0  0
    2.6599   -1.8616   -9.4102 C   0  0  0  0  0  0  0  0  0  0  0  0
    1.9116   -2.9398   -8.8844 O   0  0  0  0  0  0  0  0  0  0  0  0
   -0.9212   -2.7478   -9.7093 C   0  0  0  0  0  0  0  0  0  0  0  0
   -1.9225   -2.0490  -10.2601 C   0  0  0  0  0  0  0  0  0  0  0  0
   -2.4789   -0.8843   -9.5898 C   0  0  0  0  0  0  0  0  0  0  0  0
   -4.0813   -0.8713   -8.9338 S   0  0  0  0  0  0  0  0  0  0  0  0
   -3.7707    0.5992   -8.0559 C   0  0  0  0  0  0  0  0  0  0  0  0
   -2.5156    1.0995   -8.3587 C   0  0  0  0  0  0  0  0  0  0  0  0
   -1.7849    0.2429   -9.2192 C   0  0  0  0  0  0  0  0  0  0  0  0
   -0.1255    0.4895   -9.7815 S   0  0  0  0  0  0  0  0  0  0  0  0
    0.5509    1.5158   -8.4236 C   0  0  0  0  0  0  0  0  0  0  0  0
    0.1184    2.9152   -8.7673 C   0  0  0  0  0  0  0  0  0  0  0  0
    0.8574    3.7518   -9.2107 O   0  0  0  0  0  0  0  0  0  0  0  0
   -1.3783    3.1721   -8.6216 C   0  0  0  0  0  0  0  0  0  0  0  0
   -2.0697    2.2631   -7.7937 O   0  0  0  0  0  0  0  0  0  0  0  0
   -4.6801    0.9960   -7.0313 C   0  0  0  0  0  0  0  0  0  0  0  0
   -4.3280    1.7798   -5.9919 C   0  0  0  0  0  0  0  0  0  0  0  0
   -5.0937    1.9336   -4.8027 C   0  0  0  0  0  0  0  0  0  0  0  0
   -4.5930    2.3538   -3.6028 C   0  0  0  0  0  0  0  0  0  0  0  0
   -5.4572    2.1332   -2.5039 C   0  0  0  0  0  0  0  0  0  0  0  0
   -5.1847    2.2629   -1.1229 C   0  0  0  0  0  0  0  0  0  0  0  0
   -3.8976    2.6923   -0.6292 C   0  0  0  0  0  0  0  0  0  0  0  0
   -2.6638    2.5453   -1.2077 C   0  0  0  0  0  0  0  0  0  0  0  0
   -1.5788    3.1448   -0.5455 C   0  0  0  0  0  0  0  0  0  0  0  0
   -1.9001    3.8142    0.6012 C   0  0  0  0  0  0  0  0  0  0  0  0
   -0.7245    4.6827    1.5548 S   0  0  0  0  0  0  0  0  0  0  0  0
   -1.7572    5.5663    2.7768 C   0  0  0  0  0  0  0  0  0  0  0  0
   -2.1345    4.6956    3.9578 C   0  0  0  0  0  0  0  0  0  0  0  0
   -3.7334    3.6649    0.9841 Se  0  0  0  0  0  2  0  0  0  0  0  0
   -6.2438    1.9423   -0.2718 C   0  0  0  0  0  0  0  0  0  0  0  0
   -7.5328    1.5649   -0.7098 C   0  0  0  0  0  0  0  0  0  0  0  0
   -7.7913    1.4041   -2.0841 C   0  0  0  0  0  0  0  0  0  0  0  0
   -9.0852    1.0042   -2.5932 C   0  0  0  0  0  0  0  0  0  0  0  0
   -9.9680    0.0991   -2.0754 C   0  0  0  0  0  0  0  0  0  0  0  0
  -11.1782   -0.0608   -2.7784 C   0  0  0  0  0  0  0  0  0  0  0  0
  -11.3175    0.7312   -3.8815 C   0  0  0  0  0  0  0  0  0  0  0  0
  -12.7662    0.7859   -4.8591 S   0  0  0  0  0  0  0  0  0  0  0  0
  -12.1329    1.5250   -6.4056 C   0  0  0  0  0  0  0  0  0  0  0  0
  -11.2613    0.5623   -7.1855 C   0  0  0  0  0  0  0  0  0  0  0  0
   -9.8007    1.8211   -4.1387 Se  0  0  0  0  0  2  0  0  0  0  0  0
   -6.7192    1.6584   -2.9338 C   0  0  0  0  0  0  0  0  0  0  0  0
   -6.7409    1.3635   -4.6515 S   0  0  0  0  0  0  0  0  0  0  0  0
   -8.4295    1.3792    0.3846 C   0  0  0  0  0  0  0  0  0  0  0  0
   -7.8425    1.5454    1.5847 C   0  0  0  0  0  0  0  0  0  0  0  0
   -6.1617    1.9542    1.4729 S   0  0  0  0  0  0  0  0  0  0  0  0
    8.9242   -6.3208    8.7069 H   0  0  0  0  0  0  0  0  0  0  0  0
    9.3274   -4.5736    6.8155 H   0  0  0  0  0  0  0  0  0  0  0  0
    8.7740   -4.4664    4.5279 H   0  0  0  0  0  0  0  0  0  0  0  0
   10.3203   -3.3687    2.8080 H   0  0  0  0  0  0  0  0  0  0  0  0
   10.6256    1.8867    2.1668 H   0  0  0  0  0  0  0  0  0  0  0  0
    9.8214    1.3701    3.6683 H   0  0  0  0  0  0  0  0  0  0  0  0
    8.1883    2.4029    2.0539 H   0  0  0  0  0  0  0  0  0  0  0  0
    8.6097    1.1765    0.8495 H   0  0  0  0  0  0  0  0  0  0  0  0
    7.7954    0.7088    2.3442 H   0  0  0  0  0  0  0  0  0  0  0  0
    3.0400   -2.1198    9.3635 H   0  0  0  0  0  0  0  0  0  0  0  0
    1.2804   -3.2498   10.8369 H   0  0  0  0  0  0  0  0  0  0  0  0
    2.2008   -7.9948   10.3290 H   0  0  0  0  0  0  0  0  0  0  0  0
    1.1133   -8.4684   11.6570 H   0  0  0  0  0  0  0  0  0  0  0  0
    2.6574   -7.3983   13.3076 H   0  0  0  0  0  0  0  0  0  0  0  0
    3.7477   -6.9322   11.9950 H   0  0  0  0  0  0  0  0  0  0  0  0
    3.5088   -8.6403   12.3772 H   0  0  0  0  0  0  0  0  0  0  0  0
    2.6242   -2.0620    7.1208 H   0  0  0  0  0  0  0  0  0  0  0  0
    4.8085    2.1279    1.1860 H   0  0  0  0  0  0  0  0  0  0  0  0
    3.0739    1.6697    1.3555 H   0  0  0  0  0  0  0  0  0  0  0  0
    2.4329    3.8799    4.1147 H   0  0  0  0  0  0  0  0  0  0  0  0
    1.7532    4.4412    2.5742 H   0  0  0  0  0  0  0  0  0  0  0  0
   -1.3171    1.4599    5.3025 H   0  0  0  0  0  0  0  0  0  0  0  0
   -2.6192    1.3692    3.3433 H   0  0  0  0  0  0  0  0  0  0  0  0
   -3.1738    0.5077    1.1669 H   0  0  0  0  0  0  0  0  0  0  0  0
   -4.1770   -0.6557   -3.5133 H   0  0  0  0  0  0  0  0  0  0  0  0
   -6.5499   -1.4095   -3.0433 H   0  0  0  0  0  0  0  0  0  0  0  0
   -6.7966   -1.3878    1.7581 H   0  0  0  0  0  0  0  0  0  0  0  0
   -8.3894   -2.1740    1.8682 H   0  0  0  0  0  0  0  0  0  0  0  0
   -6.6091   -3.6622    2.8129 H   0  0  0  0  0  0  0  0  0  0  0  0
   -5.7527   -3.6240    1.2686 H   0  0  0  0  0  0  0  0  0  0  0  0
   -7.3442   -4.3875    1.3751 H   0  0  0  0  0  0  0  0  0  0  0  0
    2.5300    0.7573   -2.9607 H   0  0  0  0  0  0  0  0  0  0  0  0
    5.0387    0.6532   -2.4588 H   0  0  0  0  0  0  0  0  0  0  0  0
    7.3938   -2.5590    0.4499 H   0  0  0  0  0  0  0  0  0  0  0  0
    5.7163   -2.8641   -0.0678 H   0  0  0  0  0  0  0  0  0  0  0  0
    6.5888   -1.6958    2.6304 H   0  0  0  0  0  0  0  0  0  0  0  0
    4.9104   -1.9627    2.1478 H   0  0  0  0  0  0  0  0  0  0  0  0
    5.9938   -3.3425    2.3869 H   0  0  0  0  0  0  0  0  0  0  0  0
    1.6795   -1.2792   -3.7545 H   0  0  0  0  0  0  0  0  0  0  0  0
    4.8496   -1.7701   -6.7915 H   0  0  0  0  0  0  0  0  0  0  0  0
    3.9900   -3.1361   -7.5907 H   0  0  0  0  0  0  0  0  0  0  0  0
    2.0152   -1.1412   -9.9296 H   0  0  0  0  0  0  0  0  0  0  0  0
    3.3559   -2.2997  -10.1326 H   0  0  0  0  0  0  0  0  0  0  0  0
   -0.4445   -3.5487  -10.2568 H   0  0  0  0  0  0  0  0  0  0  0  0
   -2.3392   -2.3388  -11.2135 H   0  0  0  0  0  0  0  0  0  0  0  0
    0.1488    1.1558   -7.4782 H   0  0  0  0  0  0  0  0  0  0  0  0
    1.6354    1.4135   -8.4583 H   0  0  0  0  0  0  0  0  0  0  0  0
   -1.5130    4.1577   -8.1652 H   0  0  0  0  0  0  0  0  0  0  0  0
   -1.8151    3.2086   -9.6298 H   0  0  0  0  0  0  0  0  0  0  0  0
   -5.6513    0.5191   -7.0441 H   0  0  0  0  0  0  0  0  0  0  0  0
   -3.3427    2.2213   -5.9673 H   0  0  0  0  0  0  0  0  0  0  0  0
   -3.6195    2.7986   -3.5278 H   0  0  0  0  0  0  0  0  0  0  0  0
   -2.5083    1.9555   -2.0932 H   0  0  0  0  0  0  0  0  0  0  0  0
   -0.5686    3.0878   -0.9143 H   0  0  0  0  0  0  0  0  0  0  0  0
   -2.6395    5.9353    2.2470 H   0  0  0  0  0  0  0  0  0  0  0  0
   -1.1461    6.4128    3.0900 H   0  0  0  0  0  0  0  0  0  0  0  0
   -2.7814    3.8784    3.6382 H   0  0  0  0  0  0  0  0  0  0  0  0
   -1.2446    4.2713    4.4167 H   0  0  0  0  0  0  0  0  0  0  0  0
   -2.6674    5.2894    4.6974 H   0  0  0  0  0  0  0  0  0  0  0  0
   -9.7260   -0.5148   -1.2255 H   0  0  0  0  0  0  0  0  0  0  0  0
  -11.9364   -0.7633   -2.4786 H   0  0  0  0  0  0  0  0  0  0  0  0
  -11.5879    2.4332   -6.1288 H   0  0  0  0  0  0  0  0  0  0  0  0
  -13.0254    1.7993   -6.9668 H   0  0  0  0  0  0  0  0  0  0  0  0
  -10.9326    1.0294   -8.1115 H   0  0  0  0  0  0  0  0  0  0  0  0
  -10.3794    0.2880   -6.6063 H   0  0  0  0  0  0  0  0  0  0  0  0
  -11.8151   -0.3427   -7.4246 H   0  0  0  0  0  0  0  0  0  0  0  0
   -9.4708    1.1471    0.2614 H   0  0  0  0  0  0  0  0  0  0  0  0
   -8.2822    1.4601    2.5589 H   0  0  0  0  0  0  0  0  0  0  0  0
  1  2  2  0  0  0  0
  2  3  1  0  0  0  0
  3  4  2  0  0  0  0
  4  5  1  0  0  0  0
  5  6  2  0  0  0  0
  6  7  1  0  0  0  0
  7  8  2  0  0  0  0
  8  9  1  0  0  0  0
  9 10  1  0  0  0  0
 10 11  1  0  0  0  0
  8 12  1  0  0  0  0
  4 13  1  0  0  0  0
 13 14  2  0  0  0  0
 14 15  1  0  0  0  0
 15 16  1  0  0  0  0
 16 17  2  0  0  0  0
 17 18  1  0  0  0  0
 18 19  2  0  0  0  0
 19 20  1  0  0  0  0
 20 21  1  0  0  0  0
 21 22  1  0  0  0  0
 19 23  1  0  0  0  0
 15 24  2  0  0  0  0
 24 25  1  0  0  0  0
 14 26  1  0  0  0  0
 26 27  2  0  0  0  0
 27 28  1  0  0  0  0
 27 29  1  0  0  0  0
 29 30  1  0  0  0  0
 30 31  1  0  0  0  0
 31 32  2  0  0  0  0
 32 33  1  0  0  0  0
 33 34  1  0  0  0  0
 34 35  1  0  0  0  0
 35 36  1  0  0  0  0
 36 37  2  0  0  0  0
 36 38  1  0  0  0  0
 38 39  1  0  0  0  0
 31 40  1  0  0  0  0
 40 41  2  0  0  0  0
 41 42  1  0  0  0  0
 42 43  2  0  0  0  0
 43 44  1  0  0  0  0
 44 45  2  0  0  0  0
 45 46  1  0  0  0  0
 46 47  2  0  0  0  0
 47 48  1  0  0  0  0
 48 49  2  0  0  0  0
 49 50  1  0  0  0  0
 50 51  1  0  0  0  0
 51 52  1  0  0  0  0
 49 53  1  0  0  0  0
 45 54  1  0  0  0  0
 54 55  2  0  0  0  0
 55 56  1  0  0  0  0
 56 57  1  0  0  0  0
 57 58  2  0  0  0  0
 58 59  1  0  0  0  0
 59 60  2  0  0  0  0
 60 61  1  0  0  0  0
 61 62  1  0  0  0  0
 62 63  1  0  0  0  0
 60 64  1  0  0  0  0
 56 65  2  0  0  0  0
 65 66  1  0  0  0  0
 55 67  1  0  0  0  0
 67 68  2  0  0  0  0
 68 69  1  0  0  0  0
 68 70  1  0  0  0  0
 70 71  1  0  0  0  0
 71 72  1  0  0  0  0
 72 73  2  0  0  0  0
 73 74  1  0  0  0  0
 74 75  1  0  0  0  0
 75 76  1  0  0  0  0
 76 77  1  0  0  0  0
 77 78  2  0  0  0  0
 77 79  1  0  0  0  0
 79 80  1  0  0  0  0
 72 81  1  0  0  0  0
 81 82  2  0  0  0  0
 82 83  1  0  0  0  0
 83 84  1  0  0  0  0
 84 85  1  0  0  0  0
 85 86  2  0  0  0  0
 86 87  1  0  0  0  0
 87 88  1  0  0  0  0
 88 89  1  0  0  0  0
 89 90  1  0  0  0  0
 90 91  2  0  0  0  0
 90 92  1  0  0  0  0
 92 93  1  0  0  0  0
 85 94  1  0  0  0  0
 94 95  2  0  0  0  0
 95 96  1  0  0  0  0
 96 97  2  0  0  0  0
 97 98  1  0  0  0  0
 98 99  2  0  0  0  0
 99100  1  0  0  0  0
100101  2  0  0  0  0
101102  1  0  0  0  0
102103  2  0  0  0  0
103104  1  0  0  0  0
104105  1  0  0  0  0
105106  1  0  0  0  0
103107  1  0  0  0  0
 99108  1  0  0  0  0
108109  2  0  0  0  0
109110  1  0  0  0  0
110111  1  0  0  0  0
111112  2  0  0  0  0
112113  1  0  0  0  0
113114  2  0  0  0  0
114115  1  0  0  0  0
115116  1  0  0  0  0
116117  1  0  0  0  0
114118  1  0  0  0  0
110119  2  0  0  0  0
119120  1  0  0  0  0
109121  1  0  0  0  0
121122  2  0  0  0  0
122123  1  0  0  0  0
 25  1  1  0  0  0  0
 33 29  2  0  0  0  0
 66 42  1  0  0  0  0
 74 70  2  0  0  0  0
 87 83  2  0  0  0  0
120 96  1  0  0  0  0
 24  3  1  0  0  0  0
 39 32  1  0  0  0  0
 65 44  1  0  0  0  0
 80 73  1  0  0  0  0
 93 86  1  0  0  0  0
119 98  1  0  0  0  0
 12  5  1  0  0  0  0
 28 13  1  0  0  0  0
 53 46  1  0  0  0  0
 69 54  1  0  0  0  0
107100  1  0  0  0  0
123108  1  0  0  0  0
 23 16  1  0  0  0  0
 64 57  1  0  0  0  0
118111  1  0  0  0  0
  1124  1  0  0  0  0
  2125  1  0  0  0  0
  6126  1  0  0  0  0
  7127  1  0  0  0  0
 10128  1  0  0  0  0
 10129  1  0  0  0  0
 11130  1  0  0  0  0
 11131  1  0  0  0  0
 11132  1  0  0  0  0
 17133  1  0  0  0  0
 18134  1  0  0  0  0
 21135  1  0  0  0  0
 21136  1  0  0  0  0
 22137  1  0  0  0  0
 22138  1  0  0  0  0
 22139  1  0  0  0  0
 26140  1  0  0  0  0
 35141  1  0  0  0  0
 35142  1  0  0  0  0
 38143  1  0  0  0  0
 38144  1  0  0  0  0
 40145  1  0  0  0  0
 41146  1  0  0  0  0
 43147  1  0  0  0  0
 47148  1  0  0  0  0
 48149  1  0  0  0  0
 51150  1  0  0  0  0
 51151  1  0  0  0  0
 52152  1  0  0  0  0
 52153  1  0  0  0  0
 52154  1  0  0  0  0
 58155  1  0  0  0  0
 59156  1  0  0  0  0
 62157  1  0  0  0  0
 62158  1  0  0  0  0
 63159  1  0  0  0  0
 63160  1  0  0  0  0
 63161  1  0  0  0  0
 67162  1  0  0  0  0
 76163  1  0  0  0  0
 76164  1  0  0  0  0
 79165  1  0  0  0  0
 79166  1  0  0  0  0
 81167  1  0  0  0  0
 82168  1  0  0  0  0
 89169  1  0  0  0  0
 89170  1  0  0  0  0
 92171  1  0  0  0  0
 92172  1  0  0  0  0
 94173  1  0  0  0  0
 95174  1  0  0  0  0
 97175  1  0  0  0  0
101176  1  0  0  0  0
102177  1  0  0  0  0
105178  1  0  0  0  0
105179  1  0  0  0  0
106180  1  0  0  0  0
106181  1  0  0  0  0
106182  1  0  0  0  0
112183  1  0  0  0  0
113184  1  0  0  0  0
116185  1  0  0  0  0
116186  1  0  0  0  0
117187  1  0  0  0  0
117188  1  0  0  0  0
117189  1  0  0  0  0
121190  1  0  0  0  0
122191  1  0  0  0  0
M  END
