272

C          5.81470       -4.84550        6.78330
C          5.10360       -4.06900        7.62400
C          3.80920       -3.74380        7.12280
C          2.82330       -2.95260        7.73990
C          3.06740       -2.20120        8.95400
C          2.19690       -2.00540        9.98930
C          2.62610       -1.12840       11.00650
C          3.85680       -0.57920       10.80200
S          4.73850        0.56950       11.78320
C          4.00980        0.32350       13.44170
C          4.33030       -1.04380       14.01150
Se         4.64080       -1.17810        9.20960
C          1.60310       -2.86780        7.07840
C          1.33870       -3.50820        5.84470
C          2.35170       -4.23710        5.18680
C          2.16830       -4.82760        3.87600
C          3.12800       -4.95520        2.90300
C          2.72540       -5.59740        1.71710
C          1.42770       -6.01080        1.69690
S          0.63930       -6.85130        0.37230
C         -0.20410       -5.44630       -0.45020
C         -1.48130       -5.04840        0.25710
Se         0.55480       -5.61710        3.31230
C          3.56880       -4.33640        5.86300
S          4.97000       -5.22610        5.32520
C          0.04470       -3.18540        5.36620
C         -0.63830       -2.30750        6.15110
S          0.25990       -1.87220        7.58350
C         -1.84670       -1.64170        5.77740
C         -2.20660       -0.35970        6.05930
C         -3.26380        0.12520        5.24560
C         -3.74050        1.44400        5.15190
C         -3.16600        2.52870        5.95650
C         -3.98360        3.39580        6.67810
C         -3.43410        4.39820        7.44790
C         -2.05510        4.59440        7.50940
S         -1.48210        5.93440        8.50940
C          0.10320        5.34810        9.21450
C         -0.05790        4.06130        9.99830
C         -1.25580        3.75480        6.73860
F          0.08470        3.91980        6.69340
C         -1.78910        2.72670        5.98850
C         -4.71210        1.68920        4.19290
C         -5.25010        0.67010        3.37120
C         -4.79070       -0.65590        3.47460
C         -5.32660       -1.67530        2.56370
C         -4.49300       -2.48930        1.80020
C         -5.01890       -3.33830        0.84770
C         -6.38830       -3.40670        0.62150
S         -7.00230       -4.43430       -0.68980
C         -7.90800       -3.18320       -1.67450
C         -6.97910       -2.09500       -2.16960
C         -7.21660       -2.64480        1.43960
C         -6.70520       -1.78680        2.39090
F         -8.55710       -2.70920        1.30500
C         -3.77090       -0.88150        4.38410
S         -2.89840       -2.37860        4.58350
C         -6.08390        1.19920        2.35800
C         -6.16620        2.56150        2.36190
S         -5.28380        3.26800        3.69860
C         -6.69170        3.30220        1.25410
C         -7.54830        2.80810        0.31480
C         -7.52230        3.50920       -0.91420
C         -8.12700        3.09050       -2.12470
C         -9.09720        2.02700       -2.15380
C        -10.00550        1.69050       -1.18160
C        -10.76010        0.52550       -1.40420
C        -10.48750       -0.12210       -2.57830
S        -11.25930       -1.61130       -3.06970
C        -10.92850       -1.64520       -4.87040
C         -9.59600       -2.27510       -5.22140
Se        -9.16480        0.77810       -3.56950
C         -7.55620        3.62550       -3.27440
C         -6.53620        4.60380       -3.26400
C         -6.12720        5.20850       -2.05060
C         -5.18860        6.30600       -2.06150
C         -4.22580        6.63760       -1.14490
C         -3.40270        7.73060       -1.47760
C         -3.68630        8.33200       -2.66840
S         -2.80060        9.67310       -3.35870
C         -2.70730        9.10510       -5.09970
C         -1.89990        7.83030       -5.23540
Se        -5.19290        7.55030       -3.48590
C         -6.59040        4.57680       -0.89390
S         -5.92940        4.78340        0.71270
C         -5.83480        4.63420       -4.49840
C         -6.29270        3.73100       -5.41480
S         -7.77170        2.96090       -4.87270
C         -5.50620        3.09210       -6.42090
C         -4.28200        3.45780       -6.90060
C         -3.50290        2.36310       -7.35670
C         -2.12470        2.37370       -7.67160
C         -1.44920        3.62100       -7.93800
C         -1.99040        4.70060       -8.58510
C         -1.18210        5.85160       -8.66960
C          0.04090        5.72910       -8.07640
S          1.33260        6.89620       -7.91810
C          0.85100        8.23020       -9.07530
C         -0.07500        9.25220       -8.44390
Se         0.30690        4.01830       -7.34820
C         -1.48180        1.14110       -7.58770
C         -2.15620       -0.07800       -7.33660
C         -3.56490       -0.10850       -7.23010
C         -4.27110       -1.34390       -6.97720
C         -3.97190       -2.57830       -7.48530
C         -4.71450       -3.66370       -6.97790
C         -5.63370       -3.32770       -6.02780
S         -6.69460       -4.36780       -5.10190
C         -6.95370       -5.78360       -6.22870
C         -7.71260       -5.38370       -7.47770
Se        -5.68250       -1.47510       -5.71830
C         -4.18610        1.13410       -7.20310
S         -5.83670        1.38830       -6.71220
C         -1.25490       -1.11890       -7.00930
C          0.05370       -0.73440       -7.00130
S          0.25030        0.92340       -7.55020
C          1.13730       -1.43810       -6.40230
C          2.40990       -1.01070       -6.16740
C          3.12150       -1.81580       -5.24340
C          4.41510       -1.57060       -4.72300
C          5.33710       -0.67960       -5.36960
C          5.40900       -0.38950       -6.71010
C          6.41430        0.50990       -7.10050
C          7.19070        0.98930       -6.08050
S          8.46790        2.16010       -6.31020
C          9.20630        2.24880       -4.64130
C         10.10110        1.06420       -4.33540
Se         6.67080        0.26060       -4.42380
C          4.69010       -2.22190       -3.52230
C          3.84230       -3.19250       -2.94530
C          2.73600       -3.70010       -3.67500
C          2.14440       -4.97370       -3.37230
C          1.09180       -5.59960       -4.00060
C          0.87260       -6.94680       -3.67900
C          1.74820       -7.48500       -2.77410
S          1.64310       -9.12680       -2.20350
C          3.05170       -9.22600       -1.04810
C          4.37790       -9.39680       -1.76110
Se         2.97950       -6.20130       -2.19650
C          2.34620       -2.89350       -4.75440
S          0.80480       -2.94580       -5.57240
C          4.23000       -3.49640       -1.61290
C          5.36260       -2.85620       -1.21140
S          6.05460       -1.88600       -2.49580
C          5.94390       -2.75420        0.09410
C          5.28470       -2.62090        1.27950
C          6.12490       -2.32900        2.38960
C          5.77590       -1.96090        3.71830
C          4.43440       -1.56300        4.08450
C          3.98890       -1.04570        5.27950
C          2.68490       -0.52560        5.32160
C          1.99030       -0.60210        4.14900
S          0.37860        0.02700        3.91280
C          0.06210       -0.35340        2.15570
C         -0.28810       -1.80780        1.91470
Se         3.02360       -1.42280        2.82890
C          6.86340       -1.85990        4.60610
C          8.21700       -1.99190        4.21110
C          8.55350       -2.19890        2.86250
C          9.92270       -2.22140        2.39160
C         11.00200       -2.85250        2.94200
C         12.23270       -2.67300        2.27970
C         12.17940       -1.87400        1.17300
S         13.55940       -1.47670        0.17760
C         12.74900       -0.44830       -1.10250
C         13.76660        0.02700       -2.11840
Se        10.42770       -1.26040        0.84800
C          7.48260       -2.35260        1.99300
S          7.66900       -2.60460        0.28010
C          9.12770       -1.79280        5.29030
C          8.51120       -1.55230        6.46170
S          6.79280       -1.52070        6.32080
H          6.80760       -5.22860        6.91500
H          5.46780       -3.74750        8.58460
H          1.24880       -2.51340       10.04770
H          2.01260       -0.91260       11.86400
H          4.45820        1.11530       14.04140
H          2.93750        0.50060       13.36950
H          3.91660       -1.83070       13.38400
H          5.40700       -1.18320       14.07530
H          3.90650       -1.13590       15.00950
H          4.12330       -4.56170        3.01940
H          3.38920       -5.74970        0.87930
H          0.51490       -4.62710       -0.49650
H         -0.40570       -5.80590       -1.45890
H         -2.18680       -5.87610        0.25710
H         -1.28140       -4.76530        1.29210
H         -1.93220       -4.19890       -0.25250
H         -0.36370       -3.52810        4.43120
H         -1.68490        0.23800        6.78390
H         -5.05440        3.26270        6.65740
H         -4.06800        5.05440        8.02360
H          0.39940        6.17010        9.86660
H          0.83360        5.24980        8.41480
H         -0.81240        4.17750       10.77370
H         -0.35500        3.24230        9.34600
H          0.88920        3.79860       10.46550
H         -1.12250        2.11160        5.40290
H         -3.42330       -2.42330        1.91700
H         -4.36970       -3.94660        0.23830
H         -8.72390       -2.78650       -1.07320
H         -8.31970       -3.75250       -2.50590
H         -6.50270       -1.57600       -1.33870
H         -7.54160       -1.36330       -2.75110
H         -6.20350       -2.51820       -2.80690
H         -7.38780       -1.21500        3.00080
H         -6.51970        0.59700        1.58260
H         -8.10800        1.90320        0.46090
H        -10.17400        2.31450       -0.31950
H        -11.50460        0.17150       -0.71210
H        -11.75410       -2.22230       -5.28710
H        -10.99360       -0.61380       -5.22570
H         -9.48880       -2.32290       -6.30340
H         -9.52860       -3.28090       -4.81490
H         -8.76480       -1.68750       -4.82630
H         -4.04050        6.05550       -0.25960
H         -2.58020        8.04720       -0.85970
H         -3.73550        8.97170       -5.44890
H         -2.24850        9.93230       -5.63950
H         -1.88990        7.49800       -6.27190
H         -2.33490        7.03580       -4.62860
H         -0.87470        7.98820       -4.90920
H         -4.90490        5.15760       -4.63940
H         -3.89590        4.45740       -6.81740
H         -2.96810        4.66410       -9.03660
H         -1.51970        6.74250       -9.17040
H          1.79850        8.69140       -9.35360
H          0.41420        7.75900       -9.95440
H         -1.02280        8.80270       -8.15850
H         -0.27110       10.05600       -9.15090
H          0.38440        9.67590       -7.55400
H         -3.22660       -2.71430       -8.25170
H         -4.54450       -4.67260       -7.31320
H         -7.52250       -6.49330       -5.62860
H         -5.98120       -6.21660       -6.45730
H         -7.86050       -6.25360       -8.11420
H         -8.68520       -4.97450       -7.21460
H         -7.16140       -4.63160       -8.03920
H         -1.56840       -2.09490       -6.68440
H          2.78890       -0.08580       -6.56440
H          4.76720       -0.86610       -7.43180
H          6.57130        0.80020       -8.12510
H          8.38010        2.32600       -3.92760
H          9.77040        3.18120       -4.63820
H         10.91180        1.00330       -5.05780
H          9.53340        0.13390       -4.37010
H         10.52070        1.17040       -3.33680
H          0.45800       -5.10170       -4.71180
H          0.08110       -7.52830       -4.12000
H          3.02400       -8.32000       -0.43590
H          2.82790      -10.08590       -0.41760
H          4.58400       -8.54210       -2.40680
H          5.18020       -9.47450       -1.03030
H          4.36910      -10.29670       -2.37170
H          3.63860       -4.08730       -0.93080
H          4.21790       -2.77090        1.31740
H          4.58680       -1.00440        6.17120
H          2.27730       -0.07420        6.21010
H         -0.76850        0.29830        1.88320
H          0.95320       -0.05410        1.59550
H         -0.50800       -1.95840        0.85960
H          0.54290       -2.46130        2.19010
H         -1.15890       -2.08920        2.50230
H         10.91080       -3.49440        3.80250
H         13.14730       -3.13250        2.61230
H         12.27770        0.39320       -0.58510
H         11.97600       -1.06580       -1.56970
H         14.23720       -0.82140       -2.60920
H         14.54010        0.61780       -1.63340
H         13.27820        0.64030       -2.87260
H         10.19470       -1.81210        5.17080
H          8.94840       -1.36910        7.42340
