
  xtb     03082205473D
 energy: -281.658856859927 gnorm: 0.000300493978 xtb: 6.4.1 (unknown)
154171  0     0  0            999 V2000
   -5.4242    1.7517   -5.9437 C   0  0  0  0  0  0  0  0  0  0  0  0
   -4.4762    0.7971   -6.0349 C   0  0  0  0  0  0  0  0  0  0  0  0
   -4.3746   -0.0116   -4.8630 C   0  0  0  0  0  0  0  0  0  0  0  0
   -3.4538   -1.0415   -4.5722 C   0  0  0  0  0  0  0  0  0  0  0  0
   -2.3757   -1.4184   -5.4657 C   0  0  0  0  0  0  0  0  0  0  0  0
   -1.0918   -1.7197   -5.0966 C   0  0  0  0  0  0  0  0  0  0  0  0
   -0.2022   -2.0366   -6.1390 C   0  0  0  0  0  0  0  0  0  0  0  0
   -0.7455   -2.0192   -7.3902 C   0  0  0  0  0  0  0  0  0  0  0  0
    0.1191   -2.4504   -8.8449 S   0  0  0  0  0  0  0  0  0  0  0  0
   -0.7255   -1.3838  -10.0676 C   0  0  0  0  0  0  0  0  0  0  0  0
   -0.4260    0.0835   -9.8394 C   0  0  0  0  0  0  0  0  0  0  0  0
   -2.5775   -1.5898   -7.3307 Se  0  0  0  0  0  2  0  0  0  0  0  0
   -3.5723   -1.6270   -3.3135 C   0  0  0  0  0  0  0  0  0  0  0  0
   -4.5236   -1.2320   -2.3445 C   0  0  0  0  0  0  0  0  0  0  0  0
   -5.3877   -0.1570   -2.6097 C   0  0  0  0  0  0  0  0  0  0  0  0
   -6.2073    0.4179   -1.5631 C   0  0  0  0  0  0  0  0  0  0  0  0
   -7.0213   -0.2025   -0.6629 C   0  0  0  0  0  0  0  0  0  0  0  0
   -7.5941    0.6268    0.3256 C   0  0  0  0  0  0  0  0  0  0  0  0
   -7.2324    1.9398    0.2585 C   0  0  0  0  0  0  0  0  0  0  0  0
   -7.6893    3.1470    1.4415 S   0  0  0  0  0  0  0  0  0  0  0  0
   -7.5679    4.6766    0.4457 C   0  0  0  0  0  0  0  0  0  0  0  0
   -8.6584    4.7636   -0.6013 C   0  0  0  0  0  0  0  0  0  0  0  0
   -6.0518    2.2592   -1.1776 Se  0  0  0  0  0  2  0  0  0  0  0  0
   -5.2933    0.4105   -3.8761 C   0  0  0  0  0  0  0  0  0  0  0  0
   -6.2589    1.7513   -4.4301 S   0  0  0  0  0  0  0  0  0  0  0  0
   -4.3556   -1.9183   -1.1123 C   0  0  0  0  0  0  0  0  0  0  0  0
   -3.3036   -2.7777   -1.1149 C   0  0  0  0  0  0  0  0  0  0  0  0
   -2.5260   -2.8715   -2.6790 S   0  0  0  0  0  0  0  0  0  0  0  0
   -2.7751   -3.5565   -0.0272 C   0  0  0  0  0  0  0  0  0  0  0  0
   -3.4578   -4.3745    0.8205 C   0  0  0  0  0  0  0  0  0  0  0  0
   -4.7823   -4.5199    0.8686 F   0  0  0  0  0  0  0  0  0  0  0  0
   -2.5491   -5.1424    1.6377 C   0  0  0  0  0  0  0  0  0  0  0  0
   -1.2940   -4.8259    1.2584 C   0  0  0  0  0  0  0  0  0  0  0  0
   -1.3580   -3.7640    0.2606 C   0  0  0  0  0  0  0  0  0  0  0  0
   -0.2652   -3.0917   -0.2133 C   0  0  0  0  0  0  0  0  0  0  0  0
   -0.1706   -1.8181   -0.9888 C   0  0  0  0  0  0  0  0  0  0  0  0
    0.9963   -1.8905   -1.6977 C   0  0  0  0  0  0  0  0  0  0  0  0
    1.7097   -3.0527   -1.2600 C   0  0  0  0  0  0  0  0  0  0  0  0
    1.0281   -3.7262   -0.2990 C   0  0  0  0  0  0  0  0  0  0  0  0
    2.9109   -3.3812   -1.7382 F   0  0  0  0  0  0  0  0  0  0  0  0
   -1.0895   -0.7256   -0.8587 C   0  0  0  0  0  0  0  0  0  0  0  0
   -2.0276   -0.5706    0.1430 C   0  0  0  0  0  0  0  0  0  0  0  0
   -2.0629   -1.2221    1.3087 F   0  0  0  0  0  0  0  0  0  0  0  0
   -2.9598    0.4645   -0.1737 C   0  0  0  0  0  0  0  0  0  0  0  0
   -2.6462    0.9343   -1.4123 C   0  0  0  0  0  0  0  0  0  0  0  0
   -1.4058    0.3324   -1.8314 C   0  0  0  0  0  0  0  0  0  0  0  0
   -0.6675    0.8797   -2.8643 C   0  0  0  0  0  0  0  0  0  0  0  0
    0.8013    1.0344   -2.9590 C   0  0  0  0  0  0  0  0  0  0  0  0
    1.1000    1.4326   -4.2347 C   0  0  0  0  0  0  0  0  0  0  0  0
   -0.1432    1.6064   -4.9144 C   0  0  0  0  0  0  0  0  0  0  0  0
   -1.2049    1.3851   -4.0820 C   0  0  0  0  0  0  0  0  0  0  0  0
   -0.2350    1.9627   -6.1983 F   0  0  0  0  0  0  0  0  0  0  0  0
    1.6164    1.0744   -1.7921 C   0  0  0  0  0  0  0  0  0  0  0  0
    1.1434    1.2365   -0.5178 C   0  0  0  0  0  0  0  0  0  0  0  0
    2.1288    1.2133    0.4881 C   0  0  0  0  0  0  0  0  0  0  0  0
    1.9284    1.2136    1.8926 C   0  0  0  0  0  0  0  0  0  0  0  0
    0.6150    1.3217    2.4851 C   0  0  0  0  0  0  0  0  0  0  0  0
    0.2036    0.7907    3.6827 C   0  0  0  0  0  0  0  0  0  0  0  0
   -1.1297    1.0150    4.0559 C   0  0  0  0  0  0  0  0  0  0  0  0
   -1.8603    1.7726    3.1812 C   0  0  0  0  0  0  0  0  0  0  0  0
   -3.5688    2.0715    3.3489 S   0  0  0  0  0  0  0  0  0  0  0  0
   -3.8591    3.3877    2.1151 C   0  0  0  0  0  0  0  0  0  0  0  0
   -3.3459    4.7337    2.5831 C   0  0  0  0  0  0  0  0  0  0  0  0
   -0.8123    2.2866    1.7111 Se  0  0  0  0  0  2  0  0  0  0  0  0
    3.0879    1.0542    2.6551 C   0  0  0  0  0  0  0  0  0  0  0  0
    4.3832    0.9716    2.0907 C   0  0  0  0  0  0  0  0  0  0  0  0
    4.5758    0.9703    0.6936 C   0  0  0  0  0  0  0  0  0  0  0  0
    5.8751    0.8281    0.0734 C   0  0  0  0  0  0  0  0  0  0  0  0
    6.3210    1.4772   -1.0458 C   0  0  0  0  0  0  0  0  0  0  0  0
    7.5904    1.0992   -1.5191 C   0  0  0  0  0  0  0  0  0  0  0  0
    8.2055    0.1117   -0.8039 C   0  0  0  0  0  0  0  0  0  0  0  0
    9.8144   -0.4758   -1.1436 S   0  0  0  0  0  0  0  0  0  0  0  0
    9.8032   -2.0844   -0.2759 C   0  0  0  0  0  0  0  0  0  0  0  0
    8.9457   -3.1117   -0.9866 C   0  0  0  0  0  0  0  0  0  0  0  0
    7.1583   -0.4238    0.6603 Se  0  0  0  0  0  2  0  0  0  0  0  0
    3.4216    1.0745   -0.0718 C   0  0  0  0  0  0  0  0  0  0  0  0
    3.3600    0.9811   -1.8158 S   0  0  0  0  0  0  0  0  0  0  0  0
    5.3923    0.8883    3.0818 C   0  0  0  0  0  0  0  0  0  0  0  0
    4.9149    0.8219    4.3519 C   0  0  0  0  0  0  0  0  0  0  0  0
    3.1750    0.9619    4.4009 S   0  0  0  0  0  0  0  0  0  0  0  0
    5.7226    0.7302    5.5418 C   0  0  0  0  0  0  0  0  0  0  0  0
    6.7926    1.5388    5.7866 C   0  0  0  0  0  0  0  0  0  0  0  0
    7.2653    2.4778    4.9654 F   0  0  0  0  0  0  0  0  0  0  0  0
    7.3460    1.2959    7.0968 C   0  0  0  0  0  0  0  0  0  0  0  0
    6.5978    0.3375    7.6742 C   0  0  0  0  0  0  0  0  0  0  0  0
    5.5859   -0.1251    6.7206 C   0  0  0  0  0  0  0  0  0  0  0  0
    4.8378   -1.2433    6.9561 C   0  0  0  0  0  0  0  0  0  0  0  0
    3.9963   -2.0699    6.0586 C   0  0  0  0  0  0  0  0  0  0  0  0
    3.4112   -3.0372    6.8156 C   0  0  0  0  0  0  0  0  0  0  0  0
    3.8496   -2.8642    8.1775 C   0  0  0  0  0  0  0  0  0  0  0  0
    4.7162   -1.8343    8.2757 C   0  0  0  0  0  0  0  0  0  0  0  0
    3.4377   -3.6510    9.1719 F   0  0  0  0  0  0  0  0  0  0  0  0
    3.9089   -2.0278    4.6189 C   0  0  0  0  0  0  0  0  0  0  0  0
    4.9375   -1.9998    3.7261 C   0  0  0  0  0  0  0  0  0  0  0  0
    6.2408   -1.8975    4.0140 F   0  0  0  0  0  0  0  0  0  0  0  0
    4.4586   -2.1641    2.3742 C   0  0  0  0  0  0  0  0  0  0  0  0
    3.1184   -2.3002    2.4257 C   0  0  0  0  0  0  0  0  0  0  0  0
    2.6900   -2.2125    3.8147 C   0  0  0  0  0  0  0  0  0  0  0  0
    1.3877   -2.2363    4.2169 C   0  0  0  0  0  0  0  0  0  0  0  0
    0.8325   -2.0034    5.5554 C   0  0  0  0  0  0  0  0  0  0  0  0
   -0.4972   -2.1922    5.5053 C   0  0  0  0  0  0  0  0  0  0  0  0
   -0.8403   -2.5360    4.1314 C   0  0  0  0  0  0  0  0  0  0  0  0
    0.2587   -2.5324    3.3529 C   0  0  0  0  0  0  0  0  0  0  0  0
   -2.0882   -2.8088    3.7613 F   0  0  0  0  0  0  0  0  0  0  0  0
   -5.6964    2.4816   -6.6804 H   0  0  0  0  0  0  0  0  0  0  0  0
   -3.8526    0.6810   -6.9050 H   0  0  0  0  0  0  0  0  0  0  0  0
   -0.7531   -1.6503   -4.0772 H   0  0  0  0  0  0  0  0  0  0  0  0
    0.8374   -2.2569   -5.9697 H   0  0  0  0  0  0  0  0  0  0  0  0
   -1.7968   -1.5970   -9.9983 H   0  0  0  0  0  0  0  0  0  0  0  0
   -0.3555   -1.7223  -11.0346 H   0  0  0  0  0  0  0  0  0  0  0  0
   -0.9280    0.6855  -10.5938 H   0  0  0  0  0  0  0  0  0  0  0  0
    0.6443    0.2658   -9.9002 H   0  0  0  0  0  0  0  0  0  0  0  0
   -0.7727    0.4012   -8.8562 H   0  0  0  0  0  0  0  0  0  0  0  0
   -7.2558   -1.2518   -0.7324 H   0  0  0  0  0  0  0  0  0  0  0  0
   -8.2692    0.2563    1.0773 H   0  0  0  0  0  0  0  0  0  0  0  0
   -7.6440    5.4857    1.1712 H   0  0  0  0  0  0  0  0  0  0  0  0
   -6.5705    4.6897   -0.0070 H   0  0  0  0  0  0  0  0  0  0  0  0
   -9.6390    4.7224   -0.1329 H   0  0  0  0  0  0  0  0  0  0  0  0
   -8.5695    5.6986   -1.1501 H   0  0  0  0  0  0  0  0  0  0  0  0
   -8.5760    3.9394   -1.3096 H   0  0  0  0  0  0  0  0  0  0  0  0
   -4.9545   -1.7374   -0.2390 H   0  0  0  0  0  0  0  0  0  0  0  0
   -2.8596   -5.8368    2.3942 H   0  0  0  0  0  0  0  0  0  0  0  0
   -0.3850   -5.1903    1.6959 H   0  0  0  0  0  0  0  0  0  0  0  0
    1.3751   -1.2095   -2.4304 H   0  0  0  0  0  0  0  0  0  0  0  0
    1.3044   -4.6562    0.1550 H   0  0  0  0  0  0  0  0  0  0  0  0
   -3.7698    0.7645    0.4660 H   0  0  0  0  0  0  0  0  0  0  0  0
   -3.1203    1.7456   -1.9345 H   0  0  0  0  0  0  0  0  0  0  0  0
    2.0682    1.6577   -4.6379 H   0  0  0  0  0  0  0  0  0  0  0  0
   -2.2421    1.4167   -4.3462 H   0  0  0  0  0  0  0  0  0  0  0  0
    0.0954    1.3738   -0.3359 H   0  0  0  0  0  0  0  0  0  0  0  0
    0.8489    0.1869    4.2947 H   0  0  0  0  0  0  0  0  0  0  0  0
   -1.5545    0.6104    4.9578 H   0  0  0  0  0  0  0  0  0  0  0  0
   -3.3807    3.0765    1.1803 H   0  0  0  0  0  0  0  0  0  0  0  0
   -4.9417    3.3989    1.9843 H   0  0  0  0  0  0  0  0  0  0  0  0
   -2.2671    4.7008    2.7371 H   0  0  0  0  0  0  0  0  0  0  0  0
   -3.5623    5.4920    1.8337 H   0  0  0  0  0  0  0  0  0  0  0  0
   -3.8221    5.0177    3.5185 H   0  0  0  0  0  0  0  0  0  0  0  0
    5.7482    2.2545   -1.5229 H   0  0  0  0  0  0  0  0  0  0  0  0
    8.0468    1.5451   -2.3855 H   0  0  0  0  0  0  0  0  0  0  0  0
   10.8485   -2.3902   -0.2479 H   0  0  0  0  0  0  0  0  0  0  0  0
    9.4562   -1.9012    0.7464 H   0  0  0  0  0  0  0  0  0  0  0  0
    8.9848   -4.0581   -0.4516 H   0  0  0  0  0  0  0  0  0  0  0  0
    7.9071   -2.7844   -1.0314 H   0  0  0  0  0  0  0  0  0  0  0  0
    9.3024   -3.2668   -2.0022 H   0  0  0  0  0  0  0  0  0  0  0  0
    6.4475    0.8596    2.8706 H   0  0  0  0  0  0  0  0  0  0  0  0
    8.1931    1.8161    7.5009 H   0  0  0  0  0  0  0  0  0  0  0  0
    6.7610   -0.0968    8.6395 H   0  0  0  0  0  0  0  0  0  0  0  0
    2.7710   -3.8286    6.4761 H   0  0  0  0  0  0  0  0  0  0  0  0
    5.1713   -1.4692    9.1726 H   0  0  0  0  0  0  0  0  0  0  0  0
    5.0962   -2.1846    1.5084 H   0  0  0  0  0  0  0  0  0  0  0  0
    2.4522   -2.4127    1.5931 H   0  0  0  0  0  0  0  0  0  0  0  0
    1.4077   -1.6917    6.4036 H   0  0  0  0  0  0  0  0  0  0  0  0
   -1.2127   -2.1021    6.3003 H   0  0  0  0  0  0  0  0  0  0  0  0
    0.3078   -2.7347    2.3043 H   0  0  0  0  0  0  0  0  0  0  0  0
  1  2  2  0  0  0  0
  2  3  1  0  0  0  0
  3  4  2  0  0  0  0
  4  5  1  0  0  0  0
  5  6  2  0  0  0  0
  6  7  1  0  0  0  0
  7  8  2  0  0  0  0
  8  9  1  0  0  0  0
  9 10  1  0  0  0  0
 10 11  1  0  0  0  0
  8 12  1  0  0  0  0
  4 13  1  0  0  0  0
 13 14  2  0  0  0  0
 14 15  1  0  0  0  0
 15 16  1  0  0  0  0
 16 17  2  0  0  0  0
 17 18  1  0  0  0  0
 18 19  2  0  0  0  0
 19 20  1  0  0  0  0
 20 21  1  0  0  0  0
 21 22  1  0  0  0  0
 19 23  1  0  0  0  0
 15 24  2  0  0  0  0
 24 25  1  0  0  0  0
 14 26  1  0  0  0  0
 26 27  2  0  0  0  0
 27 28  1  0  0  0  0
 27 29  1  0  0  0  0
 29 30  2  0  0  0  0
 30 31  1  0  0  0  0
 30 32  1  0  0  0  0
 32 33  2  0  0  0  0
 33 34  1  0  0  0  0
 34 35  2  0  0  0  0
 35 36  1  0  0  0  0
 36 37  2  0  0  0  0
 37 38  1  0  0  0  0
 38 39  2  0  0  0  0
 38 40  1  0  0  0  0
 36 41  1  0  0  0  0
 41 42  2  0  0  0  0
 42 43  1  0  0  0  0
 42 44  1  0  0  0  0
 44 45  2  0  0  0  0
 45 46  1  0  0  0  0
 46 47  2  0  0  0  0
 47 48  1  0  0  0  0
 48 49  2  0  0  0  0
 49 50  1  0  0  0  0
 50 51  2  0  0  0  0
 50 52  1  0  0  0  0
 48 53  1  0  0  0  0
 53 54  2  0  0  0  0
 54 55  1  0  0  0  0
 55 56  2  0  0  0  0
 56 57  1  0  0  0  0
 57 58  2  0  0  0  0
 58 59  1  0  0  0  0
 59 60  2  0  0  0  0
 60 61  1  0  0  0  0
 61 62  1  0  0  0  0
 62 63  1  0  0  0  0
 60 64  1  0  0  0  0
 56 65  1  0  0  0  0
 65 66  2  0  0  0  0
 66 67  1  0  0  0  0
 67 68  1  0  0  0  0
 68 69  2  0  0  0  0
 69 70  1  0  0  0  0
 70 71  2  0  0  0  0
 71 72  1  0  0  0  0
 72 73  1  0  0  0  0
 73 74  1  0  0  0  0
 71 75  1  0  0  0  0
 67 76  2  0  0  0  0
 76 77  1  0  0  0  0
 66 78  1  0  0  0  0
 78 79  2  0  0  0  0
 79 80  1  0  0  0  0
 79 81  1  0  0  0  0
 81 82  2  0  0  0  0
 82 83  1  0  0  0  0
 82 84  1  0  0  0  0
 84 85  2  0  0  0  0
 85 86  1  0  0  0  0
 86 87  2  0  0  0  0
 87 88  1  0  0  0  0
 88 89  2  0  0  0  0
 89 90  1  0  0  0  0
 90 91  2  0  0  0  0
 90 92  1  0  0  0  0
 88 93  1  0  0  0  0
 93 94  2  0  0  0  0
 94 95  1  0  0  0  0
 94 96  1  0  0  0  0
 96 97  2  0  0  0  0
 97 98  1  0  0  0  0
 98 99  2  0  0  0  0
 99100  1  0  0  0  0
100101  2  0  0  0  0
101102  1  0  0  0  0
102103  2  0  0  0  0
102104  1  0  0  0  0
 25  1  1  0  0  0  0
 34 29  1  0  0  0  0
 39 35  1  0  0  0  0
 46 41  1  0  0  0  0
 51 47  1  0  0  0  0
 77 53  1  0  0  0  0
 86 81  1  0  0  0  0
 91 87  1  0  0  0  0
 98 93  1  0  0  0  0
103 99  1  0  0  0  0
 24  3  1  0  0  0  0
 76 55  1  0  0  0  0
 12  5  1  0  0  0  0
 28 13  1  0  0  0  0
 64 57  1  0  0  0  0
 80 65  1  0  0  0  0
 23 16  1  0  0  0  0
 75 68  1  0  0  0  0
  1105  1  0  0  0  0
  2106  1  0  0  0  0
  6107  1  0  0  0  0
  7108  1  0  0  0  0
 10109  1  0  0  0  0
 10110  1  0  0  0  0
 11111  1  0  0  0  0
 11112  1  0  0  0  0
 11113  1  0  0  0  0
 17114  1  0  0  0  0
 18115  1  0  0  0  0
 21116  1  0  0  0  0
 21117  1  0  0  0  0
 22118  1  0  0  0  0
 22119  1  0  0  0  0
 22120  1  0  0  0  0
 26121  1  0  0  0  0
 32122  1  0  0  0  0
 33123  1  0  0  0  0
 37124  1  0  0  0  0
 39125  1  0  0  0  0
 44126  1  0  0  0  0
 45127  1  0  0  0  0
 49128  1  0  0  0  0
 51129  1  0  0  0  0
 54130  1  0  0  0  0
 58131  1  0  0  0  0
 59132  1  0  0  0  0
 62133  1  0  0  0  0
 62134  1  0  0  0  0
 63135  1  0  0  0  0
 63136  1  0  0  0  0
 63137  1  0  0  0  0
 69138  1  0  0  0  0
 70139  1  0  0  0  0
 73140  1  0  0  0  0
 73141  1  0  0  0  0
 74142  1  0  0  0  0
 74143  1  0  0  0  0
 74144  1  0  0  0  0
 78145  1  0  0  0  0
 84146  1  0  0  0  0
 85147  1  0  0  0  0
 89148  1  0  0  0  0
 91149  1  0  0  0  0
 96150  1  0  0  0  0
 97151  1  0  0  0  0
100152  1  0  0  0  0
101153  1  0  0  0  0
103154  1  0  0  0  0
M  END
