216

C         -2.42880       -7.04570        5.00760
C         -2.21210       -8.35030        5.25940
C         -0.91310       -8.78760        4.85930
C         -0.36800      -10.08310        4.94400
C         -1.09820      -11.17090        5.55670
C         -1.86860      -11.13330        6.68510
C         -2.55140      -12.32060        7.01230
C         -2.35880      -13.35310        6.13870
S         -3.10190      -14.92660        6.30220
C         -2.50380      -15.72480        4.76720
C         -3.05350      -17.13130        4.65630
Se        -1.16600      -12.87680        4.75890
C          0.88320      -10.26150        4.36290
C          1.62690       -9.22430        3.75360
C          1.10120       -7.91400        3.70190
C          1.80230       -6.81570        3.07300
C          3.15130       -6.57920        3.02010
C          3.55590       -5.41870        2.33300
C          2.53980       -4.67880        1.79920
S          2.75760       -3.20390        0.88410
C          1.18040       -2.34940        1.23870
C          1.09580       -1.87150        2.67250
Se         0.86910       -5.47170        2.13510
C         -0.17000       -7.74640        4.25890
S         -1.07480       -6.25400        4.27670
C          2.84390       -9.71840        3.21190
C          3.03180      -11.05380        3.38550
S          1.72790      -11.78520        4.29020
C          4.13630      -11.86400        2.91740
C          4.67220      -12.88240        3.65570
O          4.20000      -13.30660        4.83940
C          4.92570      -14.31400        5.50010
S          6.09510      -13.56300        2.90890
C          5.95090      -12.44740        1.57200
O          6.80040      -12.44980        0.53030
C          7.86850      -13.36480        0.57590
C          4.85940      -11.63490        1.68990
C          4.45650      -10.65180        0.70710
C          3.16130      -10.43800        0.42430
C          2.63080       -9.27970       -0.21550
C          1.31210       -8.92720       -0.21710
C          1.06500       -7.60170       -0.64540
C         -0.17010       -6.91580       -0.66240
C         -1.39320       -7.48200       -0.13760
C         -2.67430       -7.18800       -0.52070
C         -3.70460       -7.77930        0.23550
C         -3.28710       -8.55930        1.27380
S         -4.35490       -9.33610        2.42230
C         -3.36000      -10.80180        2.86380
C         -3.26820      -11.79830        1.72830
Se        -1.41110       -8.60390        1.38250
C         -0.12120       -5.59880       -1.12020
C          1.06890       -4.97570       -1.56650
C          2.30540       -5.65540       -1.53520
C          3.54540       -5.02550       -1.92990
C          4.77210       -5.17650       -1.34470
C          5.83040       -4.44250       -1.91120
C          5.49690       -3.67920       -2.99330
S          6.63780       -2.67220       -3.85690
C          5.55370       -1.45860       -4.69600
C          5.06330       -1.95040       -6.04220
Se         3.68080       -3.88460       -3.42680
C          2.26200       -6.95490       -1.04100
S          3.64550       -7.99350       -0.82240
C          0.86160       -3.61380       -1.87960
C         -0.41650       -3.18380       -1.68110
S         -1.45530       -4.46880       -1.11130
C         -0.85190       -1.83700       -1.85880
C         -0.18510       -0.88070       -2.56550
C         -0.77280        0.40210       -2.48280
C         -0.30660        1.59590       -3.06920
C          0.78770        1.58850       -4.01130
C          1.03330        0.65170       -4.97810
C          2.18740        0.85340       -5.75750
C          2.92160        1.95740       -5.42810
S          4.44720        2.36250       -6.18210
C          4.68540        4.08980       -5.63720
C          3.75850        5.05640       -6.34430
Se         2.12850        2.91260       -4.00760
C         -0.95160        2.75820       -2.66600
C         -2.07090        2.78180       -1.80030
C         -2.61810        1.56930       -1.32220
C         -3.82610        1.54470       -0.53320
C         -4.91430        2.36760       -0.65410
C         -5.97020        2.13740        0.24660
C         -5.76050        1.12200        1.13670
S         -6.88610        0.70170        2.40630
C         -6.29320       -0.95770        2.88890
C         -6.61900       -2.01040        1.84940
Se        -4.07980        0.31080        0.87050
C         -1.91340        0.41190       -1.64820
S         -2.28010       -1.19600       -1.07480
C         -2.45790        4.11030       -1.48770
C         -1.69910        5.06180       -2.10090
S         -0.46900        4.36140       -3.13560
C         -1.76820        6.47930       -1.99630
C         -0.89550        7.37180       -2.54210
C         -1.20550        8.72560       -2.27070
C         -0.44770        9.86140       -2.62850
C          0.75090        9.77880       -3.43560
C          1.88380       10.53400       -3.31180
C          2.87980       10.32930       -4.28730
C          2.56940        9.41250       -5.24790
S          3.67190        8.89530       -6.50470
C          2.49890        8.35100       -7.79720
C          1.75670        9.51580       -8.41810
Se         0.87640        8.64400       -4.94030
C         -0.92540       11.08180       -2.15690
C         -2.11860       11.20300       -1.41040
C         -2.84710       10.06700       -1.00020
C         -3.94600       10.17120       -0.06590
C         -5.00320        9.31520        0.08190
C         -5.85090        9.54550        1.18370
C         -5.48750       10.59640        1.97170
S         -6.23570       11.19920        3.43460
C         -7.96640       10.63570        3.26150
C         -8.67590       11.31420        2.10690
Se        -3.96810       11.47500        1.31520
C         -2.36680        8.84520       -1.46700
S         -3.04120        7.27650       -1.09980
C         -2.43030       12.55430       -1.13440
C         -1.49470       13.44590       -1.55990
S         -0.19030       12.64430       -2.41170
C         -1.48210       14.84480       -1.21600
C         -2.06470       15.26680       -0.04450
O         -2.73880       14.49740        0.83230
C         -3.01790       15.05840        2.09500
S         -1.83370       16.97050        0.21950
C         -0.94050       17.10730       -1.27540
O         -0.44330       18.28860       -1.68440
C         -0.79550       19.42650       -0.93570
C         -0.83830       15.91310       -1.93750
C         -0.22130       15.73310       -3.23730
C          0.59630       16.58920       -3.83850
H         -3.31600       -6.47360        5.19510
H         -2.95470       -9.00210        5.68150
H         -1.91900      -10.25840        7.31170
H         -3.18140      -12.41270        7.88010
H         -1.41030      -15.72440        4.80960
H         -2.83370      -15.09930        3.93230
H         -2.73410      -17.73190        5.50460
H         -4.14060      -17.11340        4.63620
H         -2.69350      -17.59720        3.74170
H          3.86320       -7.19330        3.54500
H          4.58620       -5.11470        2.25810
H          0.37400       -3.05070        1.00280
H          1.14880       -1.51820        0.53480
H          1.92480       -1.20620        2.90260
H          0.16010       -1.33780        2.82560
H          1.12630       -2.71850        3.35860
H          3.54700       -9.10530        2.68290
H          4.38270      -14.52240        6.41940
H          4.98390      -15.22140        4.88940
H          5.94140      -13.97920        5.73580
H          8.50230      -13.18850        1.45170
H          7.50280      -14.39670        0.60520
H          8.44350      -13.20340       -0.33340
H          5.23290      -10.05540        0.24730
H          2.41180      -11.10610        0.82840
H          0.54640       -9.61970        0.09240
H         -2.89270       -6.58800       -1.38790
H         -4.74760       -7.63700        0.01050
H         -3.85380      -11.23110        3.73600
H         -2.37000      -10.43620        3.15370
H         -2.79550      -11.34090        0.85870
H         -2.66390      -12.65050        2.04010
H         -4.25750      -12.14870        1.44360
H          4.91000       -5.76250       -0.45270
H          6.82870       -4.45440       -1.50930
H          6.16950       -0.56690       -4.80980
H          4.72590       -1.24050       -4.01750
H          5.90360       -2.23010       -6.67290
H          4.41170       -2.81790       -5.92380
H          4.50560       -1.15720       -6.53510
H          1.64910       -2.93860       -2.16160
H          0.72200       -1.07910       -3.10520
H          0.35250       -0.16010       -5.17290
H          2.46510        0.19610       -6.56330
H          4.53790        4.10630       -4.55260
H          5.72930        4.30720       -5.86050
H          2.71650        4.82880       -6.11570
H          3.89970        4.99880       -7.42120
H          3.97100        6.07170       -6.01520
H         -4.98910        3.10520       -1.43530
H         -6.88300        2.70770        0.23350
H         -5.21500       -0.87700        3.06080
H         -6.79240       -1.16460        3.83500
H         -6.27070       -2.98350        2.18910
H         -7.69220       -2.05880        1.68070
H         -6.12730       -1.78210        0.90340
H         -3.23660        4.36310       -0.79100
H         -0.02830        7.04200       -3.08950
H          2.02480       11.22820       -2.50130
H          3.81530       10.86130       -4.28440
H          1.81510        7.63480       -7.33090
H          3.11510        7.83260       -8.53070
H          1.16020       10.03370       -7.66760
H          1.09060        9.15550       -9.19920
H          2.45760       10.22480       -8.85280
H         -5.20710        8.52250       -0.61770
H         -6.70470        8.91990        1.38000
H         -7.95910        9.55110        3.16170
H         -8.42280       10.89890        4.21540
H         -9.70780       10.97240        2.05550
H         -8.18540       11.08270        1.16350
H         -8.67130       12.39330        2.24250
H         -3.35190       12.87840       -0.68870
H         -2.09950       15.36810        2.60330
H         -3.51260       14.27410        2.66680
H         -3.68320       15.92310        1.99960
H         -0.42670       19.35030        0.09300
H         -1.88140       19.56590       -0.91300
H         -0.32600       20.27310       -1.43220
H         -0.48170       14.80880       -3.73410
H          0.99690       16.37730       -4.81490
H          0.89290       17.51520       -3.38120
