290

C         -5.35310        3.27220        6.20110
C         -4.77370        3.57110        5.02110
C         -4.92850        2.53430        4.05320
C         -4.40340        2.47710        2.75620
C         -3.69480        3.61980        2.15720
C         -4.35420        4.83200        1.98350
C         -3.73750        5.89420        1.35340
C         -2.43570        5.77820        0.88230
S         -1.59350        7.06990        0.01530
C         -2.93810        7.80380       -0.99250
C         -3.52740        9.07080       -0.40510
C         -1.76980        4.57400        1.10160
F         -0.49600        4.43660        0.68510
C         -2.38160        3.50080        1.71490
C         -4.61200        1.30270        2.04970
C         -5.34970        0.20830        2.56670
C         -5.90230        0.27690        3.85490
C         -6.68390       -0.82910        4.42120
C         -6.19560       -2.13170        4.43830
C         -6.93820       -3.16920        4.97040
C         -8.19990       -2.94010        5.50690
S         -9.27590       -4.15280        6.19230
C         -8.29170       -5.69000        6.19590
C         -7.25600       -5.71740        7.30440
C         -8.67500       -1.62670        5.48640
C         -7.94470       -0.58580        4.96260
F         -9.89810       -1.36850        5.98950
C         -5.66620        1.44190        4.57030
S         -6.14890        1.73730        6.22090
C         -5.43180       -0.85870        1.63570
C         -4.77410       -0.61720        0.46660
S         -4.04660        0.97870        0.43130
C         -4.53750       -1.54720       -0.59470
C         -4.58650       -2.90780       -0.50080
C         -4.10640       -3.57640       -1.65480
C         -3.83330       -4.94980       -1.79420
C         -4.22360       -5.90730       -0.75150
C         -3.30670       -6.80620       -0.20750
C         -3.68990       -7.69590        0.77100
C         -5.00100       -7.73680        1.24720
S         -5.36020       -8.96830        2.45800
C         -6.75070       -8.27050        3.43620
C         -6.80530       -8.98760        4.77110
C         -5.90780       -6.84060        0.68890
F         -7.20510       -6.82750        1.07650
C         -5.53260       -5.93280       -0.28120
C         -3.11030       -5.32430       -2.91560
C         -2.72870       -4.41160       -3.93170
C         -3.04760       -3.04900       -3.81650
C         -2.59330       -2.06890       -4.81270
C         -1.24890       -1.98390       -5.17290
C         -0.83490       -1.08540       -6.13160
C         -1.73630       -0.22740       -6.75890
S         -1.07810        0.88920       -7.96220
C         -2.36600        0.97200       -9.26040
C         -2.70130       -0.39480       -9.82160
C         -3.06440       -0.28350       -6.34760
C         -3.49650       -1.19200       -5.40140
F         -3.98770        0.55220       -6.87080
C         -3.71040       -2.66230       -2.66240
S         -3.97630       -1.01150       -2.16430
C         -1.89110       -5.01640       -4.90120
C         -1.55320       -6.30540       -4.60530
S         -2.43820       -6.91040       -3.21360
C         -0.34930       -6.95180       -5.01980
C          0.32750       -7.90110       -4.31080
C          1.73010       -7.88260       -4.53180
C          2.69900       -8.41070       -3.65920
C          2.28490       -9.32120       -2.58170
C          1.61150      -10.50240       -2.87680
C          1.17650      -11.34780       -1.87420
C          1.38960      -11.03340       -0.53650
S          0.84800      -11.99020        0.83960
C          0.47700      -13.62900        0.12630
C          1.72980      -14.35590       -0.32340
C          2.05200       -9.83660       -0.25640
F          2.24680       -9.48220        1.02980
C          2.50150       -8.99200       -1.24560
C          3.97440       -7.87910       -3.75800
C          4.34000       -6.93170       -4.74940
C          3.38430       -6.44590       -5.65790
C          3.64820       -5.27350       -6.50710
C          4.11330       -4.09050       -5.93090
C          4.28600       -2.95710       -6.69340
C          4.00730       -2.95240       -8.05920
S          4.30180       -1.43820       -8.92400
C          2.95320       -1.33270      -10.15510
C          1.58430       -1.33930       -9.50620
C          3.56140       -4.14340       -8.62380
C          3.36260       -5.28210       -7.86580
F          3.30050       -4.22910       -9.94610
C          2.09450       -6.92400       -5.50860
S          0.68560       -6.15080       -6.19790
C          5.60340       -6.35190       -4.49100
C          6.12870       -6.71080       -3.27890
S          5.23240       -8.03330       -2.55240
C          6.91440       -5.82380       -2.47480
C          7.38110       -4.60600       -2.88540
C          7.44660       -3.64230       -1.84850
C          7.50300       -2.24740       -2.02830
C          7.75280       -1.70530       -3.37070
C          6.82710       -0.87160       -3.99010
C          7.00630       -0.44460       -5.29230
C          8.12950       -0.82370       -6.01890
S          8.47040       -0.39380       -7.68960
C          7.19790        0.84150       -8.11480
C          7.45880        2.18790       -7.46600
C          9.05870       -1.64680       -5.37670
F         10.16210       -2.03390       -6.04820
C          8.88380       -2.09330       -4.08710
C          7.13590       -1.46900       -0.94220
C          6.76940       -2.02610        0.30890
C          6.74560       -3.41680        0.49870
C          6.17300       -4.01060        1.71610
C          4.88990       -3.65050        2.12480
C          4.30590       -4.23010        3.23250
C          4.98300       -5.19740        3.96670
S          4.30050       -5.99240        5.38870
C          2.52780       -6.13460        4.95490
C          2.30970       -6.94080        3.69070
C          6.27150       -5.53780        3.55730
C          6.86370       -4.97040        2.44760
F          6.96580       -6.45480        4.25510
C          7.08100       -4.19480       -0.59540
S          6.77060       -5.90910       -0.72310
C          6.28750       -1.04310        1.20470
C          6.21400        0.20540        0.66040
S          6.89270        0.26280       -0.95440
C          5.45490        1.27650        1.22700
C          4.38590        1.06290        2.04780
C          3.67730        2.23330        2.40310
C          2.51370        2.32710        3.20080
C          1.97900        1.17850        3.89850
C          0.66900        0.88940        4.16880
C          0.42440       -0.29150        4.89690
C          1.53920       -0.99000        5.26290
S          1.51030       -2.55960        6.03540
C          3.20600       -2.67340        6.70840
C          3.41160       -1.75690        7.89560
Se         3.10310       -0.14440        4.64940
C          1.91800        3.58680        3.24980
C          2.47170        4.72220        2.61000
C          3.68830        4.64350        1.89930
C          4.29880        5.82180        1.33010
C          4.36650        7.07000        1.88680
C          4.99780        8.06160        1.11360
C          5.45450        7.64000       -0.10420
S          6.28570        8.69800       -1.22520
C          6.72110        7.56930       -2.59340
C          5.56010        7.32030       -3.53520
Se         5.10600        5.80720       -0.37090
C          4.23590        3.37310        1.78010
S          5.65500        2.96790        0.84570
C          1.63950        5.85560        2.72640
C          0.50620        5.64150        3.45670
S          0.42230        4.00050        4.05340
C         -0.54380        6.59340        3.61660
C         -0.50890        7.86130        3.11480
C         -1.73030        8.56300        3.21340
C         -2.04090        9.83030        2.67980
C         -1.09070       10.60210        1.90810
C         -0.96660       11.96570        1.86480
C          0.02220       12.47710        1.00330
C          0.72750       11.53500        0.30930
S          2.01470       11.89340       -0.81940
C          2.96330       10.32720       -0.81390
C          2.44090        9.30950       -1.80680
Se         0.10670        9.80550        0.68630
C         -3.34720       10.27240        2.89240
C         -4.31520        9.51950        3.59540
C         -3.99350        8.25970        4.12850
C         -4.95400        7.49230        4.90700
C         -4.84250        7.16360        6.22320
C         -5.93600        6.46610        6.77840
C         -6.95210        6.19420        5.91000
S         -8.44020        5.40250        6.38390
C         -9.17160        4.96400        4.76960
C         -8.48030        3.77900        4.12800
Se        -6.58300        6.87380        4.19410
C         -2.70340        7.80470        3.90630
S         -2.08610        6.23450        4.36420
C         -5.57230       10.19110        3.65110
C         -5.56610       11.37180        3.00170
S         -4.03520       11.76280        2.29830
H         -5.37350        3.86440        7.09360
H         -4.22640        4.47750        4.83290
H         -5.37360        4.93870        2.32720
H         -4.27830        6.81890        1.22680
H         -3.68980        7.02790       -1.12970
H         -2.46550        8.01610       -1.95170
H         -3.97680        8.88930        0.56850
H         -2.75690        9.83070       -0.28780
H         -4.29400        9.46030       -1.07240
H         -1.83140        2.58130        1.83960
H         -5.20810       -2.33520        4.05160
H         -6.51960       -4.16240        4.96060
H         -9.04000       -6.46800        6.34790
H         -7.85450       -5.81950        5.20690
H         -7.74290       -5.62280        8.27190
H         -6.54560       -4.90040        7.20010
H         -6.71040       -6.65890        7.28020
H         -8.37090        0.40440        4.96140
H         -5.97530       -1.76560        1.82620
H         -4.87830       -3.42210        0.39640
H         -2.27840       -6.78820       -0.53200
H         -2.97330       -8.38350        1.19270
H         -6.55070       -7.20740        3.56320
H         -7.67470       -8.40910        2.87740
H         -5.87960       -8.83960        5.32310
H         -6.94740      -10.05520        4.62090
H         -7.63500       -8.60670        5.36250
H         -6.28200       -5.27090       -0.68780
H         -0.52290       -2.61850       -4.68790
H          0.20490       -1.03230       -6.41460
H         -1.91050        1.60810      -10.01960
H         -3.24300        1.47380       -8.85770
H         -3.40290       -0.28860      -10.64640
H         -3.15890       -1.02610       -9.06230
H         -1.80420       -0.89080      -10.18630
H         -4.54210       -1.20730       -5.13520
H         -1.47230       -4.48810       -5.73840
H         -0.13630       -8.48690       -3.53670
H          1.43140      -10.76660       -3.90830
H          0.65470      -12.25080       -2.14600
H         -0.24770      -13.50640       -0.67760
H         -0.00530      -14.15870        0.94800
H          1.46920      -15.34080       -0.70620
H          2.24390      -13.80290       -1.10670
H          2.41300      -14.47760        0.51390
H          2.99390       -8.07470       -0.96540
H          4.30350       -4.04950       -4.86900
H          4.63740       -2.04510       -6.23620
H          3.07030       -2.14010      -10.87440
H          3.14630       -0.38270      -10.65370
H          1.40620       -2.27430       -8.97720
H          0.82170       -1.23070      -10.27470
H          1.48580       -0.51490       -8.80310
H          3.00390       -6.17500       -8.35400
H          6.03630       -5.59480       -5.11730
H          7.54530       -4.35730       -3.91780
H          5.93560       -0.57550       -3.45860
H          6.25110        0.17860       -5.74290
H          6.21990        0.43180       -7.86740
H          7.27130        0.91470       -9.19970
H          8.42910        2.57060       -7.77360
H          7.45130        2.11090       -6.38090
H          6.69180        2.89780       -7.76990
H          9.63130       -2.73160       -3.64210
H          4.33200       -2.92550        1.55090
H          3.31150       -3.92890        3.52440
H          2.10060       -6.64060        5.82050
H          2.09480       -5.13670        4.88930
H          2.75130       -6.44370        2.82930
H          1.24350       -7.06000        3.51050
H          2.75570       -7.92810        3.78090
H          7.85840       -5.27780        2.16500
H          5.98240       -1.26200        2.21170
H          4.06920        0.06620        2.29980
H         -0.14070        1.50620        3.81820
H         -0.56840       -0.62410        5.14710
H          3.89560       -2.44010        5.88980
H          3.32820       -3.71970        6.98710
H          4.42250       -1.87630        8.27890
H          3.27240       -0.71450        7.60810
H          2.70510       -1.99540        8.68740
H          4.00760        7.26980        2.88280
H          5.13300        9.07280        1.45700
H          7.54400        8.06630       -3.10660
H          7.08390        6.64150       -2.14190
H          5.88540        6.68760       -4.35810
H          5.18950        8.25960       -3.93870
H          4.74400        6.81550       -3.01710
H          1.84590        6.77860        2.21920
H          0.38270        8.27640        2.68220
H         -1.54290       12.61450        2.50250
H          0.22950       13.52930        0.91460
H          2.93080        9.93950        0.20680
H          3.98650       10.61580       -1.05360
H          2.48330        9.70450       -2.81890
H          1.40810        9.03640       -1.58160
H          3.04880        8.40820       -1.75090
H         -3.98000        7.43940        6.80670
H         -5.97840        6.18020        7.81530
H        -10.21440        4.74000        4.99230
H         -9.12350        5.85650        4.13730
H         -8.96810        3.52610        3.18890
H         -8.52430        2.91830        4.79080
H         -7.43370        4.00510        3.92520
H         -6.43340        9.79840        4.16340
H         -6.37260       12.07000        2.89160
