
  xtb     03072219243D
 energy: -333.275841966210 gnorm: 0.000527442770 xtb: 6.4.1 (unknown)
200223  0     0  0            999 V2000
    9.1813   -0.3253    6.8077 N   0  0  0  0  0  0  0  0  0  0  0  0
    9.3095    0.3780    5.5389 C   0  0  0  0  0  0  0  0  0  0  0  0
    9.9516    1.7412    5.7880 C   0  0  0  0  0  0  0  0  0  0  0  0
    9.5469    2.7834    4.7401 C   0  0  0  0  0  0  0  0  0  0  0  0
   10.0479    4.1133    5.0492 N   0  0  0  0  0  0  0  0  0  0  0  0
    8.9006    4.7687    6.1947 S   0  0  0  0  0  0  0  0  0  0  0  0
    7.6286    4.2558    5.1976 N   0  0  0  0  0  0  0  0  0  0  0  0
    7.9961    2.9509    4.6572 C   0  0  0  0  0  0  0  0  0  0  0  0
    7.2726    1.8524    5.4358 C   0  0  0  0  0  0  0  0  0  0  0  0
    7.8546    0.4970    5.0407 C   0  0  0  0  0  0  0  0  0  0  0  0
    7.1064   -0.5809    5.6629 N   0  0  0  0  0  0  0  0  0  0  0  0
    8.1529   -1.6671    6.5099 S   0  0  0  0  0  0  0  0  0  0  0  0
    5.9695   -1.0750    5.0984 C   0  0  0  0  0  0  0  0  0  0  0  0
    5.3226   -2.2233    5.4275 C   0  0  0  0  0  0  0  0  0  0  0  0
    4.1348   -2.4370    4.6781 C   0  0  0  0  0  0  0  0  0  0  0  0
    3.2159   -3.4987    4.8107 C   0  0  0  0  0  0  0  0  0  0  0  0
    3.3381   -4.4797    5.8654 C   0  0  0  0  0  0  0  0  0  0  0  0
    3.7262   -4.2705    7.1591 C   0  0  0  0  0  0  0  0  0  0  0  0
    3.7866   -5.4121    7.9826 C   0  0  0  0  0  0  0  0  0  0  0  0
    3.4485   -6.5841    7.3703 C   0  0  0  0  0  0  0  0  0  0  0  0
    3.3654   -8.1200    8.2062 S   0  0  0  0  0  0  0  0  0  0  0  0
    3.3106   -9.2975    6.8112 C   0  0  0  0  0  0  0  0  0  0  0  0
    4.6530   -9.4339    6.1216 C   0  0  0  0  0  0  0  0  0  0  0  0
    2.9543   -6.3020    5.5707 Se  0  0  0  0  0  2  0  0  0  0  0  0
    2.1779   -3.5269    3.8880 C   0  0  0  0  0  0  0  0  0  0  0  0
    1.9783   -2.5399    2.9022 C   0  0  0  0  0  0  0  0  0  0  0  0
    2.8295   -1.4167    2.8343 C   0  0  0  0  0  0  0  0  0  0  0  0
    2.5456   -0.2902    1.9737 C   0  0  0  0  0  0  0  0  0  0  0  0
    3.4207    0.6418    1.4873 C   0  0  0  0  0  0  0  0  0  0  0  0
    2.8596    1.7523    0.8274 C   0  0  0  0  0  0  0  0  0  0  0  0
    1.4994    1.7666    0.7659 C   0  0  0  0  0  0  0  0  0  0  0  0
    0.5653    2.9990   -0.0567 S   0  0  0  0  0  0  0  0  0  0  0  0
   -0.8723    3.1961    1.0612 C   0  0  0  0  0  0  0  0  0  0  0  0
   -1.9971    2.2268    0.7618 C   0  0  0  0  0  0  0  0  0  0  0  0
    0.7758    0.2162    1.5419 Se  0  0  0  0  0  2  0  0  0  0  0  0
    3.9128   -1.4282    3.7148 C   0  0  0  0  0  0  0  0  0  0  0  0
    5.1570   -0.2013    3.8156 S   0  0  0  0  0  0  0  0  0  0  0  0
    0.8460   -2.8190    2.0913 C   0  0  0  0  0  0  0  0  0  0  0  0
    0.1737   -3.9389    2.4740 C   0  0  0  0  0  0  0  0  0  0  0  0
    0.9105   -4.7366    3.8409 S   0  0  0  0  0  0  0  0  0  0  0  0
   -0.9586   -4.4447    1.9255 N   0  0  0  0  0  0  0  0  0  0  0  0
   -1.6799   -3.7700    0.8691 C   0  0  0  0  0  0  0  0  0  0  0  0
   -2.3887   -2.5027    1.3525 C   0  0  0  0  0  0  0  0  0  0  0  0
   -3.3438   -2.0118    0.2764 C   0  0  0  0  0  0  0  0  0  0  0  0
   -4.0322   -0.7990    0.6983 N   0  0  0  0  0  0  0  0  0  0  0  0
   -5.5688   -0.8386   -0.0206 S   0  0  0  0  0  0  0  0  0  0  0  0
   -5.6821   -2.5474    0.3221 N   0  0  0  0  0  0  0  0  0  0  0  0
   -4.4043   -3.1010   -0.0961 C   0  0  0  0  0  0  0  0  0  0  0  0
   -4.1258   -4.4309    0.6058 C   0  0  0  0  0  0  0  0  0  0  0  0
   -2.6802   -4.8176    0.3085 C   0  0  0  0  0  0  0  0  0  0  0  0
   -2.3551   -6.1300    0.8691 N   0  0  0  0  0  0  0  0  0  0  0  0
   -1.8100   -5.8396    2.4495 S   0  0  0  0  0  0  0  0  0  0  0  0
   -1.5443   -6.9895    0.1318 N   0  0  0  0  0  0  0  0  0  0  0  0
   -2.2251   -7.7180   -0.9336 C   0  0  0  0  0  0  0  0  0  0  0  0
   -1.9801   -9.2100   -0.7309 C   0  0  0  0  0  0  0  0  0  0  0  0
   -2.5329  -10.0365   -1.8930 C   0  0  0  0  0  0  0  0  0  0  0  0
   -2.1899  -11.4488   -1.8090 N   0  0  0  0  0  0  0  0  0  0  0  0
   -0.6405  -11.6064   -2.6028 S   0  0  0  0  0  0  0  0  0  0  0  0
   -1.2162  -10.6471   -3.8787 N   0  0  0  0  0  0  0  0  0  0  0  0
   -1.9616   -9.5544   -3.2660 C   0  0  0  0  0  0  0  0  0  0  0  0
   -1.0176   -8.3664   -3.0903 C   0  0  0  0  0  0  0  0  0  0  0  0
   -1.6898   -7.2323   -2.3224 C   0  0  0  0  0  0  0  0  0  0  0  0
   -0.7117   -6.1791   -2.0929 N   0  0  0  0  0  0  0  0  0  0  0  0
   -0.0389   -6.4709   -0.5259 S   0  0  0  0  0  0  0  0  0  0  0  0
   -0.9452   -4.8730   -2.4574 C   0  0  0  0  0  0  0  0  0  0  0  0
   -2.0479   -4.2783   -2.9843 C   0  0  0  0  0  0  0  0  0  0  0  0
   -1.9483   -2.8597   -3.0463 C   0  0  0  0  0  0  0  0  0  0  0  0
   -2.9692   -1.9625   -3.4135 C   0  0  0  0  0  0  0  0  0  0  0  0
   -4.2480   -2.4013   -3.9335 C   0  0  0  0  0  0  0  0  0  0  0  0
   -5.4790   -1.8923   -3.6304 C   0  0  0  0  0  0  0  0  0  0  0  0
   -6.5674   -2.4393   -4.3408 C   0  0  0  0  0  0  0  0  0  0  0  0
   -6.2431   -3.3964   -5.2555 C   0  0  0  0  0  0  0  0  0  0  0  0
   -7.4111   -4.3039   -6.1891 S   0  0  0  0  0  0  0  0  0  0  0  0
   -6.4398   -4.6675   -7.6951 C   0  0  0  0  0  0  0  0  0  0  0  0
   -6.1641   -3.4203   -8.5086 C   0  0  0  0  0  0  0  0  0  0  0  0
   -4.3869   -3.7419   -5.2593 Se  0  0  0  0  0  2  0  0  0  0  0  0
   -2.6935   -0.6113   -3.2166 C   0  0  0  0  0  0  0  0  0  0  0  0
   -1.4442   -0.1369   -2.7537 C   0  0  0  0  0  0  0  0  0  0  0  0
   -0.3859   -1.0310   -2.4694 C   0  0  0  0  0  0  0  0  0  0  0  0
    0.9466   -0.5630   -2.1652 C   0  0  0  0  0  0  0  0  0  0  0  0
    1.9398   -1.1940   -1.4586 C   0  0  0  0  0  0  0  0  0  0  0  0
    3.2006   -0.5727   -1.4582 C   0  0  0  0  0  0  0  0  0  0  0  0
    3.2731    0.5825   -2.1858 C   0  0  0  0  0  0  0  0  0  0  0  0
    4.6917    1.5907   -2.3169 S   0  0  0  0  0  0  0  0  0  0  0  0
    4.1162    2.7796   -3.5882 C   0  0  0  0  0  0  0  0  0  0  0  0
    5.2201    3.7539   -3.9424 C   0  0  0  0  0  0  0  0  0  0  0  0
    1.6216    1.0135   -2.9543 Se  0  0  0  0  0  2  0  0  0  0  0  0
   -0.7045   -2.3848   -2.5718 C   0  0  0  0  0  0  0  0  0  0  0  0
    0.3317   -3.7230   -2.1185 S   0  0  0  0  0  0  0  0  0  0  0  0
   -1.4453    1.2712   -2.6142 C   0  0  0  0  0  0  0  0  0  0  0  0
   -2.6150    1.8639   -2.9864 C   0  0  0  0  0  0  0  0  0  0  0  0
   -3.8000    0.6983   -3.5292 S   0  0  0  0  0  0  0  0  0  0  0  0
   -2.9092    3.2562   -2.9341 C   0  0  0  0  0  0  0  0  0  0  0  0
   -4.0635    3.9001   -3.2609 C   0  0  0  0  0  0  0  0  0  0  0  0
   -4.0002    5.3060   -3.0818 C   0  0  0  0  0  0  0  0  0  0  0  0
   -5.0088    6.2620   -3.3116 C   0  0  0  0  0  0  0  0  0  0  0  0
   -6.2885    5.8925   -3.8734 C   0  0  0  0  0  0  0  0  0  0  0  0
   -6.5312    4.9963   -4.8771 C   0  0  0  0  0  0  0  0  0  0  0  0
   -7.8822    4.8097   -5.2278 C   0  0  0  0  0  0  0  0  0  0  0  0
   -8.7752    5.5438   -4.5005 C   0  0  0  0  0  0  0  0  0  0  0  0
  -10.5094    5.4097   -4.6834 S   0  0  0  0  0  0  0  0  0  0  0  0
  -11.0896    6.9145   -3.8256 C   0  0  0  0  0  0  0  0  0  0  0  0
  -10.8179    8.1727   -4.6245 C   0  0  0  0  0  0  0  0  0  0  0  0
   -7.9011    6.6192   -3.2215 Se  0  0  0  0  0  2  0  0  0  0  0  0
   -4.6899    7.5793   -2.9883 C   0  0  0  0  0  0  0  0  0  0  0  0
   -3.4394    7.9846   -2.4709 C   0  0  0  0  0  0  0  0  0  0  0  0
   -2.4383    7.0250   -2.2153 C   0  0  0  0  0  0  0  0  0  0  0  0
   -1.1751    7.3859   -1.6108 C   0  0  0  0  0  0  0  0  0  0  0  0
   -0.9684    8.3249   -0.6371 C   0  0  0  0  0  0  0  0  0  0  0  0
    0.3670    8.5312   -0.2450 C   0  0  0  0  0  0  0  0  0  0  0  0
    1.2875    7.7644   -0.9019 C   0  0  0  0  0  0  0  0  0  0  0  0
    3.0109    7.9670   -0.6868 S   0  0  0  0  0  0  0  0  0  0  0  0
    3.6838    6.4615   -1.4699 C   0  0  0  0  0  0  0  0  0  0  0  0
    3.5034    5.2382   -0.5964 C   0  0  0  0  0  0  0  0  0  0  0  0
    0.4603    6.6009   -2.1351 Se  0  0  0  0  0  2  0  0  0  0  0  0
   -2.7486    5.7137   -2.5632 C   0  0  0  0  0  0  0  0  0  0  0  0
   -1.6719    4.3621   -2.3646 S   0  0  0  0  0  0  0  0  0  0  0  0
   -3.3686    9.4025   -2.3301 C   0  0  0  0  0  0  0  0  0  0  0  0
   -4.5063   10.0277   -2.6921 C   0  0  0  0  0  0  0  0  0  0  0  0
   -5.7422    8.9474   -3.2373 S   0  0  0  0  0  0  0  0  0  0  0  0
   10.0650   -0.6349    7.1953 H   0  0  0  0  0  0  0  0  0  0  0  0
    9.8963   -0.1908    4.7991 H   0  0  0  0  0  0  0  0  0  0  0  0
   11.0394    1.6383    5.7935 H   0  0  0  0  0  0  0  0  0  0  0  0
    9.6414    2.0984    6.7728 H   0  0  0  0  0  0  0  0  0  0  0  0
    9.9506    2.4988    3.7611 H   0  0  0  0  0  0  0  0  0  0  0  0
   10.9825    4.1096    5.4391 H   0  0  0  0  0  0  0  0  0  0  0  0
    7.4669    4.9358    4.4620 H   0  0  0  0  0  0  0  0  0  0  0  0
    7.6778    2.9051    3.6109 H   0  0  0  0  0  0  0  0  0  0  0  0
    6.2096    1.8929    5.2009 H   0  0  0  0  0  0  0  0  0  0  0  0
    7.3870    2.0079    6.5079 H   0  0  0  0  0  0  0  0  0  0  0  0
    7.8181    0.3985    3.9448 H   0  0  0  0  0  0  0  0  0  0  0  0
    5.7084   -2.9098    6.1583 H   0  0  0  0  0  0  0  0  0  0  0  0
    3.9374   -3.2854    7.5396 H   0  0  0  0  0  0  0  0  0  0  0  0
    4.0757   -5.3692    9.0186 H   0  0  0  0  0  0  0  0  0  0  0  0
    2.5352   -8.9447    6.1236 H   0  0  0  0  0  0  0  0  0  0  0  0
    2.9944  -10.2405    7.2562 H   0  0  0  0  0  0  0  0  0  0  0  0
    5.4120   -9.7590    6.8294 H   0  0  0  0  0  0  0  0  0  0  0  0
    4.5830  -10.1643    5.3184 H   0  0  0  0  0  0  0  0  0  0  0  0
    4.9613   -8.4793    5.6944 H   0  0  0  0  0  0  0  0  0  0  0  0
    4.4880    0.5345    1.5710 H   0  0  0  0  0  0  0  0  0  0  0  0
    3.4617    2.5425    0.4154 H   0  0  0  0  0  0  0  0  0  0  0  0
   -0.4920    3.0737    2.0760 H   0  0  0  0  0  0  0  0  0  0  0  0
   -1.1920    4.2278    0.9148 H   0  0  0  0  0  0  0  0  0  0  0  0
   -2.4036    2.4002   -0.2302 H   0  0  0  0  0  0  0  0  0  0  0  0
   -2.7955    2.3529    1.4898 H   0  0  0  0  0  0  0  0  0  0  0  0
   -1.6492    1.1925    0.8121 H   0  0  0  0  0  0  0  0  0  0  0  0
    0.5877   -2.2601    1.2096 H   0  0  0  0  0  0  0  0  0  0  0  0
   -0.9564   -3.4972    0.0920 H   0  0  0  0  0  0  0  0  0  0  0  0
   -1.6510   -1.7253    1.5681 H   0  0  0  0  0  0  0  0  0  0  0  0
   -2.9331   -2.7136    2.2752 H   0  0  0  0  0  0  0  0  0  0  0  0
   -2.7742   -1.7560   -0.6251 H   0  0  0  0  0  0  0  0  0  0  0  0
   -4.1293   -0.7725    1.7104 H   0  0  0  0  0  0  0  0  0  0  0  0
   -6.4747   -2.9567   -0.1569 H   0  0  0  0  0  0  0  0  0  0  0  0
   -4.3633   -3.2624   -1.1858 H   0  0  0  0  0  0  0  0  0  0  0  0
   -4.7959   -5.2012    0.2213 H   0  0  0  0  0  0  0  0  0  0  0  0
   -4.2988   -4.3467    1.6776 H   0  0  0  0  0  0  0  0  0  0  0  0
   -2.5820   -4.8817   -0.7767 H   0  0  0  0  0  0  0  0  0  0  0  0
   -3.2965   -7.5085   -0.8484 H   0  0  0  0  0  0  0  0  0  0  0  0
   -0.9078   -9.3870   -0.6284 H   0  0  0  0  0  0  0  0  0  0  0  0
   -2.4592   -9.5171    0.2006 H   0  0  0  0  0  0  0  0  0  0  0  0
   -3.6284   -9.9723   -1.8971 H   0  0  0  0  0  0  0  0  0  0  0  0
   -2.1431  -11.7907   -0.8570 H   0  0  0  0  0  0  0  0  0  0  0  0
   -1.8005  -11.2039   -4.4945 H   0  0  0  0  0  0  0  0  0  0  0  0
   -2.7788   -9.2688   -3.9357 H   0  0  0  0  0  0  0  0  0  0  0  0
   -0.1166   -8.6885   -2.5681 H   0  0  0  0  0  0  0  0  0  0  0  0
   -0.7144   -8.0056   -4.0737 H   0  0  0  0  0  0  0  0  0  0  0  0
   -2.5151   -6.8383   -2.9211 H   0  0  0  0  0  0  0  0  0  0  0  0
   -2.9436   -4.8093   -3.2577 H   0  0  0  0  0  0  0  0  0  0  0  0
   -5.6183   -1.1357   -2.8760 H   0  0  0  0  0  0  0  0  0  0  0  0
   -7.5827   -2.1177   -4.1863 H   0  0  0  0  0  0  0  0  0  0  0  0
   -7.0461   -5.3821   -8.2504 H   0  0  0  0  0  0  0  0  0  0  0  0
   -5.5142   -5.1550   -7.3730 H   0  0  0  0  0  0  0  0  0  0  0  0
   -5.5738   -2.7087   -7.9320 H   0  0  0  0  0  0  0  0  0  0  0  0
   -5.6091   -3.6801   -9.4077 H   0  0  0  0  0  0  0  0  0  0  0  0
   -7.0969   -2.9413   -8.7970 H   0  0  0  0  0  0  0  0  0  0  0  0
    1.7771   -2.1038   -0.9059 H   0  0  0  0  0  0  0  0  0  0  0  0
    4.0457   -0.9754   -0.9277 H   0  0  0  0  0  0  0  0  0  0  0  0
    3.2420    3.2947   -3.1752 H   0  0  0  0  0  0  0  0  0  0  0  0
    3.8115    2.1933   -4.4592 H   0  0  0  0  0  0  0  0  0  0  0  0
    4.8602    4.4634   -4.6840 H   0  0  0  0  0  0  0  0  0  0  0  0
    5.5446    4.3041   -3.0622 H   0  0  0  0  0  0  0  0  0  0  0  0
    6.0770    3.2239   -4.3516 H   0  0  0  0  0  0  0  0  0  0  0  0
   -0.6409    1.8468   -2.1869 H   0  0  0  0  0  0  0  0  0  0  0  0
   -4.9410    3.3745   -3.5914 H   0  0  0  0  0  0  0  0  0  0  0  0
   -5.7340    4.5082   -5.4125 H   0  0  0  0  0  0  0  0  0  0  0  0
   -8.1940    4.1459   -6.0156 H   0  0  0  0  0  0  0  0  0  0  0  0
  -12.1582    6.7566   -3.6832 H   0  0  0  0  0  0  0  0  0  0  0  0
  -10.5960    6.9389   -2.8489 H   0  0  0  0  0  0  0  0  0  0  0  0
   -9.7467    8.3085   -4.7744 H   0  0  0  0  0  0  0  0  0  0  0  0
  -11.3005    8.1162   -5.5974 H   0  0  0  0  0  0  0  0  0  0  0  0
  -11.2024    9.0388   -4.0901 H   0  0  0  0  0  0  0  0  0  0  0  0
   -1.7843    8.8404   -0.1584 H   0  0  0  0  0  0  0  0  0  0  0  0
    0.6499    9.2409    0.5134 H   0  0  0  0  0  0  0  0  0  0  0  0
    3.1856    6.3496   -2.4381 H   0  0  0  0  0  0  0  0  0  0  0  0
    4.7381    6.6869   -1.6311 H   0  0  0  0  0  0  0  0  0  0  0  0
    3.9331    5.4098    0.3883 H   0  0  0  0  0  0  0  0  0  0  0  0
    4.0008    4.3836   -1.0495 H   0  0  0  0  0  0  0  0  0  0  0  0
    2.4463    5.0003   -0.4804 H   0  0  0  0  0  0  0  0  0  0  0  0
   -2.4876    9.9239   -2.0048 H   0  0  0  0  0  0  0  0  0  0  0  0
   -4.7132   11.0798   -2.6867 H   0  0  0  0  0  0  0  0  0  0  0  0
  1  2  1  0  0  0  0
  2  3  1  0  0  0  0
  3  4  1  0  0  0  0
  4  5  1  0  0  0  0
  5  6  1  0  0  0  0
  6  7  1  0  0  0  0
  7  8  1  0  0  0  0
  8  9  1  0  0  0  0
  9 10  1  0  0  0  0
 10 11  1  0  0  0  0
 11 12  1  0  0  0  0
 11 13  1  0  0  0  0
 13 14  2  0  0  0  0
 14 15  1  0  0  0  0
 15 16  2  0  0  0  0
 16 17  1  0  0  0  0
 17 18  2  0  0  0  0
 18 19  1  0  0  0  0
 19 20  2  0  0  0  0
 20 21  1  0  0  0  0
 21 22  1  0  0  0  0
 22 23  1  0  0  0  0
 20 24  1  0  0  0  0
 16 25  1  0  0  0  0
 25 26  2  0  0  0  0
 26 27  1  0  0  0  0
 27 28  1  0  0  0  0
 28 29  2  0  0  0  0
 29 30  1  0  0  0  0
 30 31  2  0  0  0  0
 31 32  1  0  0  0  0
 32 33  1  0  0  0  0
 33 34  1  0  0  0  0
 31 35  1  0  0  0  0
 27 36  2  0  0  0  0
 36 37  1  0  0  0  0
 26 38  1  0  0  0  0
 38 39  2  0  0  0  0
 39 40  1  0  0  0  0
 39 41  1  0  0  0  0
 41 42  1  0  0  0  0
 42 43  1  0  0  0  0
 43 44  1  0  0  0  0
 44 45  1  0  0  0  0
 45 46  1  0  0  0  0
 46 47  1  0  0  0  0
 47 48  1  0  0  0  0
 48 49  1  0  0  0  0
 49 50  1  0  0  0  0
 50 51  1  0  0  0  0
 51 52  1  0  0  0  0
 51 53  1  0  0  0  0
 53 54  1  0  0  0  0
 54 55  1  0  0  0  0
 55 56  1  0  0  0  0
 56 57  1  0  0  0  0
 57 58  1  0  0  0  0
 58 59  1  0  0  0  0
 59 60  1  0  0  0  0
 60 61  1  0  0  0  0
 61 62  1  0  0  0  0
 62 63  1  0  0  0  0
 63 64  1  0  0  0  0
 63 65  1  0  0  0  0
 65 66  2  0  0  0  0
 66 67  1  0  0  0  0
 67 68  2  0  0  0  0
 68 69  1  0  0  0  0
 69 70  2  0  0  0  0
 70 71  1  0  0  0  0
 71 72  2  0  0  0  0
 72 73  1  0  0  0  0
 73 74  1  0  0  0  0
 74 75  1  0  0  0  0
 72 76  1  0  0  0  0
 68 77  1  0  0  0  0
 77 78  2  0  0  0  0
 78 79  1  0  0  0  0
 79 80  1  0  0  0  0
 80 81  2  0  0  0  0
 81 82  1  0  0  0  0
 82 83  2  0  0  0  0
 83 84  1  0  0  0  0
 84 85  1  0  0  0  0
 85 86  1  0  0  0  0
 83 87  1  0  0  0  0
 79 88  2  0  0  0  0
 88 89  1  0  0  0  0
 78 90  1  0  0  0  0
 90 91  2  0  0  0  0
 91 92  1  0  0  0  0
 91 93  1  0  0  0  0
 93 94  2  0  0  0  0
 94 95  1  0  0  0  0
 95 96  2  0  0  0  0
 96 97  1  0  0  0  0
 97 98  2  0  0  0  0
 98 99  1  0  0  0  0
 99100  2  0  0  0  0
100101  1  0  0  0  0
101102  1  0  0  0  0
102103  1  0  0  0  0
100104  1  0  0  0  0
 96105  1  0  0  0  0
105106  2  0  0  0  0
106107  1  0  0  0  0
107108  1  0  0  0  0
108109  2  0  0  0  0
109110  1  0  0  0  0
110111  2  0  0  0  0
111112  1  0  0  0  0
112113  1  0  0  0  0
113114  1  0  0  0  0
111115  1  0  0  0  0
107116  2  0  0  0  0
116117  1  0  0  0  0
106118  1  0  0  0  0
118119  2  0  0  0  0
119120  1  0  0  0  0
 12  1  1  0  0  0  0
 37 13  1  0  0  0  0
 52 41  1  0  0  0  0
 64 53  1  0  0  0  0
 89 65  1  0  0  0  0
117 93  1  0  0  0  0
 10  2  1  0  0  0  0
 36 15  1  0  0  0  0
 50 42  1  0  0  0  0
 62 54  1  0  0  0  0
 88 67  1  0  0  0  0
116 95  1  0  0  0  0
  8  4  1  0  0  0  0
 24 17  1  0  0  0  0
 40 25  1  0  0  0  0
 48 44  1  0  0  0  0
 60 56  1  0  0  0  0
 76 69  1  0  0  0  0
 92 77  1  0  0  0  0
104 97  1  0  0  0  0
120105  1  0  0  0  0
 35 28  1  0  0  0  0
 87 80  1  0  0  0  0
115108  1  0  0  0  0
  1121  1  0  0  0  0
  2122  1  0  0  0  0
  3123  1  0  0  0  0
  3124  1  0  0  0  0
  4125  1  0  0  0  0
  5126  1  0  0  0  0
  7127  1  0  0  0  0
  8128  1  0  0  0  0
  9129  1  0  0  0  0
  9130  1  0  0  0  0
 10131  1  0  0  0  0
 14132  1  0  0  0  0
 18133  1  0  0  0  0
 19134  1  0  0  0  0
 22135  1  0  0  0  0
 22136  1  0  0  0  0
 23137  1  0  0  0  0
 23138  1  0  0  0  0
 23139  1  0  0  0  0
 29140  1  0  0  0  0
 30141  1  0  0  0  0
 33142  1  0  0  0  0
 33143  1  0  0  0  0
 34144  1  0  0  0  0
 34145  1  0  0  0  0
 34146  1  0  0  0  0
 38147  1  0  0  0  0
 42148  1  0  0  0  0
 43149  1  0  0  0  0
 43150  1  0  0  0  0
 44151  1  0  0  0  0
 45152  1  0  0  0  0
 47153  1  0  0  0  0
 48154  1  0  0  0  0
 49155  1  0  0  0  0
 49156  1  0  0  0  0
 50157  1  0  0  0  0
 54158  1  0  0  0  0
 55159  1  0  0  0  0
 55160  1  0  0  0  0
 56161  1  0  0  0  0
 57162  1  0  0  0  0
 59163  1  0  0  0  0
 60164  1  0  0  0  0
 61165  1  0  0  0  0
 61166  1  0  0  0  0
 62167  1  0  0  0  0
 66168  1  0  0  0  0
 70169  1  0  0  0  0
 71170  1  0  0  0  0
 74171  1  0  0  0  0
 74172  1  0  0  0  0
 75173  1  0  0  0  0
 75174  1  0  0  0  0
 75175  1  0  0  0  0
 81176  1  0  0  0  0
 82177  1  0  0  0  0
 85178  1  0  0  0  0
 85179  1  0  0  0  0
 86180  1  0  0  0  0
 86181  1  0  0  0  0
 86182  1  0  0  0  0
 90183  1  0  0  0  0
 94184  1  0  0  0  0
 98185  1  0  0  0  0
 99186  1  0  0  0  0
102187  1  0  0  0  0
102188  1  0  0  0  0
103189  1  0  0  0  0
103190  1  0  0  0  0
103191  1  0  0  0  0
109192  1  0  0  0  0
110193  1  0  0  0  0
113194  1  0  0  0  0
113195  1  0  0  0  0
114196  1  0  0  0  0
114197  1  0  0  0  0
114198  1  0  0  0  0
118199  1  0  0  0  0
119200  1  0  0  0  0
M  END
