
  xtb     03052208213D
 energy: -478.287772995315 gnorm: 0.000890761233 xtb: 6.4.1 (unknown)
260289  0     0  0            999 V2000
    6.5168   -9.6274    4.7632 C   0  0  0  0  0  0  0  0  0  0  0  0
    6.0833   -8.3552    4.8720 C   0  0  0  0  0  0  0  0  0  0  0  0
    4.7386   -8.1895    4.4296 C   0  0  0  0  0  0  0  0  0  0  0  0
    3.9833   -7.0092    4.3532 C   0  0  0  0  0  0  0  0  0  0  0  0
    4.4731   -5.7406    4.8658 C   0  0  0  0  0  0  0  0  0  0  0  0
    4.4034   -4.2933    3.9041 S   0  0  0  0  0  0  0  0  0  0  0  0
    5.0731   -3.3220    5.1726 C   0  0  0  0  0  0  0  0  0  0  0  0
    5.2995   -1.8617    4.9856 C   0  0  0  0  0  0  0  0  0  0  0  0
    6.2245   -1.5791    3.8023 C   0  0  0  0  0  0  0  0  0  0  0  0
    5.3315   -4.0903    6.2680 C   0  0  0  0  0  0  0  0  0  0  0  0
    5.9934   -3.4879    7.7332 Cl  0  0  0  0  0  0  0  0  0  0  0  0
    4.9899   -5.4599    6.1000 C   0  0  0  0  0  0  0  0  0  0  0  0
    5.1359   -6.6049    7.3707 Cl  0  0  0  0  0  0  0  0  0  0  0  0
    2.7327   -7.1020    3.7552 C   0  0  0  0  0  0  0  0  0  0  0  0
    2.1867   -8.3153    3.2716 C   0  0  0  0  0  0  0  0  0  0  0  0
    2.9210   -9.5061    3.3995 C   0  0  0  0  0  0  0  0  0  0  0  0
    2.3971  -10.7776    2.9291 C   0  0  0  0  0  0  0  0  0  0  0  0
    1.8331  -10.9735    1.2952 S   0  0  0  0  0  0  0  0  0  0  0  0
    1.4582  -12.6449    1.5398 C   0  0  0  0  0  0  0  0  0  0  0  0
    0.9382  -13.4891    0.4293 C   0  0  0  0  0  0  0  0  0  0  0  0
    2.0825  -14.0128   -0.4418 C   0  0  0  0  0  0  0  0  0  0  0  0
    1.7625  -13.0156    2.8152 C   0  0  0  0  0  0  0  0  0  0  0  0
    2.2916  -11.9605    3.6066 C   0  0  0  0  0  0  0  0  0  0  0  0
    2.6676  -12.1583    5.2665 Cl  0  0  0  0  0  0  0  0  0  0  0  0
    1.5267  -14.5985    3.4335 Cl  0  0  0  0  0  0  0  0  0  0  0  0
    4.1871   -9.4094    3.9681 C   0  0  0  0  0  0  0  0  0  0  0  0
    5.3331  -10.7107    4.1205 S   0  0  0  0  0  0  0  0  0  0  0  0
    0.8949   -8.1276    2.7135 C   0  0  0  0  0  0  0  0  0  0  0  0
    0.4718   -6.8339    2.7568 C   0  0  0  0  0  0  0  0  0  0  0  0
    1.6382   -5.7737    3.5223 S   0  0  0  0  0  0  0  0  0  0  0  0
   -0.7047   -6.2381    2.2178 C   0  0  0  0  0  0  0  0  0  0  0  0
   -0.9834   -4.9056    2.2480 C   0  0  0  0  0  0  0  0  0  0  0  0
   -2.1420   -4.5454    1.5248 C   0  0  0  0  0  0  0  0  0  0  0  0
   -2.6382   -3.2480    1.2918 C   0  0  0  0  0  0  0  0  0  0  0  0
   -1.9501   -2.0953    1.8495 C   0  0  0  0  0  0  0  0  0  0  0  0
   -1.5019   -2.0621    3.5309 S   0  0  0  0  0  0  0  0  0  0  0  0
   -0.6562   -0.5660    3.3756 C   0  0  0  0  0  0  0  0  0  0  0  0
    0.0992    0.0385    4.5084 C   0  0  0  0  0  0  0  0  0  0  0  0
    0.0060   -0.7796    5.7868 C   0  0  0  0  0  0  0  0  0  0  0  0
   -0.7528   -0.1127    2.0945 C   0  0  0  0  0  0  0  0  0  0  0  0
   -0.0588    1.3550    1.5434 Cl  0  0  0  0  0  0  0  0  0  0  0  0
   -1.4701   -0.9755    1.2256 C   0  0  0  0  0  0  0  0  0  0  0  0
   -1.5541   -0.6457   -0.4527 Cl  0  0  0  0  0  0  0  0  0  0  0  0
   -3.7298   -3.1468    0.4398 C   0  0  0  0  0  0  0  0  0  0  0  0
   -4.3216   -4.2697   -0.1953 C   0  0  0  0  0  0  0  0  0  0  0  0
   -3.8663   -5.5685    0.0972 C   0  0  0  0  0  0  0  0  0  0  0  0
   -4.5332   -6.7281   -0.4642 C   0  0  0  0  0  0  0  0  0  0  0  0
   -3.6636   -8.0160   -1.2427 S   0  0  0  0  0  0  0  0  0  0  0  0
   -5.1136   -8.9023   -1.5694 C   0  0  0  0  0  0  0  0  0  0  0  0
   -5.0820  -10.1843   -2.3254 C   0  0  0  0  0  0  0  0  0  0  0  0
   -5.1377   -9.9311   -3.8340 C   0  0  0  0  0  0  0  0  0  0  0  0
   -6.2001   -8.2261   -1.0994 C   0  0  0  0  0  0  0  0  0  0  0  0
   -5.8759   -6.9953   -0.4702 C   0  0  0  0  0  0  0  0  0  0  0  0
   -7.0596   -6.0009    0.2742 Cl  0  0  0  0  0  0  0  0  0  0  0  0
   -7.8132   -8.7964   -1.2322 Cl  0  0  0  0  0  0  0  0  0  0  0  0
   -2.7583   -5.6726    0.9297 C   0  0  0  0  0  0  0  0  0  0  0  0
   -1.9082   -7.1448    1.3260 S   0  0  0  0  0  0  0  0  0  0  0  0
   -5.2526   -3.8813   -1.1930 C   0  0  0  0  0  0  0  0  0  0  0  0
   -5.4126   -2.5311   -1.2868 C   0  0  0  0  0  0  0  0  0  0  0  0
   -4.4817   -1.6690   -0.0716 S   0  0  0  0  0  0  0  0  0  0  0  0
   -5.9218   -1.7460   -2.3654 C   0  0  0  0  0  0  0  0  0  0  0  0
   -5.9036   -0.3840   -2.4094 C   0  0  0  0  0  0  0  0  0  0  0  0
   -5.9022    0.1365   -3.7250 C   0  0  0  0  0  0  0  0  0  0  0  0
   -5.5202    1.4366   -4.0852 C   0  0  0  0  0  0  0  0  0  0  0  0
   -5.2446    2.4077   -3.0260 C   0  0  0  0  0  0  0  0  0  0  0  0
   -6.4715    3.3136   -2.2058 S   0  0  0  0  0  0  0  0  0  0  0  0
   -5.3315    3.9789   -1.0819 C   0  0  0  0  0  0  0  0  0  0  0  0
   -5.7573    4.9567   -0.0431 C   0  0  0  0  0  0  0  0  0  0  0  0
   -5.9194    6.3565   -0.6394 C   0  0  0  0  0  0  0  0  0  0  0  0
   -4.0777    3.5168   -1.3482 C   0  0  0  0  0  0  0  0  0  0  0  0
   -2.6825    3.9298   -0.4378 Cl  0  0  0  0  0  0  0  0  0  0  0  0
   -4.0260    2.6193   -2.4487 C   0  0  0  0  0  0  0  0  0  0  0  0
   -2.5848    1.8448   -2.9693 Cl  0  0  0  0  0  0  0  0  0  0  0  0
   -5.1307    1.6331   -5.3960 C   0  0  0  0  0  0  0  0  0  0  0  0
   -5.1506    0.6035   -6.3736 C   0  0  0  0  0  0  0  0  0  0  0  0
   -5.6742   -0.6602   -6.0419 C   0  0  0  0  0  0  0  0  0  0  0  0
   -5.7579   -1.7603   -6.9889 C   0  0  0  0  0  0  0  0  0  0  0  0
   -4.4072   -2.3193   -7.9314 S   0  0  0  0  0  0  0  0  0  0  0  0
   -5.3277   -3.6005   -8.6433 C   0  0  0  0  0  0  0  0  0  0  0  0
   -4.7155   -4.5719   -9.5920 C   0  0  0  0  0  0  0  0  0  0  0  0
   -4.4345   -5.9074   -8.8991 C   0  0  0  0  0  0  0  0  0  0  0  0
   -6.6034   -3.5864   -8.1649 C   0  0  0  0  0  0  0  0  0  0  0  0
   -6.8481   -2.5522   -7.2232 C   0  0  0  0  0  0  0  0  0  0  0  0
   -8.3847   -2.2986   -6.5081 Cl  0  0  0  0  0  0  0  0  0  0  0  0
   -7.8171   -4.6955   -8.6534 Cl  0  0  0  0  0  0  0  0  0  0  0  0
   -5.9940   -0.8778   -4.7052 C   0  0  0  0  0  0  0  0  0  0  0  0
   -6.1749   -2.4480   -3.9584 S   0  0  0  0  0  0  0  0  0  0  0  0
   -4.3682    0.9510   -7.5062 C   0  0  0  0  0  0  0  0  0  0  0  0
   -3.7395    2.1558   -7.3826 C   0  0  0  0  0  0  0  0  0  0  0  0
   -4.2764    3.0401   -5.9579 S   0  0  0  0  0  0  0  0  0  0  0  0
   -2.4480    2.5201   -7.8930 C   0  0  0  0  0  0  0  0  0  0  0  0
   -1.4417    1.6001   -7.9903 C   0  0  0  0  0  0  0  0  0  0  0  0
   -0.1532    2.1463   -7.7735 C   0  0  0  0  0  0  0  0  0  0  0  0
    0.9825    1.3979   -7.3804 C   0  0  0  0  0  0  0  0  0  0  0  0
    1.0522   -0.0181   -7.6344 C   0  0  0  0  0  0  0  0  0  0  0  0
    0.5637   -0.6548   -8.7455 C   0  0  0  0  0  0  0  0  0  0  0  0
    0.6996   -2.0558   -8.7759 C   0  0  0  0  0  0  0  0  0  0  0  0
    1.2924   -2.5907   -7.6690 C   0  0  0  0  0  0  0  0  0  0  0  0
    1.6606   -4.2594   -7.2958 S   0  0  0  0  0  0  0  0  0  0  0  0
    0.7249   -5.1793   -8.5681 C   0  0  0  0  0  0  0  0  0  0  0  0
   -0.7713   -5.1406   -8.3256 C   0  0  0  0  0  0  0  0  0  0  0  0
    1.7844   -1.2758   -6.4220 Se  0  0  0  0  0  2  0  0  0  0  0  0
    1.8954    2.0972   -6.5992 C   0  0  0  0  0  0  0  0  0  0  0  0
    1.8591    3.5016   -6.4141 C   0  0  0  0  0  0  0  0  0  0  0  0
    0.8537    4.2841   -7.0313 C   0  0  0  0  0  0  0  0  0  0  0  0
    0.7856    5.7237   -6.9944 C   0  0  0  0  0  0  0  0  0  0  0  0
    0.1581    6.5058   -7.9322 C   0  0  0  0  0  0  0  0  0  0  0  0
    0.1701    7.8933   -7.7101 C   0  0  0  0  0  0  0  0  0  0  0  0
    0.7920    8.2923   -6.5600 C   0  0  0  0  0  0  0  0  0  0  0  0
    0.8911    9.9525   -6.0277 S   0  0  0  0  0  0  0  0  0  0  0  0
    1.9945    9.8316   -4.5742 C   0  0  0  0  0  0  0  0  0  0  0  0
    3.4521    9.6785   -4.9572 C   0  0  0  0  0  0  0  0  0  0  0  0
    1.4729    6.8196   -5.6207 Se  0  0  0  0  0  2  0  0  0  0  0  0
   -0.1929    3.5460   -7.5933 C   0  0  0  0  0  0  0  0  0  0  0  0
   -1.8243    4.1526   -7.7981 S   0  0  0  0  0  0  0  0  0  0  0  0
    2.7462    3.9041   -5.3889 C   0  0  0  0  0  0  0  0  0  0  0  0
    3.3572    2.8670   -4.7430 C   0  0  0  0  0  0  0  0  0  0  0  0
    3.0592    1.3399   -5.5444 S   0  0  0  0  0  0  0  0  0  0  0  0
    3.8436    2.9241   -3.4011 C   0  0  0  0  0  0  0  0  0  0  0  0
    4.0949    4.0452   -2.6646 C   0  0  0  0  0  0  0  0  0  0  0  0
    4.0618    3.8298   -1.2636 C   0  0  0  0  0  0  0  0  0  0  0  0
    4.0900    4.8102   -0.2473 C   0  0  0  0  0  0  0  0  0  0  0  0
    4.4249    6.1876   -0.5376 C   0  0  0  0  0  0  0  0  0  0  0  0
    3.8440    7.3204   -0.0409 C   0  0  0  0  0  0  0  0  0  0  0  0
    4.3908    8.5426   -0.4789 C   0  0  0  0  0  0  0  0  0  0  0  0
    5.4475    8.4320   -1.3352 C   0  0  0  0  0  0  0  0  0  0  0  0
    6.2145    9.8000   -2.1129 S   0  0  0  0  0  0  0  0  0  0  0  0
    7.8351    9.0950   -2.5724 C   0  0  0  0  0  0  0  0  0  0  0  0
    8.7206    8.8649   -1.3654 C   0  0  0  0  0  0  0  0  0  0  0  0
    5.8459    6.6266   -1.7019 Se  0  0  0  0  0  2  0  0  0  0  0  0
    3.6849    4.3853    1.0169 C   0  0  0  0  0  0  0  0  0  0  0  0
    3.3385    3.0440    1.3058 C   0  0  0  0  0  0  0  0  0  0  0  0
    3.4327    2.0405    0.3205 C   0  0  0  0  0  0  0  0  0  0  0  0
    3.0612    0.6710    0.6021 C   0  0  0  0  0  0  0  0  0  0  0  0
    3.3337   -0.0530    1.7319 C   0  0  0  0  0  0  0  0  0  0  0  0
    2.7898   -1.3506    1.7791 C   0  0  0  0  0  0  0  0  0  0  0  0
    2.0344   -1.6939    0.6911 C   0  0  0  0  0  0  0  0  0  0  0  0
    1.2081   -3.2302    0.5409 S   0  0  0  0  0  0  0  0  0  0  0  0
    0.8540   -3.2917   -1.2494 C   0  0  0  0  0  0  0  0  0  0  0  0
    2.0926   -3.5730   -2.0743 C   0  0  0  0  0  0  0  0  0  0  0  0
    1.9562   -0.3043   -0.5694 Se  0  0  0  0  0  2  0  0  0  0  0  0
    3.7629    2.4819   -0.9544 C   0  0  0  0  0  0  0  0  0  0  0  0
    3.6842    1.4993   -2.3906 S   0  0  0  0  0  0  0  0  0  0  0  0
    2.7458    2.9178    2.5851 C   0  0  0  0  0  0  0  0  0  0  0  0
    2.6427    4.0914    3.2645 C   0  0  0  0  0  0  0  0  0  0  0  0
    3.3858    5.4175    2.3978 S   0  0  0  0  0  0  0  0  0  0  0  0
    1.7939    4.2658    4.4108 C   0  0  0  0  0  0  0  0  0  0  0  0
    0.5697    3.6773    4.4849 C   0  0  0  0  0  0  0  0  0  0  0  0
   -0.1311    3.9568    5.6827 C   0  0  0  0  0  0  0  0  0  0  0  0
   -1.4210    3.5168    6.0366 C   0  0  0  0  0  0  0  0  0  0  0  0
   -2.2414    2.7971    5.0856 C   0  0  0  0  0  0  0  0  0  0  0  0
   -2.3762    3.0764    3.7524 C   0  0  0  0  0  0  0  0  0  0  0  0
   -3.1657    2.1838    3.0061 C   0  0  0  0  0  0  0  0  0  0  0  0
   -3.6815    1.1388    3.7191 C   0  0  0  0  0  0  0  0  0  0  0  0
   -4.6554   -0.1217    3.0033 S   0  0  0  0  0  0  0  0  0  0  0  0
   -4.9004   -1.2350    4.4354 C   0  0  0  0  0  0  0  0  0  0  0  0
   -5.4694   -2.5581    3.9665 C   0  0  0  0  0  0  0  0  0  0  0  0
   -3.2209    1.2494    5.5420 Se  0  0  0  0  0  2  0  0  0  0  0  0
   -1.8353    3.8337    7.3250 C   0  0  0  0  0  0  0  0  0  0  0  0
   -1.0732    4.6236    8.2156 C   0  0  0  0  0  0  0  0  0  0  0  0
    0.1795    5.1390    7.8259 C   0  0  0  0  0  0  0  0  0  0  0  0
    0.9581    6.0291    8.6634 C   0  0  0  0  0  0  0  0  0  0  0  0
    2.3196    6.0609    8.7838 C   0  0  0  0  0  0  0  0  0  0  0  0
    2.8553    7.1019    9.5696 C   0  0  0  0  0  0  0  0  0  0  0  0
    1.9299    7.9537   10.0954 C   0  0  0  0  0  0  0  0  0  0  0  0
    2.1577    9.3794   11.0828 S   0  0  0  0  0  0  0  0  0  0  0  0
    3.8256    9.1222   11.7854 C   0  0  0  0  0  0  0  0  0  0  0  0
    3.8650    7.9625   12.7606 C   0  0  0  0  0  0  0  0  0  0  0  0
    0.1814    7.4606    9.6341 Se  0  0  0  0  0  2  0  0  0  0  0  0
    0.6301    4.7612    6.5611 C   0  0  0  0  0  0  0  0  0  0  0  0
    2.1532    5.2177    5.8301 S   0  0  0  0  0  0  0  0  0  0  0  0
   -1.7384    4.7706    9.4696 C   0  0  0  0  0  0  0  0  0  0  0  0
   -2.9337    4.1486    9.5127 C   0  0  0  0  0  0  0  0  0  0  0  0
   -3.3471    3.3446    8.0379 S   0  0  0  0  0  0  0  0  0  0  0  0
    7.4808  -10.0188    5.0234 H   0  0  0  0  0  0  0  0  0  0  0  0
    6.6922   -7.5476    5.2336 H   0  0  0  0  0  0  0  0  0  0  0  0
    4.3384   -1.3676    4.8170 H   0  0  0  0  0  0  0  0  0  0  0  0
    5.7316   -1.4613    5.9042 H   0  0  0  0  0  0  0  0  0  0  0  0
    6.3902   -0.5093    3.7033 H   0  0  0  0  0  0  0  0  0  0  0  0
    5.7836   -1.9515    2.8804 H   0  0  0  0  0  0  0  0  0  0  0  0
    7.1856   -2.0652    3.9491 H   0  0  0  0  0  0  0  0  0  0  0  0
    0.3897  -14.3301    0.8573 H   0  0  0  0  0  0  0  0  0  0  0  0
    0.2552  -12.8993   -0.1845 H   0  0  0  0  0  0  0  0  0  0  0  0
    2.6357  -13.1834   -0.8759 H   0  0  0  0  0  0  0  0  0  0  0  0
    2.7657  -14.6123    0.1545 H   0  0  0  0  0  0  0  0  0  0  0  0
    1.6883  -14.6292   -1.2452 H   0  0  0  0  0  0  0  0  0  0  0  0
    0.3041   -8.9161    2.2839 H   0  0  0  0  0  0  0  0  0  0  0  0
   -0.3393   -4.2048    2.7434 H   0  0  0  0  0  0  0  0  0  0  0  0
    1.1464    0.1367    4.2029 H   0  0  0  0  0  0  0  0  0  0  0  0
   -0.2791    1.0483    4.6920 H   0  0  0  0  0  0  0  0  0  0  0  0
   -1.0289   -0.8382    6.1218 H   0  0  0  0  0  0  0  0  0  0  0  0
    0.3742   -1.7902    5.6246 H   0  0  0  0  0  0  0  0  0  0  0  0
    0.5950   -0.3137    6.5725 H   0  0  0  0  0  0  0  0  0  0  0  0
   -4.1669  -10.7257   -2.0805 H   0  0  0  0  0  0  0  0  0  0  0  0
   -5.9396  -10.7893   -2.0254 H   0  0  0  0  0  0  0  0  0  0  0  0
   -6.0509   -9.4018   -4.0934 H   0  0  0  0  0  0  0  0  0  0  0  0
   -5.1174  -10.8750   -4.3720 H   0  0  0  0  0  0  0  0  0  0  0  0
   -4.2867   -9.3309   -4.1468 H   0  0  0  0  0  0  0  0  0  0  0  0
   -5.7257   -4.5712   -1.8684 H   0  0  0  0  0  0  0  0  0  0  0  0
   -5.7661    0.2253   -1.5335 H   0  0  0  0  0  0  0  0  0  0  0  0
   -5.0028    4.9766    0.7454 H   0  0  0  0  0  0  0  0  0  0  0  0
   -6.7062    4.6356    0.3907 H   0  0  0  0  0  0  0  0  0  0  0  0
   -6.6728    6.3476   -1.4234 H   0  0  0  0  0  0  0  0  0  0  0  0
   -4.9788    6.6965   -1.0657 H   0  0  0  0  0  0  0  0  0  0  0  0
   -6.2261    7.0577    0.1321 H   0  0  0  0  0  0  0  0  0  0  0  0
   -3.7871   -4.1545   -9.9842 H   0  0  0  0  0  0  0  0  0  0  0  0
   -5.4037   -4.7365  -10.4243 H   0  0  0  0  0  0  0  0  0  0  0  0
   -3.7638   -5.7627   -8.0560 H   0  0  0  0  0  0  0  0  0  0  0  0
   -3.9770   -6.6024   -9.5984 H   0  0  0  0  0  0  0  0  0  0  0  0
   -5.3607   -6.3425   -8.5344 H   0  0  0  0  0  0  0  0  0  0  0  0
   -4.1914    0.2870   -8.3320 H   0  0  0  0  0  0  0  0  0  0  0  0
   -1.6311    0.5420   -8.0120 H   0  0  0  0  0  0  0  0  0  0  0  0
    0.1383   -0.1109   -9.5726 H   0  0  0  0  0  0  0  0  0  0  0  0
    0.3680   -2.6352   -9.6199 H   0  0  0  0  0  0  0  0  0  0  0  0
    1.1074   -6.1967   -8.4893 H   0  0  0  0  0  0  0  0  0  0  0  0
    0.9991   -4.7757   -9.5417 H   0  0  0  0  0  0  0  0  0  0  0  0
   -1.1433   -4.1181   -8.3376 H   0  0  0  0  0  0  0  0  0  0  0  0
   -1.2820   -5.7088   -9.1003 H   0  0  0  0  0  0  0  0  0  0  0  0
   -1.0050   -5.5783   -7.3580 H   0  0  0  0  0  0  0  0  0  0  0  0
   -0.2821    6.0863   -8.8212 H   0  0  0  0  0  0  0  0  0  0  0  0
   -0.2758    8.5959   -8.3925 H   0  0  0  0  0  0  0  0  0  0  0  0
    1.8281   10.7592   -4.0275 H   0  0  0  0  0  0  0  0  0  0  0  0
    1.6429    8.9912   -3.9674 H   0  0  0  0  0  0  0  0  0  0  0  0
    3.7712   10.5121   -5.5780 H   0  0  0  0  0  0  0  0  0  0  0  0
    4.0662    9.6568   -4.0590 H   0  0  0  0  0  0  0  0  0  0  0  0
    3.6123    8.7519   -5.5099 H   0  0  0  0  0  0  0  0  0  0  0  0
    2.8455    4.9150   -5.0323 H   0  0  0  0  0  0  0  0  0  0  0  0
    4.1964    5.0165   -3.1177 H   0  0  0  0  0  0  0  0  0  0  0  0
    2.9961    7.2899    0.6212 H   0  0  0  0  0  0  0  0  0  0  0  0
    4.0091    9.4979   -0.1627 H   0  0  0  0  0  0  0  0  0  0  0  0
    8.2706    9.8245   -3.2543 H   0  0  0  0  0  0  0  0  0  0  0  0
    7.6389    8.1655   -3.1164 H   0  0  0  0  0  0  0  0  0  0  0  0
    9.6824    8.4685   -1.6837 H   0  0  0  0  0  0  0  0  0  0  0  0
    8.8840    9.7978   -0.8306 H   0  0  0  0  0  0  0  0  0  0  0  0
    8.2614    8.1497   -0.6834 H   0  0  0  0  0  0  0  0  0  0  0  0
    3.9788    0.3262    2.5076 H   0  0  0  0  0  0  0  0  0  0  0  0
    2.9619   -2.0378    2.5906 H   0  0  0  0  0  0  0  0  0  0  0  0
    0.3977   -2.3348   -1.5185 H   0  0  0  0  0  0  0  0  0  0  0  0
    0.1118   -4.0832   -1.3541 H   0  0  0  0  0  0  0  0  0  0  0  0
    1.8310   -3.6119   -3.1304 H   0  0  0  0  0  0  0  0  0  0  0  0
    2.5368   -4.5226   -1.7849 H   0  0  0  0  0  0  0  0  0  0  0  0
    2.8330   -2.7850   -1.9354 H   0  0  0  0  0  0  0  0  0  0  0  0
    2.3491    1.9949    2.9641 H   0  0  0  0  0  0  0  0  0  0  0  0
    0.1802    3.0695    3.6903 H   0  0  0  0  0  0  0  0  0  0  0  0
   -1.9308    3.9493    3.3053 H   0  0  0  0  0  0  0  0  0  0  0  0
   -3.3425    2.3005    1.9511 H   0  0  0  0  0  0  0  0  0  0  0  0
   -3.9224   -1.3742    4.9053 H   0  0  0  0  0  0  0  0  0  0  0  0
   -5.5738   -0.7287    5.1311 H   0  0  0  0  0  0  0  0  0  0  0  0
   -5.6412   -3.2089    4.8206 H   0  0  0  0  0  0  0  0  0  0  0  0
   -6.4127   -2.4059    3.4470 H   0  0  0  0  0  0  0  0  0  0  0  0
   -4.7755   -3.0498    3.2880 H   0  0  0  0  0  0  0  0  0  0  0  0
    2.9564    5.3175    8.3352 H   0  0  0  0  0  0  0  0  0  0  0  0
    3.9157    7.2072    9.7195 H   0  0  0  0  0  0  0  0  0  0  0  0
    4.0438   10.0651   12.2863 H   0  0  0  0  0  0  0  0  0  0  0  0
    4.5231    8.9928   10.9590 H   0  0  0  0  0  0  0  0  0  0  0  0
    4.8664    7.8628   13.1749 H   0  0  0  0  0  0  0  0  0  0  0  0
    3.5991    7.0311   12.2649 H   0  0  0  0  0  0  0  0  0  0  0  0
    3.1652    8.1313   13.5757 H   0  0  0  0  0  0  0  0  0  0  0  0
   -1.3210    5.2986   10.3100 H   0  0  0  0  0  0  0  0  0  0  0  0
   -3.6237    4.1008   10.3320 H   0  0  0  0  0  0  0  0  0  0  0  0
  1  2  2  0  0  0  0
  2  3  1  0  0  0  0
  3  4  2  0  0  0  0
  4  5  1  0  0  0  0
  5  6  1  0  0  0  0
  6  7  1  0  0  0  0
  7  8  1  0  0  0  0
  8  9  1  0  0  0  0
  7 10  2  0  0  0  0
 10 11  1  0  0  0  0
 10 12  1  0  0  0  0
 12 13  1  0  0  0  0
  4 14  1  0  0  0  0
 14 15  2  0  0  0  0
 15 16  1  0  0  0  0
 16 17  1  0  0  0  0
 17 18  1  0  0  0  0
 18 19  1  0  0  0  0
 19 20  1  0  0  0  0
 20 21  1  0  0  0  0
 19 22  2  0  0  0  0
 22 23  1  0  0  0  0
 23 24  1  0  0  0  0
 22 25  1  0  0  0  0
 16 26  2  0  0  0  0
 26 27  1  0  0  0  0
 15 28  1  0  0  0  0
 28 29  2  0  0  0  0
 29 30  1  0  0  0  0
 29 31  1  0  0  0  0
 31 32  2  0  0  0  0
 32 33  1  0  0  0  0
 33 34  2  0  0  0  0
 34 35  1  0  0  0  0
 35 36  1  0  0  0  0
 36 37  1  0  0  0  0
 37 38  1  0  0  0  0
 38 39  1  0  0  0  0
 37 40  2  0  0  0  0
 40 41  1  0  0  0  0
 40 42  1  0  0  0  0
 42 43  1  0  0  0  0
 34 44  1  0  0  0  0
 44 45  2  0  0  0  0
 45 46  1  0  0  0  0
 46 47  1  0  0  0  0
 47 48  1  0  0  0  0
 48 49  1  0  0  0  0
 49 50  1  0  0  0  0
 50 51  1  0  0  0  0
 49 52  2  0  0  0  0
 52 53  1  0  0  0  0
 53 54  1  0  0  0  0
 52 55  1  0  0  0  0
 46 56  2  0  0  0  0
 56 57  1  0  0  0  0
 45 58  1  0  0  0  0
 58 59  2  0  0  0  0
 59 60  1  0  0  0  0
 59 61  1  0  0  0  0
 61 62  2  0  0  0  0
 62 63  1  0  0  0  0
 63 64  2  0  0  0  0
 64 65  1  0  0  0  0
 65 66  1  0  0  0  0
 66 67  1  0  0  0  0
 67 68  1  0  0  0  0
 68 69  1  0  0  0  0
 67 70  2  0  0  0  0
 70 71  1  0  0  0  0
 70 72  1  0  0  0  0
 72 73  1  0  0  0  0
 64 74  1  0  0  0  0
 74 75  2  0  0  0  0
 75 76  1  0  0  0  0
 76 77  1  0  0  0  0
 77 78  1  0  0  0  0
 78 79  1  0  0  0  0
 79 80  1  0  0  0  0
 80 81  1  0  0  0  0
 79 82  2  0  0  0  0
 82 83  1  0  0  0  0
 83 84  1  0  0  0  0
 82 85  1  0  0  0  0
 76 86  2  0  0  0  0
 86 87  1  0  0  0  0
 75 88  1  0  0  0  0
 88 89  2  0  0  0  0
 89 90  1  0  0  0  0
 89 91  1  0  0  0  0
 91 92  2  0  0  0  0
 92 93  1  0  0  0  0
 93 94  2  0  0  0  0
 94 95  1  0  0  0  0
 95 96  2  0  0  0  0
 96 97  1  0  0  0  0
 97 98  2  0  0  0  0
 98 99  1  0  0  0  0
 99100  1  0  0  0  0
100101  1  0  0  0  0
 98102  1  0  0  0  0
 94103  1  0  0  0  0
103104  2  0  0  0  0
104105  1  0  0  0  0
105106  1  0  0  0  0
106107  2  0  0  0  0
107108  1  0  0  0  0
108109  2  0  0  0  0
109110  1  0  0  0  0
110111  1  0  0  0  0
111112  1  0  0  0  0
109113  1  0  0  0  0
105114  2  0  0  0  0
114115  1  0  0  0  0
104116  1  0  0  0  0
116117  2  0  0  0  0
117118  1  0  0  0  0
117119  1  0  0  0  0
119120  2  0  0  0  0
120121  1  0  0  0  0
121122  2  0  0  0  0
122123  1  0  0  0  0
123124  2  0  0  0  0
124125  1  0  0  0  0
125126  2  0  0  0  0
126127  1  0  0  0  0
127128  1  0  0  0  0
128129  1  0  0  0  0
126130  1  0  0  0  0
122131  1  0  0  0  0
131132  2  0  0  0  0
132133  1  0  0  0  0
133134  1  0  0  0  0
134135  2  0  0  0  0
135136  1  0  0  0  0
136137  2  0  0  0  0
137138  1  0  0  0  0
138139  1  0  0  0  0
139140  1  0  0  0  0
137141  1  0  0  0  0
133142  2  0  0  0  0
142143  1  0  0  0  0
132144  1  0  0  0  0
144145  2  0  0  0  0
145146  1  0  0  0  0
145147  1  0  0  0  0
147148  2  0  0  0  0
148149  1  0  0  0  0
149150  2  0  0  0  0
150151  1  0  0  0  0
151152  2  0  0  0  0
152153  1  0  0  0  0
153154  2  0  0  0  0
154155  1  0  0  0  0
155156  1  0  0  0  0
156157  1  0  0  0  0
154158  1  0  0  0  0
150159  1  0  0  0  0
159160  2  0  0  0  0
160161  1  0  0  0  0
161162  1  0  0  0  0
162163  2  0  0  0  0
163164  1  0  0  0  0
164165  2  0  0  0  0
165166  1  0  0  0  0
166167  1  0  0  0  0
167168  1  0  0  0  0
165169  1  0  0  0  0
161170  2  0  0  0  0
170171  1  0  0  0  0
160172  1  0  0  0  0
172173  2  0  0  0  0
173174  1  0  0  0  0
 27  1  1  0  0  0  0
 57 31  1  0  0  0  0
 87 61  1  0  0  0  0
115 91  1  0  0  0  0
143119  1  0  0  0  0
171147  1  0  0  0  0
 26  3  1  0  0  0  0
 56 33  1  0  0  0  0
 86 63  1  0  0  0  0
114 93  1  0  0  0  0
142121  1  0  0  0  0
170149  1  0  0  0  0
 12  5  2  0  0  0  0
 30 14  1  0  0  0  0
 42 35  2  0  0  0  0
 60 44  1  0  0  0  0
 72 65  2  0  0  0  0
 90 74  1  0  0  0  0
102 95  1  0  0  0  0
118103  1  0  0  0  0
130123  1  0  0  0  0
146131  1  0  0  0  0
158151  1  0  0  0  0
174159  1  0  0  0  0
 23 17  2  0  0  0  0
 53 47  2  0  0  0  0
 83 77  2  0  0  0  0
113106  1  0  0  0  0
141134  1  0  0  0  0
169162  1  0  0  0  0
  1175  1  0  0  0  0
  2176  1  0  0  0  0
  8177  1  0  0  0  0
  8178  1  0  0  0  0
  9179  1  0  0  0  0
  9180  1  0  0  0  0
  9181  1  0  0  0  0
 20182  1  0  0  0  0
 20183  1  0  0  0  0
 21184  1  0  0  0  0
 21185  1  0  0  0  0
 21186  1  0  0  0  0
 28187  1  0  0  0  0
 32188  1  0  0  0  0
 38189  1  0  0  0  0
 38190  1  0  0  0  0
 39191  1  0  0  0  0
 39192  1  0  0  0  0
 39193  1  0  0  0  0
 50194  1  0  0  0  0
 50195  1  0  0  0  0
 51196  1  0  0  0  0
 51197  1  0  0  0  0
 51198  1  0  0  0  0
 58199  1  0  0  0  0
 62200  1  0  0  0  0
 68201  1  0  0  0  0
 68202  1  0  0  0  0
 69203  1  0  0  0  0
 69204  1  0  0  0  0
 69205  1  0  0  0  0
 80206  1  0  0  0  0
 80207  1  0  0  0  0
 81208  1  0  0  0  0
 81209  1  0  0  0  0
 81210  1  0  0  0  0
 88211  1  0  0  0  0
 92212  1  0  0  0  0
 96213  1  0  0  0  0
 97214  1  0  0  0  0
100215  1  0  0  0  0
100216  1  0  0  0  0
101217  1  0  0  0  0
101218  1  0  0  0  0
101219  1  0  0  0  0
107220  1  0  0  0  0
108221  1  0  0  0  0
111222  1  0  0  0  0
111223  1  0  0  0  0
112224  1  0  0  0  0
112225  1  0  0  0  0
112226  1  0  0  0  0
116227  1  0  0  0  0
120228  1  0  0  0  0
124229  1  0  0  0  0
125230  1  0  0  0  0
128231  1  0  0  0  0
128232  1  0  0  0  0
129233  1  0  0  0  0
129234  1  0  0  0  0
129235  1  0  0  0  0
135236  1  0  0  0  0
136237  1  0  0  0  0
139238  1  0  0  0  0
139239  1  0  0  0  0
140240  1  0  0  0  0
140241  1  0  0  0  0
140242  1  0  0  0  0
144243  1  0  0  0  0
148244  1  0  0  0  0
152245  1  0  0  0  0
153246  1  0  0  0  0
156247  1  0  0  0  0
156248  1  0  0  0  0
157249  1  0  0  0  0
157250  1  0  0  0  0
157251  1  0  0  0  0
163252  1  0  0  0  0
164253  1  0  0  0  0
167254  1  0  0  0  0
167255  1  0  0  0  0
168256  1  0  0  0  0
168257  1  0  0  0  0
168258  1  0  0  0  0
172259  1  0  0  0  0
173260  1  0  0  0  0
M  END
