167

C          5.36750       -2.15420       13.60870
C          5.65530       -2.70290       12.41690
O          6.65250       -3.65180       12.24690
C          7.31220       -3.97730       13.39740
C          6.99030       -3.38540       14.65650
C          7.76420       -3.84900       15.66760
S          8.90080       -5.01640       15.10310
C          8.32240       -4.87480       13.48350
O          5.99820       -2.45070       14.78630
C          4.98800       -2.38650       11.18380
C          3.96220       -1.52210       10.94000
C          3.57480       -1.47600        9.57710
C          2.54830       -0.70790        8.98160
C          1.78090        0.25590        9.73650
C          2.22040        1.09320       10.72530
C          1.24660        1.91820       11.31850
C         -0.01840        1.76890       10.82250
S         -1.37760        2.72850       11.36120
C         -2.77440        1.93920       10.48920
C         -3.19260        0.63250       11.13220
Se        -0.06570        0.49130        9.43850
C          2.32910       -0.92190        7.62320
C          3.08780       -1.83040        6.85220
C          4.10430       -2.60110        7.44530
C          4.82450       -3.57780        6.65160
C          4.26160       -4.50440        5.82140
C          5.16150       -5.27920        5.06240
C          6.47810       -4.97880        5.25030
S          7.79270       -5.81830        4.45550
C          8.98300       -4.44550        4.24480
C          8.48460       -3.40410        3.26450
Se         6.70340       -3.63840        6.56660
C          4.33590       -2.38030        8.79470
S          5.53030       -3.21500        9.74660
C          2.73140       -1.79680        5.48550
C          1.73020       -0.91650        5.19940
S          1.16030       -0.08520        6.62950
C          1.21650       -0.68870        3.88670
C          1.88260       -1.01400        2.74160
C          1.14240       -0.79940        1.55730
C          1.52880       -1.12850        0.23880
C          2.77250       -1.80540       -0.05680
C          3.54920       -1.66830       -1.17530
C          4.68820       -2.49180       -1.25460
C          4.86420       -3.34600       -0.20340
S          6.25950       -4.38160       -0.01000
C          5.74220       -5.45790        1.37210
C          4.72550       -6.49630        0.94600
Se         3.49930       -3.13760        1.07190
C          0.61170       -0.79560       -0.75590
C         -0.63900       -0.19100       -0.47950
C         -1.04160        0.09750        0.84200
C         -2.33810        0.66140        1.15190
C         -2.63060        1.56870        2.13320
C         -3.98530        1.93210        2.26410
C         -4.83920        1.30740        1.40170
S         -6.54340        1.67930        1.26260
C         -7.17760        0.16180        0.46440
C         -7.17640       -1.02290        1.40790
Se        -3.91480        0.13860        0.25210
C         -0.11750       -0.21620        1.83440
S         -0.36030       -0.01790        3.55330
C         -1.37550        0.04110       -1.66230
C         -0.76770       -0.40170       -2.79880
S          0.79900       -1.10140       -2.46830
C         -1.33020       -0.30300       -4.10340
C         -0.78530       -0.51050       -5.33330
C         -1.67970       -0.24700       -6.40560
C         -1.42790       -0.29850       -7.79250
C         -0.13760       -0.63470       -8.35200
C          0.09450       -1.33940       -9.50140
C          1.43940       -1.45800       -9.89900
C          2.34160       -0.83120       -9.08860
S          4.07250       -0.91540       -9.31510
C          4.63540        0.52820       -8.34660
C          4.29320        1.83950       -9.02330
Se         1.48830       -0.01610       -7.62080
C         -2.49630        0.04500       -8.62270
C         -3.78670        0.37780       -8.14530
C         -4.05080        0.40670       -6.75820
C         -5.33950        0.77450       -6.21950
C         -6.58470        0.54150       -6.74160
C         -7.67510        1.06100       -6.01980
C         -7.34410        1.73070       -4.87470
S         -8.51660        2.44250       -3.79110
C         -7.49170        2.86810       -2.33790
C         -6.78140        4.19700       -2.49000
Se        -5.48440        1.75260       -4.61340
C         -2.96320        0.12300       -5.93810
S         -3.01470        0.17370       -4.20280
C         -4.64710        0.77550       -9.19500
C         -4.04280        0.81480      -10.41420
S         -2.39730        0.23860      -10.35480
C         -4.59930        1.23280      -11.67430
C         -5.61540        2.12060      -11.80730
O         -6.23360        2.39670      -13.01680
C         -5.65710        1.78420      -14.09540
C         -4.53620        0.91220      -13.96360
C         -4.10790        0.42240      -15.15200
S         -5.06690        1.01780      -16.45590
C         -6.05460        1.93710      -15.38200
O         -3.99440        0.60850      -12.74940
C         -6.18430        2.89480      -10.71090
C         -7.49430        3.16670      -10.63090
O         -8.09710        3.83040       -9.59890
C         -7.24940        4.09730       -8.55560
C         -5.84640        3.84570       -8.64300
C         -5.18570        4.15600       -7.50240
S         -6.26100        4.78510       -6.31080
C         -7.62020        4.59770       -7.35230
O         -5.26340        3.34110       -9.77400
H          4.59510       -1.41830       13.74030
H          7.73150       -3.57420       16.70090
H          8.75500       -5.45530       12.69610
H          3.47460       -0.95950       11.71290
H          3.25980        1.15660       11.00070
H          1.47500        2.62170       12.10040
H         -2.46700        1.79980        9.44800
H         -3.57680        2.67510       10.53100
H         -3.47860        0.79360       12.16880
H         -2.37490       -0.08820       11.10470
H         -4.03930        0.21210       10.59410
H          3.19460       -4.63950        5.75770
H          4.83880       -6.04200        4.37500
H          9.89830       -4.92060        3.89440
H          9.15420       -4.01800        5.23740
H          8.31060       -3.84610        2.28610
H          9.22310       -2.61190        3.16220
H          7.55280       -2.96260        3.61790
H          3.20800       -2.40630        4.73980
H          2.90550       -1.34520        2.76210
H          3.33110       -0.94140       -1.93890
H          5.37670       -2.45310       -2.08080
H          5.35310       -4.80350        2.15920
H          6.66020       -5.92740        1.72440
H          3.80930       -6.02160        0.59410
H          5.12600       -7.11320        0.14510
H          4.47900       -7.13720        1.78980
H         -1.86790        2.01250        2.75030
H         -4.32750        2.65010        2.98910
H         -6.55730       -0.02340       -0.41880
H         -8.18780        0.41600        0.14530
H         -6.16170       -1.25610        1.73020
H         -7.58680       -1.89570        0.90450
H         -7.77860       -0.80840        2.28790
H         -2.31760        0.56070       -1.70230
H          0.23010       -0.85050       -5.45320
H         -0.70120       -1.80340      -10.05890
H          1.74110       -1.99490      -10.78140
H          4.17830        0.45050       -7.35490
H          5.71300        0.39670       -8.25480
H          4.73950        1.88260      -10.01400
H          3.21370        1.94980       -9.12420
H          4.67010        2.67070       -8.43090
H         -6.73700       -0.07000       -7.61510
H         -8.69670        0.92530       -6.33100
H         -6.78270        2.04720       -2.19700
H         -8.18810        2.89000       -1.50010
H         -6.09590        4.17590       -3.33830
H         -6.21240        4.40730       -1.58700
H         -7.49950        4.99720       -2.64930
H         -5.67630        1.03390       -9.04640
H         -3.29240       -0.24560      -15.33330
H         -6.86220        2.53030      -15.75620
H         -8.19450        2.84200      -11.38020
H         -4.13780        4.06970       -7.30320
H         -8.60050        4.86950       -7.02170
