
  xtb     03082206473D
 energy: -254.328862149082 gnorm: 0.000606846983 xtb: 6.4.1 (unknown)
146163  0     0  0            999 V2000
    0.8238    1.1527    4.8285 C   0  0  0  0  0  0  0  0  0  0  0  0
    0.1250    1.4910    3.7355 N   0  0  0  0  0  0  0  0  0  0  0  0
   -1.0788    1.8438    4.0501 C   0  0  0  0  0  0  0  0  0  0  0  0
   -2.0258    2.7530    3.6670 C   0  0  0  0  0  0  0  0  0  0  0  0
    0.2363    1.3149    6.0531 C   0  0  0  0  0  0  0  0  0  0  0  0
   -1.5159    1.3731    5.8223 S   0  0  0  0  0  4  0  0  0  0  0  0
   -2.5158    2.6762    5.9599 N   0  0  0  0  0  0  0  0  0  0  0  0
   -2.8382    3.1411    4.7633 C   0  0  0  0  0  0  0  0  0  0  0  0
   -3.9698    4.0194    4.5435 C   0  0  0  0  0  0  0  0  0  0  0  0
   -5.0940    4.1551    5.2612 C   0  0  0  0  0  0  0  0  0  0  0  0
   -5.4423    3.4912    6.5032 C   0  0  0  0  0  0  0  0  0  0  0  0
   -4.5243    3.1999    7.4411 N   0  0  0  0  0  0  0  0  0  0  0  0
   -5.0062    2.5407    8.4188 C   0  0  0  0  0  0  0  0  0  0  0  0
   -4.6849    1.4621    9.1932 C   0  0  0  0  0  0  0  0  0  0  0  0
   -6.7290    3.0271    6.7249 C   0  0  0  0  0  0  0  0  0  0  0  0
   -6.9528    2.5968    8.4200 S   0  0  0  0  0  4  0  0  0  0  0  0
   -6.9895    1.0204    8.9598 N   0  0  0  0  0  0  0  0  0  0  0  0
   -5.8148    0.6502    9.4304 C   0  0  0  0  0  0  0  0  0  0  0  0
   -5.6538   -0.6517   10.0871 C   0  0  0  0  0  0  0  0  0  0  0  0
   -4.8443   -1.5880    9.5814 C   0  0  0  0  0  0  0  0  0  0  0  0
   -4.1990   -1.4720    8.2916 C   0  0  0  0  0  0  0  0  0  0  0  0
   -2.9680   -1.8943    7.9005 C   0  0  0  0  0  0  0  0  0  0  0  0
   -2.6535   -1.5795    6.5498 C   0  0  0  0  0  0  0  0  0  0  0  0
   -1.4400   -1.7921    5.8598 C   0  0  0  0  0  0  0  0  0  0  0  0
   -0.2376   -2.1857    6.5496 C   0  0  0  0  0  0  0  0  0  0  0  0
    0.1297   -1.8340    7.8234 C   0  0  0  0  0  0  0  0  0  0  0  0
    1.3573   -2.3431    8.2804 C   0  0  0  0  0  0  0  0  0  0  0  0
    2.0267   -3.1282    7.3823 C   0  0  0  0  0  0  0  0  0  0  0  0
    3.6013   -3.8172    7.7002 S   0  0  0  0  0  0  0  0  0  0  0  0
    3.7998   -4.9641    6.2931 C   0  0  0  0  0  0  0  0  0  0  0  0
    2.9561   -6.2131    6.4467 C   0  0  0  0  0  0  0  0  0  0  0  0
    1.0911   -3.2528    5.7497 Se  0  0  0  0  0  2  0  0  0  0  0  0
   -1.4748   -1.5472    4.4872 C   0  0  0  0  0  0  0  0  0  0  0  0
   -2.5847   -0.9848    3.8107 C   0  0  0  0  0  0  0  0  0  0  0  0
   -3.7199   -0.5642    4.5463 C   0  0  0  0  0  0  0  0  0  0  0  0
   -4.7479    0.2721    3.9842 C   0  0  0  0  0  0  0  0  0  0  0  0
   -4.6512    1.1132    2.8997 C   0  0  0  0  0  0  0  0  0  0  0  0
   -5.7924    1.8657    2.5841 C   0  0  0  0  0  0  0  0  0  0  0  0
   -6.8691    1.6486    3.3996 C   0  0  0  0  0  0  0  0  0  0  0  0
   -8.3918    2.4970    3.2513 S   0  0  0  0  0  0  0  0  0  0  0  0
   -9.5777    1.2624    3.9075 C   0  0  0  0  0  0  0  0  0  0  0  0
   -9.7627    1.3517    5.4091 C   0  0  0  0  0  0  0  0  0  0  0  0
   -6.4493    0.4360    4.7693 Se  0  0  0  0  0  2  0  0  0  0  0  0
   -3.7369   -0.9594    5.8871 C   0  0  0  0  0  0  0  0  0  0  0  0
   -5.0646   -0.7129    6.9710 S   0  0  0  0  0  0  0  0  0  0  0  0
   -2.3615   -0.9166    2.4143 C   0  0  0  0  0  0  0  0  0  0  0  0
   -1.1186   -1.3302    2.0319 C   0  0  0  0  0  0  0  0  0  0  0  0
   -0.1575   -1.8522    3.3929 S   0  0  0  0  0  0  0  0  0  0  0  0
   -0.5747   -1.3582    0.7138 C   0  0  0  0  0  0  0  0  0  0  0  0
   -1.2244   -1.1145   -0.4616 C   0  0  0  0  0  0  0  0  0  0  0  0
   -0.3909   -1.2020   -1.6028 C   0  0  0  0  0  0  0  0  0  0  0  0
   -0.7623   -1.0551   -2.9556 C   0  0  0  0  0  0  0  0  0  0  0  0
   -2.1377   -0.8739   -3.3730 C   0  0  0  0  0  0  0  0  0  0  0  0
   -2.5906   -0.0832   -4.3922 C   0  0  0  0  0  0  0  0  0  0  0  0
   -3.9753   -0.1304   -4.6539 C   0  0  0  0  0  0  0  0  0  0  0  0
   -4.6765   -0.9910   -3.8622 C   0  0  0  0  0  0  0  0  0  0  0  0
   -6.3926   -1.3322   -3.8319 S   0  0  0  0  0  0  0  0  0  0  0  0
   -6.9265   -0.8437   -5.5103 C   0  0  0  0  0  0  0  0  0  0  0  0
   -6.3440   -1.7436   -6.5817 C   0  0  0  0  0  0  0  0  0  0  0  0
   -3.5719   -1.8654   -2.6263 Se  0  0  0  0  0  2  0  0  0  0  0  0
    0.2727   -1.1325   -3.8841 C   0  0  0  0  0  0  0  0  0  0  0  0
    1.6224   -1.3789   -3.5324 C   0  0  0  0  0  0  0  0  0  0  0  0
    1.9819   -1.5893   -2.1850 C   0  0  0  0  0  0  0  0  0  0  0  0
    3.3249   -1.9412   -1.7783 C   0  0  0  0  0  0  0  0  0  0  0  0
    3.9789   -1.5410   -0.6456 C   0  0  0  0  0  0  0  0  0  0  0  0
    5.2579   -2.0920   -0.4410 C   0  0  0  0  0  0  0  0  0  0  0  0
    5.6659   -2.9809   -1.3941 C   0  0  0  0  0  0  0  0  0  0  0  0
    7.1706   -3.8686   -1.3084 S   0  0  0  0  0  0  0  0  0  0  0  0
    7.3738   -4.4196   -3.0386 C   0  0  0  0  0  0  0  0  0  0  0  0
    7.7542   -3.2814   -3.9632 C   0  0  0  0  0  0  0  0  0  0  0  0
    4.3578   -3.2009   -2.7302 Se  0  0  0  0  0  2  0  0  0  0  0  0
    0.9536   -1.4759   -1.2527 C   0  0  0  0  0  0  0  0  0  0  0  0
    1.1220   -1.6914    0.4682 S   0  0  0  0  0  0  0  0  0  0  0  0
    2.4699   -1.3768   -4.6688 C   0  0  0  0  0  0  0  0  0  0  0  0
    1.8092   -1.1907   -5.8444 C   0  0  0  0  0  0  0  0  0  0  0  0
    0.0911   -0.9843   -5.6131 S   0  0  0  0  0  0  0  0  0  0  0  0
    2.4025   -1.1196   -7.1519 C   0  0  0  0  0  0  0  0  0  0  0  0
    3.7495   -1.2155   -7.2636 N   0  0  0  0  0  0  0  0  0  0  0  0
    4.1256   -1.1226   -8.4916 C   0  0  0  0  0  0  0  0  0  0  0  0
    5.0697   -1.6457   -9.3339 C   0  0  0  0  0  0  0  0  0  0  0  0
    1.6767   -1.0329   -8.3245 C   0  0  0  0  0  0  0  0  0  0  0  0
    2.7372   -0.5000   -9.6185 S   0  0  0  0  0  4  0  0  0  0  0  0
    3.2949   -1.4451  -10.8648 N   0  0  0  0  0  0  0  0  0  0  0  0
    4.5613   -1.7631  -10.6453 C   0  0  0  0  0  0  0  0  0  0  0  0
    5.3298   -2.3068  -11.7567 C   0  0  0  0  0  0  0  0  0  0  0  0
    6.5784   -1.9401  -12.0678 C   0  0  0  0  0  0  0  0  0  0  0  0
    7.3188   -0.8730  -11.4258 C   0  0  0  0  0  0  0  0  0  0  0  0
    6.6834    0.0879  -10.7157 N   0  0  0  0  0  0  0  0  0  0  0  0
    7.5011    0.9605  -10.2488 C   0  0  0  0  0  0  0  0  0  0  0  0
    7.5621    2.3104  -10.0212 C   0  0  0  0  0  0  0  0  0  0  0  0
    8.6774   -0.7057  -11.6140 C   0  0  0  0  0  0  0  0  0  0  0  0
    9.3065    0.3843  -10.3801 S   0  0  0  0  0  4  0  0  0  0  0  0
    9.8047    1.9411  -10.6259 N   0  0  0  0  0  0  0  0  0  0  0  0
    8.8686    2.7981  -10.2305 C   0  0  0  0  0  0  0  0  0  0  0  0
    9.2802    4.1845  -10.0996 C   0  0  0  0  0  0  0  0  0  0  0  0
    8.5149    5.1690   -9.6430 C   0  0  0  0  0  0  0  0  0  0  0  0
    1.8478    0.8365    4.7035 H   0  0  0  0  0  0  0  0  0  0  0  0
   -2.0912    3.1845    2.6865 H   0  0  0  0  0  0  0  0  0  0  0  0
    0.6254    0.9645    6.9883 H   0  0  0  0  0  0  0  0  0  0  0  0
   -3.9125    4.5555    3.6041 H   0  0  0  0  0  0  0  0  0  0  0  0
   -5.8864    4.7680    4.8498 H   0  0  0  0  0  0  0  0  0  0  0  0
   -3.6830    1.1773    9.4503 H   0  0  0  0  0  0  0  0  0  0  0  0
   -7.5884    3.3442    6.1647 H   0  0  0  0  0  0  0  0  0  0  0  0
   -6.1938   -0.8110   11.0081 H   0  0  0  0  0  0  0  0  0  0  0  0
   -4.6583   -2.5034   10.1279 H   0  0  0  0  0  0  0  0  0  0  0  0
   -2.3003   -2.4256    8.5545 H   0  0  0  0  0  0  0  0  0  0  0  0
   -0.4663   -1.1689    8.4257 H   0  0  0  0  0  0  0  0  0  0  0  0
    1.7486   -2.1327    9.2609 H   0  0  0  0  0  0  0  0  0  0  0  0
    4.8627   -5.2027    6.2786 H   0  0  0  0  0  0  0  0  0  0  0  0
    3.5421   -4.4087    5.3857 H   0  0  0  0  0  0  0  0  0  0  0  0
    3.1252   -6.8775    5.6022 H   0  0  0  0  0  0  0  0  0  0  0  0
    1.8962   -5.9587    6.4779 H   0  0  0  0  0  0  0  0  0  0  0  0
    3.2149   -6.7363    7.3643 H   0  0  0  0  0  0  0  0  0  0  0  0
   -3.7392    1.2330    2.3432 H   0  0  0  0  0  0  0  0  0  0  0  0
   -5.8266    2.5546    1.7575 H   0  0  0  0  0  0  0  0  0  0  0  0
   -9.2048    0.2818    3.6059 H   0  0  0  0  0  0  0  0  0  0  0  0
  -10.5105    1.4728    3.3846 H   0  0  0  0  0  0  0  0  0  0  0  0
  -10.5234    0.6409    5.7249 H   0  0  0  0  0  0  0  0  0  0  0  0
   -8.8347    1.1120    5.9314 H   0  0  0  0  0  0  0  0  0  0  0  0
  -10.0807    2.3512    5.6967 H   0  0  0  0  0  0  0  0  0  0  0  0
   -3.1105   -0.6194    1.7055 H   0  0  0  0  0  0  0  0  0  0  0  0
   -2.2684   -0.8586   -0.5043 H   0  0  0  0  0  0  0  0  0  0  0  0
   -1.9416    0.5811   -4.9370 H   0  0  0  0  0  0  0  0  0  0  0  0
   -4.4279    0.4802   -5.4158 H   0  0  0  0  0  0  0  0  0  0  0  0
   -8.0123   -0.9283   -5.4714 H   0  0  0  0  0  0  0  0  0  0  0  0
   -6.6601    0.2020   -5.6581 H   0  0  0  0  0  0  0  0  0  0  0  0
   -5.2570   -1.6941   -6.5795 H   0  0  0  0  0  0  0  0  0  0  0  0
   -6.6426   -2.7753   -6.4107 H   0  0  0  0  0  0  0  0  0  0  0  0
   -6.7046   -1.4330   -7.5603 H   0  0  0  0  0  0  0  0  0  0  0  0
    3.5695   -0.8037    0.0237 H   0  0  0  0  0  0  0  0  0  0  0  0
    5.8766   -1.8324    0.4004 H   0  0  0  0  0  0  0  0  0  0  0  0
    8.1567   -5.1763   -2.9965 H   0  0  0  0  0  0  0  0  0  0  0  0
    6.4339   -4.8917   -3.3412 H   0  0  0  0  0  0  0  0  0  0  0  0
    6.9685   -2.5262   -3.9870 H   0  0  0  0  0  0  0  0  0  0  0  0
    8.6765   -2.8124   -3.6283 H   0  0  0  0  0  0  0  0  0  0  0  0
    7.8971   -3.6588   -4.9735 H   0  0  0  0  0  0  0  0  0  0  0  0
    3.5408   -1.4823   -4.6434 H   0  0  0  0  0  0  0  0  0  0  0  0
    6.0183   -2.0367   -9.0215 H   0  0  0  0  0  0  0  0  0  0  0  0
    0.6258   -0.8281   -8.3845 H   0  0  0  0  0  0  0  0  0  0  0  0
    4.8159   -3.0383  -12.3646 H   0  0  0  0  0  0  0  0  0  0  0  0
    7.0955   -2.4318  -12.8802 H   0  0  0  0  0  0  0  0  0  0  0  0
    6.7031    2.9238   -9.8350 H   0  0  0  0  0  0  0  0  0  0  0  0
    9.3366   -1.4359  -12.0417 H   0  0  0  0  0  0  0  0  0  0  0  0
   10.3009    4.3695  -10.4041 H   0  0  0  0  0  0  0  0  0  0  0  0
    8.8855    6.1771   -9.5724 H   0  0  0  0  0  0  0  0  0  0  0  0
    7.4982    5.0115   -9.3254 H   0  0  0  0  0  0  0  0  0  0  0  0
  1  2  2  0  0  0  0
  2  3  1  0  0  0  0
  3  4  2  0  0  0  0
  1  5  1  0  0  0  0
  5  6  2  0  0  0  0
  6  7  1  0  0  0  0
  7  8  2  0  0  0  0
  8  9  1  0  0  0  0
  9 10  2  0  0  0  0
 10 11  1  0  0  0  0
 11 12  2  0  0  0  0
 12 13  1  0  0  0  0
 13 14  2  0  0  0  0
 11 15  1  0  0  0  0
 15 16  2  0  0  0  0
 16 17  1  0  0  0  0
 17 18  2  0  0  0  0
 18 19  1  0  0  0  0
 19 20  2  0  0  0  0
 20 21  1  0  0  0  0
 21 22  2  0  0  0  0
 22 23  1  0  0  0  0
 23 24  2  0  0  0  0
 24 25  1  0  0  0  0
 25 26  2  0  0  0  0
 26 27  1  0  0  0  0
 27 28  2  0  0  0  0
 28 29  1  0  0  0  0
 29 30  1  0  0  0  0
 30 31  1  0  0  0  0
 28 32  1  0  0  0  0
 24 33  1  0  0  0  0
 33 34  2  0  0  0  0
 34 35  1  0  0  0  0
 35 36  1  0  0  0  0
 36 37  2  0  0  0  0
 37 38  1  0  0  0  0
 38 39  2  0  0  0  0
 39 40  1  0  0  0  0
 40 41  1  0  0  0  0
 41 42  1  0  0  0  0
 39 43  1  0  0  0  0
 35 44  2  0  0  0  0
 44 45  1  0  0  0  0
 34 46  1  0  0  0  0
 46 47  2  0  0  0  0
 47 48  1  0  0  0  0
 47 49  1  0  0  0  0
 49 50  2  0  0  0  0
 50 51  1  0  0  0  0
 51 52  2  0  0  0  0
 52 53  1  0  0  0  0
 53 54  2  0  0  0  0
 54 55  1  0  0  0  0
 55 56  2  0  0  0  0
 56 57  1  0  0  0  0
 57 58  1  0  0  0  0
 58 59  1  0  0  0  0
 56 60  1  0  0  0  0
 52 61  1  0  0  0  0
 61 62  2  0  0  0  0
 62 63  1  0  0  0  0
 63 64  1  0  0  0  0
 64 65  2  0  0  0  0
 65 66  1  0  0  0  0
 66 67  2  0  0  0  0
 67 68  1  0  0  0  0
 68 69  1  0  0  0  0
 69 70  1  0  0  0  0
 67 71  1  0  0  0  0
 63 72  2  0  0  0  0
 72 73  1  0  0  0  0
 62 74  1  0  0  0  0
 74 75  2  0  0  0  0
 75 76  1  0  0  0  0
 75 77  1  0  0  0  0
 77 78  2  0  0  0  0
 78 79  1  0  0  0  0
 79 80  2  0  0  0  0
 77 81  1  0  0  0  0
 81 82  2  0  0  0  0
 82 83  1  0  0  0  0
 83 84  2  0  0  0  0
 84 85  1  0  0  0  0
 85 86  2  0  0  0  0
 86 87  1  0  0  0  0
 87 88  2  0  0  0  0
 88 89  1  0  0  0  0
 89 90  2  0  0  0  0
 87 91  1  0  0  0  0
 91 92  2  0  0  0  0
 92 93  1  0  0  0  0
 93 94  2  0  0  0  0
 94 95  1  0  0  0  0
 95 96  2  0  0  0  0
  6  3  1  0  0  0  0
 16 13  1  0  0  0  0
 45 21  1  0  0  0  0
 73 49  1  0  0  0  0
 82 79  1  0  0  0  0
 92 89  1  0  0  0  0
  8  4  1  0  0  0  0
 18 14  1  0  0  0  0
 44 23  1  0  0  0  0
 72 51  1  0  0  0  0
 84 80  1  0  0  0  0
 94 90  1  0  0  0  0
 32 25  1  0  0  0  0
 48 33  1  0  0  0  0
 60 53  1  0  0  0  0
 76 61  1  0  0  0  0
 43 36  1  0  0  0  0
 71 64  1  0  0  0  0
  1 97  1  0  0  0  0
  4 98  1  0  0  0  0
  5 99  1  0  0  0  0
  9100  1  0  0  0  0
 10101  1  0  0  0  0
 14102  1  0  0  0  0
 15103  1  0  0  0  0
 19104  1  0  0  0  0
 20105  1  0  0  0  0
 22106  1  0  0  0  0
 26107  1  0  0  0  0
 27108  1  0  0  0  0
 30109  1  0  0  0  0
 30110  1  0  0  0  0
 31111  1  0  0  0  0
 31112  1  0  0  0  0
 31113  1  0  0  0  0
 37114  1  0  0  0  0
 38115  1  0  0  0  0
 41116  1  0  0  0  0
 41117  1  0  0  0  0
 42118  1  0  0  0  0
 42119  1  0  0  0  0
 42120  1  0  0  0  0
 46121  1  0  0  0  0
 50122  1  0  0  0  0
 54123  1  0  0  0  0
 55124  1  0  0  0  0
 58125  1  0  0  0  0
 58126  1  0  0  0  0
 59127  1  0  0  0  0
 59128  1  0  0  0  0
 59129  1  0  0  0  0
 65130  1  0  0  0  0
 66131  1  0  0  0  0
 69132  1  0  0  0  0
 69133  1  0  0  0  0
 70134  1  0  0  0  0
 70135  1  0  0  0  0
 70136  1  0  0  0  0
 74137  1  0  0  0  0
 80138  1  0  0  0  0
 81139  1  0  0  0  0
 85140  1  0  0  0  0
 86141  1  0  0  0  0
 90142  1  0  0  0  0
 91143  1  0  0  0  0
 95144  1  0  0  0  0
 96145  1  0  0  0  0
 96146  1  0  0  0  0
M  END
