
  xtb     03072216153D
 energy: -264.424000036659 gnorm: 0.000941135975 xtb: 6.4.1 (unknown)
162179  0     0  0            999 V2000
    0.9265    3.8732   14.4925 C   0  0  0  0  0  0  0  0  0  0  0  0
   -0.5375    3.4483   13.7072 S   0  0  0  0  0  0  0  0  0  0  0  0
    0.3227    2.5215   12.5019 C   0  0  0  0  0  0  0  0  0  0  0  0
    1.6779    2.5567   12.7493 C   0  0  0  0  0  0  0  0  0  0  0  0
    2.0175    3.3329   13.8862 C   0  0  0  0  0  0  0  0  0  0  0  0
    3.4281    3.5279   14.3471 C   0  0  0  0  0  0  0  0  0  0  0  0
    4.3975    3.2203   13.2102 C   0  0  0  0  0  0  0  0  0  0  0  0
    4.0777    1.8474   12.6337 C   0  0  0  0  0  0  0  0  0  0  0  0
    2.7175    1.8490   11.9240 C   0  0  0  0  0  0  0  0  0  0  0  0
    2.2724    0.5279   11.6850 O   0  0  0  0  0  0  0  0  0  0  0  0
   -0.3910    1.9393   11.4065 C   0  0  0  0  0  0  0  0  0  0  0  0
    0.4122    1.6266    9.9023 S   0  0  0  0  0  0  0  0  0  0  0  0
   -1.0596    1.0909    9.1527 C   0  0  0  0  0  0  0  0  0  0  0  0
   -2.1215    1.1737   10.0357 C   0  0  0  0  0  0  0  0  0  0  0  0
   -1.7343    1.6295   11.3150 C   0  0  0  0  0  0  0  0  0  0  0  0
   -2.6913    1.6519   12.4641 C   0  0  0  0  0  0  0  0  0  0  0  0
   -3.8225    0.6615   12.2058 C   0  0  0  0  0  0  0  0  0  0  0  0
   -4.4931    1.0042   10.8852 C   0  0  0  0  0  0  0  0  0  0  0  0
   -3.5464    0.8117    9.6917 C   0  0  0  0  0  0  0  0  0  0  0  0
   -4.0288    1.5458    8.5796 O   0  0  0  0  0  0  0  0  0  0  0  0
   -0.9744    0.5947    7.8158 C   0  0  0  0  0  0  0  0  0  0  0  0
   -1.9451    0.3248    6.8983 C   0  0  0  0  0  0  0  0  0  0  0  0
   -1.4493   -0.1577    5.6613 C   0  0  0  0  0  0  0  0  0  0  0  0
   -2.1885   -0.5024    4.5086 C   0  0  0  0  0  0  0  0  0  0  0  0
   -3.6310   -0.5560    4.5121 C   0  0  0  0  0  0  0  0  0  0  0  0
   -4.4514   -0.9432    5.5376 C   0  0  0  0  0  0  0  0  0  0  0  0
   -5.8343   -0.9054    5.2792 C   0  0  0  0  0  0  0  0  0  0  0  0
   -6.1786   -0.4703    4.0310 C   0  0  0  0  0  0  0  0  0  0  0  0
   -7.8295   -0.2668    3.4908 S   0  0  0  0  0  0  0  0  0  0  0  0
   -7.6158   -0.1265    1.6805 C   0  0  0  0  0  0  0  0  0  0  0  0
   -7.2803   -1.4537    1.0312 C   0  0  0  0  0  0  0  0  0  0  0  0
   -4.6526   -0.0518    3.0080 Se  0  0  0  0  0  2  0  0  0  0  0  0
   -1.4362   -0.7707    3.3683 C   0  0  0  0  0  0  0  0  0  0  0  0
   -0.0227   -0.7988    3.3345 C   0  0  0  0  0  0  0  0  0  0  0  0
    0.7105   -0.5885    4.5232 C   0  0  0  0  0  0  0  0  0  0  0  0
    2.1443   -0.7458    4.5614 C   0  0  0  0  0  0  0  0  0  0  0  0
    2.8955   -1.6455    3.8530 C   0  0  0  0  0  0  0  0  0  0  0  0
    4.2886   -1.5783    4.0402 C   0  0  0  0  0  0  0  0  0  0  0  0
    4.7075   -0.6129    4.9105 C   0  0  0  0  0  0  0  0  0  0  0  0
    6.3809   -0.3923    5.3710 S   0  0  0  0  0  0  0  0  0  0  0  0
    6.3373    1.2768    6.1123 C   0  0  0  0  0  0  0  0  0  0  0  0
    6.1655    2.3618    5.0692 C   0  0  0  0  0  0  0  0  0  0  0  0
    3.2470    0.3233    5.6544 Se  0  0  0  0  0  2  0  0  0  0  0  0
   -0.0368   -0.2242    5.6408 C   0  0  0  0  0  0  0  0  0  0  0  0
    0.6272    0.2309    7.1835 S   0  0  0  0  0  0  0  0  0  0  0  0
    0.4706   -0.9900    2.0179 C   0  0  0  0  0  0  0  0  0  0  0  0
   -0.5089   -1.1440    1.0843 C   0  0  0  0  0  0  0  0  0  0  0  0
   -2.1111   -1.0874    1.7960 S   0  0  0  0  0  0  0  0  0  0  0  0
   -0.4093   -1.2836   -0.3283 C   0  0  0  0  0  0  0  0  0  0  0  0
   -1.4546   -1.3596   -1.1995 C   0  0  0  0  0  0  0  0  0  0  0  0
   -1.0662   -1.4264   -2.5570 C   0  0  0  0  0  0  0  0  0  0  0  0
   -1.9084   -1.4425   -3.6886 C   0  0  0  0  0  0  0  0  0  0  0  0
   -3.3403   -1.2960   -3.5588 C   0  0  0  0  0  0  0  0  0  0  0  0
   -4.0165   -0.4884   -2.6854 C   0  0  0  0  0  0  0  0  0  0  0  0
   -5.4209   -0.5674   -2.7237 C   0  0  0  0  0  0  0  0  0  0  0  0
   -5.9228   -1.4534   -3.6343 C   0  0  0  0  0  0  0  0  0  0  0  0
   -7.6284   -1.7658   -3.8529 S   0  0  0  0  0  0  0  0  0  0  0  0
   -7.5651   -2.9493   -5.2469 C   0  0  0  0  0  0  0  0  0  0  0  0
   -8.9638   -3.3747   -5.6417 C   0  0  0  0  0  0  0  0  0  0  0  0
   -4.5454   -2.3004   -4.6048 Se  0  0  0  0  0  2  0  0  0  0  0  0
   -1.2725   -1.5831   -4.9154 C   0  0  0  0  0  0  0  0  0  0  0  0
    0.1319   -1.6465   -5.0644 C   0  0  0  0  0  0  0  0  0  0  0  0
    0.9800   -1.5573   -3.9383 C   0  0  0  0  0  0  0  0  0  0  0  0
    2.4214   -1.5343   -4.0565 C   0  0  0  0  0  0  0  0  0  0  0  0
    3.3373   -2.0644   -3.1894 C   0  0  0  0  0  0  0  0  0  0  0  0
    4.6930   -1.8799   -3.5227 C   0  0  0  0  0  0  0  0  0  0  0  0
    4.9178   -1.1741   -4.6694 C   0  0  0  0  0  0  0  0  0  0  0  0
    6.5116   -0.8196   -5.3015 S   0  0  0  0  0  0  0  0  0  0  0  0
    6.1792   -0.6193   -7.0924 C   0  0  0  0  0  0  0  0  0  0  0  0
    5.7965    0.8004   -7.4597 C   0  0  0  0  0  0  0  0  0  0  0  0
    3.3019   -0.6138   -5.4490 Se  0  0  0  0  0  2  0  0  0  0  0  0
    0.3417   -1.4651   -2.7033 C   0  0  0  0  0  0  0  0  0  0  0  0
    1.1346   -1.3345   -1.1510 S   0  0  0  0  0  0  0  0  0  0  0  0
    0.4987   -1.7920   -6.4213 C   0  0  0  0  0  0  0  0  0  0  0  0
   -0.5489   -1.7918   -7.2981 C   0  0  0  0  0  0  0  0  0  0  0  0
   -2.0811   -1.6508   -6.4587 S   0  0  0  0  0  0  0  0  0  0  0  0
   -0.4232   -1.8731   -8.7138 C   0  0  0  0  0  0  0  0  0  0  0  0
    1.1865   -1.8584   -9.3756 S   0  0  0  0  0  0  0  0  0  0  0  0
    0.5933   -1.9429  -11.0105 C   0  0  0  0  0  0  0  0  0  0  0  0
   -0.7899   -2.0204  -11.0056 C   0  0  0  0  0  0  0  0  0  0  0  0
   -1.3641   -1.9385   -9.7193 C   0  0  0  0  0  0  0  0  0  0  0  0
   -2.8410   -1.9072   -9.4891 C   0  0  0  0  0  0  0  0  0  0  0  0
   -3.5850   -1.6131  -10.7866 C   0  0  0  0  0  0  0  0  0  0  0  0
   -3.0756   -2.5400  -11.8809 C   0  0  0  0  0  0  0  0  0  0  0  0
   -1.6321   -2.1738  -12.2412 C   0  0  0  0  0  0  0  0  0  0  0  0
   -1.5601   -0.9548  -12.9588 O   0  0  0  0  0  0  0  0  0  0  0  0
    1.5150   -1.9312  -12.1027 C   0  0  0  0  0  0  0  0  0  0  0  0
    0.9494   -2.0962  -13.7451 S   0  0  0  0  0  0  0  0  0  0  0  0
    2.5470   -2.0350  -14.3529 C   0  0  0  0  0  0  0  0  0  0  0  0
    3.4758   -1.8799  -13.3688 C   0  0  0  0  0  0  0  0  0  0  0  0
    2.8939   -1.8019  -12.0785 C   0  0  0  0  0  0  0  0  0  0  0  0
    3.7299   -1.6013  -10.8547 C   0  0  0  0  0  0  0  0  0  0  0  0
    5.1609   -1.1936  -11.2016 C   0  0  0  0  0  0  0  0  0  0  0  0
    5.7165   -2.0722  -12.3119 C   0  0  0  0  0  0  0  0  0  0  0  0
    4.9622   -1.7997  -13.6120 C   0  0  0  0  0  0  0  0  0  0  0  0
    5.4118   -2.7334  -14.5719 O   0  0  0  0  0  0  0  0  0  0  0  0
    0.8950    4.4925   15.3668 H   0  0  0  0  0  0  0  0  0  0  0  0
    3.5625    4.5496   14.7085 H   0  0  0  0  0  0  0  0  0  0  0  0
    3.6270    2.8532   15.1858 H   0  0  0  0  0  0  0  0  0  0  0  0
    4.3010    3.9760   12.4271 H   0  0  0  0  0  0  0  0  0  0  0  0
    5.4238    3.2434   13.5800 H   0  0  0  0  0  0  0  0  0  0  0  0
    4.0401    1.1108   13.4400 H   0  0  0  0  0  0  0  0  0  0  0  0
    4.8495    1.5374   11.9248 H   0  0  0  0  0  0  0  0  0  0  0  0
    2.8158    2.3882   10.9627 H   0  0  0  0  0  0  0  0  0  0  0  0
    2.8910    0.0933   11.0882 H   0  0  0  0  0  0  0  0  0  0  0  0
   -2.1661    1.3938   13.3858 H   0  0  0  0  0  0  0  0  0  0  0  0
   -3.1036    2.6578   12.5937 H   0  0  0  0  0  0  0  0  0  0  0  0
   -4.5497    0.7091   13.0175 H   0  0  0  0  0  0  0  0  0  0  0  0
   -3.4209   -0.3531   12.1650 H   0  0  0  0  0  0  0  0  0  0  0  0
   -5.3856    0.3973   10.7277 H   0  0  0  0  0  0  0  0  0  0  0  0
   -4.8074    2.0522   10.9095 H   0  0  0  0  0  0  0  0  0  0  0  0
   -3.5707   -0.2345    9.3588 H   0  0  0  0  0  0  0  0  0  0  0  0
   -3.9733    2.4863    8.7849 H   0  0  0  0  0  0  0  0  0  0  0  0
   -2.9820    0.5392    7.0676 H   0  0  0  0  0  0  0  0  0  0  0  0
   -4.0633   -1.3178    6.4692 H   0  0  0  0  0  0  0  0  0  0  0  0
   -6.5700   -1.2058    6.0051 H   0  0  0  0  0  0  0  0  0  0  0  0
   -8.5684    0.2610    1.3206 H   0  0  0  0  0  0  0  0  0  0  0  0
   -6.8342    0.6202    1.5068 H   0  0  0  0  0  0  0  0  0  0  0  0
   -7.2126   -1.3328   -0.0482 H   0  0  0  0  0  0  0  0  0  0  0  0
   -8.0500   -2.1891    1.2527 H   0  0  0  0  0  0  0  0  0  0  0  0
   -6.3239   -1.8289    1.3964 H   0  0  0  0  0  0  0  0  0  0  0  0
    2.4464   -2.3908    3.2185 H   0  0  0  0  0  0  0  0  0  0  0  0
    4.9772   -2.2355    3.5377 H   0  0  0  0  0  0  0  0  0  0  0  0
    7.2888    1.3732    6.6342 H   0  0  0  0  0  0  0  0  0  0  0  0
    5.5214    1.2836    6.8422 H   0  0  0  0  0  0  0  0  0  0  0  0
    6.9723    2.3199    4.3414 H   0  0  0  0  0  0  0  0  0  0  0  0
    5.2176    2.2405    4.5446 H   0  0  0  0  0  0  0  0  0  0  0  0
    6.1716    3.3390    5.5473 H   0  0  0  0  0  0  0  0  0  0  0  0
    1.5128   -0.9587    1.7555 H   0  0  0  0  0  0  0  0  0  0  0  0
   -2.4758   -1.3883   -0.8656 H   0  0  0  0  0  0  0  0  0  0  0  0
   -3.5086    0.2061   -2.0379 H   0  0  0  0  0  0  0  0  0  0  0  0
   -6.0548    0.0284   -2.0896 H   0  0  0  0  0  0  0  0  0  0  0  0
   -7.0520   -2.4455   -6.0712 H   0  0  0  0  0  0  0  0  0  0  0  0
   -6.9664   -3.8033   -4.9157 H   0  0  0  0  0  0  0  0  0  0  0  0
   -9.4642   -3.8579   -4.8059 H   0  0  0  0  0  0  0  0  0  0  0  0
   -9.5524   -2.5117   -5.9441 H   0  0  0  0  0  0  0  0  0  0  0  0
   -8.9153   -4.0744   -6.4730 H   0  0  0  0  0  0  0  0  0  0  0  0
    3.0461   -2.6518   -2.3355 H   0  0  0  0  0  0  0  0  0  0  0  0
    5.4978   -2.2858   -2.9345 H   0  0  0  0  0  0  0  0  0  0  0  0
    5.3915   -1.3295   -7.3533 H   0  0  0  0  0  0  0  0  0  0  0  0
    7.1087   -0.9133   -7.5795 H   0  0  0  0  0  0  0  0  0  0  0  0
    6.5804    1.4935   -7.1643 H   0  0  0  0  0  0  0  0  0  0  0  0
    4.8707    1.0910   -6.9606 H   0  0  0  0  0  0  0  0  0  0  0  0
    5.6448    0.8754   -8.5346 H   0  0  0  0  0  0  0  0  0  0  0  0
    1.5089   -1.9316   -6.7671 H   0  0  0  0  0  0  0  0  0  0  0  0
   -3.0786   -1.1455   -8.7429 H   0  0  0  0  0  0  0  0  0  0  0  0
   -3.1645   -2.8709   -9.0810 H   0  0  0  0  0  0  0  0  0  0  0  0
   -4.6576   -1.7434  -10.6371 H   0  0  0  0  0  0  0  0  0  0  0  0
   -3.4001   -0.5804  -11.0895 H   0  0  0  0  0  0  0  0  0  0  0  0
   -3.6945   -2.4579  -12.7778 H   0  0  0  0  0  0  0  0  0  0  0  0
   -3.1071   -3.5764  -11.5388 H   0  0  0  0  0  0  0  0  0  0  0  0
   -1.2101   -2.9890  -12.8560 H   0  0  0  0  0  0  0  0  0  0  0  0
   -2.0519   -1.0474  -13.7817 H   0  0  0  0  0  0  0  0  0  0  0  0
    2.6969   -2.1170  -15.4122 H   0  0  0  0  0  0  0  0  0  0  0  0
    3.2811   -0.8333  -10.2192 H   0  0  0  0  0  0  0  0  0  0  0  0
    3.7429   -2.5311  -10.2761 H   0  0  0  0  0  0  0  0  0  0  0  0
    5.1756   -0.1511  -11.5293 H   0  0  0  0  0  0  0  0  0  0  0  0
    5.7845   -1.2756  -10.3101 H   0  0  0  0  0  0  0  0  0  0  0  0
    5.5958   -3.1270  -12.0609 H   0  0  0  0  0  0  0  0  0  0  0  0
    6.7775   -1.8816  -12.4731 H   0  0  0  0  0  0  0  0  0  0  0  0
    5.2009   -0.7755  -13.9576 H   0  0  0  0  0  0  0  0  0  0  0  0
    4.9231   -2.6083  -15.3914 H   0  0  0  0  0  0  0  0  0  0  0  0
  1  2  1  0  0  0  0
  2  3  1  0  0  0  0
  3  4  2  0  0  0  0
  4  5  1  0  0  0  0
  5  6  1  0  0  0  0
  6  7  1  0  0  0  0
  7  8  1  0  0  0  0
  8  9  1  0  0  0  0
  9 10  1  0  0  0  0
  3 11  1  0  0  0  0
 11 12  1  0  0  0  0
 12 13  1  0  0  0  0
 13 14  2  0  0  0  0
 14 15  1  0  0  0  0
 15 16  1  0  0  0  0
 16 17  1  0  0  0  0
 17 18  1  0  0  0  0
 18 19  1  0  0  0  0
 19 20  1  0  0  0  0
 13 21  1  0  0  0  0
 21 22  2  0  0  0  0
 22 23  1  0  0  0  0
 23 24  2  0  0  0  0
 24 25  1  0  0  0  0
 25 26  2  0  0  0  0
 26 27  1  0  0  0  0
 27 28  2  0  0  0  0
 28 29  1  0  0  0  0
 29 30  1  0  0  0  0
 30 31  1  0  0  0  0
 28 32  1  0  0  0  0
 24 33  1  0  0  0  0
 33 34  2  0  0  0  0
 34 35  1  0  0  0  0
 35 36  1  0  0  0  0
 36 37  2  0  0  0  0
 37 38  1  0  0  0  0
 38 39  2  0  0  0  0
 39 40  1  0  0  0  0
 40 41  1  0  0  0  0
 41 42  1  0  0  0  0
 39 43  1  0  0  0  0
 35 44  2  0  0  0  0
 44 45  1  0  0  0  0
 34 46  1  0  0  0  0
 46 47  2  0  0  0  0
 47 48  1  0  0  0  0
 47 49  1  0  0  0  0
 49 50  2  0  0  0  0
 50 51  1  0  0  0  0
 51 52  2  0  0  0  0
 52 53  1  0  0  0  0
 53 54  2  0  0  0  0
 54 55  1  0  0  0  0
 55 56  2  0  0  0  0
 56 57  1  0  0  0  0
 57 58  1  0  0  0  0
 58 59  1  0  0  0  0
 56 60  1  0  0  0  0
 52 61  1  0  0  0  0
 61 62  2  0  0  0  0
 62 63  1  0  0  0  0
 63 64  1  0  0  0  0
 64 65  2  0  0  0  0
 65 66  1  0  0  0  0
 66 67  2  0  0  0  0
 67 68  1  0  0  0  0
 68 69  1  0  0  0  0
 69 70  1  0  0  0  0
 67 71  1  0  0  0  0
 63 72  2  0  0  0  0
 72 73  1  0  0  0  0
 62 74  1  0  0  0  0
 74 75  2  0  0  0  0
 75 76  1  0  0  0  0
 75 77  1  0  0  0  0
 77 78  1  0  0  0  0
 78 79  1  0  0  0  0
 79 80  2  0  0  0  0
 80 81  1  0  0  0  0
 81 82  1  0  0  0  0
 82 83  1  0  0  0  0
 83 84  1  0  0  0  0
 84 85  1  0  0  0  0
 85 86  1  0  0  0  0
 79 87  1  0  0  0  0
 87 88  1  0  0  0  0
 88 89  1  0  0  0  0
 89 90  2  0  0  0  0
 90 91  1  0  0  0  0
 91 92  1  0  0  0  0
 92 93  1  0  0  0  0
 93 94  1  0  0  0  0
 94 95  1  0  0  0  0
 95 96  1  0  0  0  0
  5  1  2  0  0  0  0
 15 11  2  0  0  0  0
 45 21  1  0  0  0  0
 73 49  1  0  0  0  0
 81 77  2  0  0  0  0
 91 87  2  0  0  0  0
  9  4  1  0  0  0  0
 19 14  1  0  0  0  0
 44 23  1  0  0  0  0
 72 51  1  0  0  0  0
 85 80  1  0  0  0  0
 95 90  1  0  0  0  0
 32 25  1  0  0  0  0
 48 33  1  0  0  0  0
 60 53  1  0  0  0  0
 76 61  1  0  0  0  0
 43 36  1  0  0  0  0
 71 64  1  0  0  0  0
  1 97  1  0  0  0  0
  6 98  1  0  0  0  0
  6 99  1  0  0  0  0
  7100  1  0  0  0  0
  7101  1  0  0  0  0
  8102  1  0  0  0  0
  8103  1  0  0  0  0
  9104  1  0  0  0  0
 10105  1  0  0  0  0
 16106  1  0  0  0  0
 16107  1  0  0  0  0
 17108  1  0  0  0  0
 17109  1  0  0  0  0
 18110  1  0  0  0  0
 18111  1  0  0  0  0
 19112  1  0  0  0  0
 20113  1  0  0  0  0
 22114  1  0  0  0  0
 26115  1  0  0  0  0
 27116  1  0  0  0  0
 30117  1  0  0  0  0
 30118  1  0  0  0  0
 31119  1  0  0  0  0
 31120  1  0  0  0  0
 31121  1  0  0  0  0
 37122  1  0  0  0  0
 38123  1  0  0  0  0
 41124  1  0  0  0  0
 41125  1  0  0  0  0
 42126  1  0  0  0  0
 42127  1  0  0  0  0
 42128  1  0  0  0  0
 46129  1  0  0  0  0
 50130  1  0  0  0  0
 54131  1  0  0  0  0
 55132  1  0  0  0  0
 58133  1  0  0  0  0
 58134  1  0  0  0  0
 59135  1  0  0  0  0
 59136  1  0  0  0  0
 59137  1  0  0  0  0
 65138  1  0  0  0  0
 66139  1  0  0  0  0
 69140  1  0  0  0  0
 69141  1  0  0  0  0
 70142  1  0  0  0  0
 70143  1  0  0  0  0
 70144  1  0  0  0  0
 74145  1  0  0  0  0
 82146  1  0  0  0  0
 82147  1  0  0  0  0
 83148  1  0  0  0  0
 83149  1  0  0  0  0
 84150  1  0  0  0  0
 84151  1  0  0  0  0
 85152  1  0  0  0  0
 86153  1  0  0  0  0
 89154  1  0  0  0  0
 92155  1  0  0  0  0
 92156  1  0  0  0  0
 93157  1  0  0  0  0
 93158  1  0  0  0  0
 94159  1  0  0  0  0
 94160  1  0  0  0  0
 95161  1  0  0  0  0
 96162  1  0  0  0  0
M  END
