
  xtb     03082207093D
 energy: -355.732121081584 gnorm: 0.000317157643 xtb: 6.4.1 (unknown)
203226  0     0  0            999 V2000
    8.0281   -4.7904   14.1611 C   0  0  0  0  0  0  0  0  0  0  0  0
    8.0120   -5.6600   13.1313 C   0  0  0  0  0  0  0  0  0  0  0  0
    7.7992   -5.0323   11.8679 C   0  0  0  0  0  0  0  0  0  0  0  0
    7.6714   -5.6439   10.6048 C   0  0  0  0  0  0  0  0  0  0  0  0
    7.8240   -7.0690   10.3966 C   0  0  0  0  0  0  0  0  0  0  0  0
    7.0935   -7.8577    9.5523 C   0  0  0  0  0  0  0  0  0  0  0  0
    7.4968   -9.2031    9.4532 C   0  0  0  0  0  0  0  0  0  0  0  0
    8.5852   -9.5396   10.2049 C   0  0  0  0  0  0  0  0  0  0  0  0
    9.2121  -11.1668   10.3284 S   0  0  0  0  0  0  0  0  0  0  0  0
   10.8995  -10.8623   10.9594 C   0  0  0  0  0  0  0  0  0  0  0  0
   11.8055  -10.2604    9.9052 C   0  0  0  0  0  0  0  0  0  0  0  0
    9.2072   -8.0674   11.2024 Se  0  0  0  0  0  2  0  0  0  0  0  0
    7.3874   -4.7943    9.5375 C   0  0  0  0  0  0  0  0  0  0  0  0
    7.2464   -3.3945    9.6824 C   0  0  0  0  0  0  0  0  0  0  0  0
    7.3508   -2.7828   10.9469 C   0  0  0  0  0  0  0  0  0  0  0  0
    7.1319   -1.3609   11.1309 C   0  0  0  0  0  0  0  0  0  0  0  0
    7.8213   -0.5213   11.9631 C   0  0  0  0  0  0  0  0  0  0  0  0
    7.3838    0.8187   11.9899 C   0  0  0  0  0  0  0  0  0  0  0  0
    6.3166    1.0896   11.1901 C   0  0  0  0  0  0  0  0  0  0  0  0
    5.5793    2.6607   10.9142 S   0  0  0  0  0  0  0  0  0  0  0  0
    6.8502    3.4117    9.8198 C   0  0  0  0  0  0  0  0  0  0  0  0
    7.1843    2.5421    8.6270 C   0  0  0  0  0  0  0  0  0  0  0  0
    5.7220   -0.4411   10.2768 Se  0  0  0  0  0  2  0  0  0  0  0  0
    7.6413   -3.6327   12.0102 C   0  0  0  0  0  0  0  0  0  0  0  0
    7.7859   -3.1485   13.6790 S   0  0  0  0  0  0  0  0  0  0  0  0
    7.0183   -2.7583    8.4417 C   0  0  0  0  0  0  0  0  0  0  0  0
    6.9372   -3.6156    7.3827 C   0  0  0  0  0  0  0  0  0  0  0  0
    7.1916   -5.2746    7.8693 S   0  0  0  0  0  0  0  0  0  0  0  0
    6.5696   -3.2386    6.0565 C   0  0  0  0  0  0  0  0  0  0  0  0
    6.2373   -1.9718    5.6695 C   0  0  0  0  0  0  0  0  0  0  0  0
    5.7436   -1.8848    4.3502 C   0  0  0  0  0  0  0  0  0  0  0  0
    5.1873   -0.7501    3.7262 C   0  0  0  0  0  0  0  0  0  0  0  0
    5.0089    0.5189    4.3978 C   0  0  0  0  0  0  0  0  0  0  0  0
    5.0469    1.7654    3.8346 C   0  0  0  0  0  0  0  0  0  0  0  0
    4.6773    2.8394    4.6667 C   0  0  0  0  0  0  0  0  0  0  0  0
    4.3079    2.4907    5.9347 C   0  0  0  0  0  0  0  0  0  0  0  0
    3.8854    3.6434    7.1815 S   0  0  0  0  0  0  0  0  0  0  0  0
    3.0569    2.5734    8.4076 C   0  0  0  0  0  0  0  0  0  0  0  0
    1.6796    2.1422    7.9502 C   0  0  0  0  0  0  0  0  0  0  0  0
    4.4614    0.6335    6.2026 Se  0  0  0  0  0  2  0  0  0  0  0  0
    4.6986   -0.9524    2.4399 C   0  0  0  0  0  0  0  0  0  0  0  0
    4.7270   -2.1991    1.7666 C   0  0  0  0  0  0  0  0  0  0  0  0
    5.2870   -3.3337    2.3961 C   0  0  0  0  0  0  0  0  0  0  0  0
    5.3144   -4.6467    1.7923 C   0  0  0  0  0  0  0  0  0  0  0  0
    6.2871   -5.5972    1.9533 C   0  0  0  0  0  0  0  0  0  0  0  0
    6.0540   -6.8413    1.3406 C   0  0  0  0  0  0  0  0  0  0  0  0
    4.8669   -6.9467    0.6722 C   0  0  0  0  0  0  0  0  0  0  0  0
    4.3960   -8.3607   -0.2399 S   0  0  0  0  0  0  0  0  0  0  0  0
    2.6475   -7.9999   -0.6267 C   0  0  0  0  0  0  0  0  0  0  0  0
    1.7403   -8.1889    0.5720 C   0  0  0  0  0  0  0  0  0  0  0  0
    3.8978   -5.3380    0.7534 Se  0  0  0  0  0  2  0  0  0  0  0  0
    5.7750   -3.1352    3.6883 C   0  0  0  0  0  0  0  0  0  0  0  0
    6.3704   -4.3858    4.7546 S   0  0  0  0  0  0  0  0  0  0  0  0
    4.0702   -2.1258    0.5110 C   0  0  0  0  0  0  0  0  0  0  0  0
    3.5185   -0.9076    0.2480 C   0  0  0  0  0  0  0  0  0  0  0  0
    3.8537    0.2539    1.5153 S   0  0  0  0  0  0  0  0  0  0  0  0
    2.6414   -0.5079   -0.7985 C   0  0  0  0  0  0  0  0  0  0  0  0
    2.0748    0.7282   -0.9085 C   0  0  0  0  0  0  0  0  0  0  0  0
    1.0682    0.8201   -1.8930 C   0  0  0  0  0  0  0  0  0  0  0  0
    0.2676    1.9478   -2.1841 C   0  0  0  0  0  0  0  0  0  0  0  0
    0.3290    3.1620   -1.4009 C   0  0  0  0  0  0  0  0  0  0  0  0
    0.1254    4.4468   -1.8275 C   0  0  0  0  0  0  0  0  0  0  0  0
    0.1996    5.4506   -0.8426 C   0  0  0  0  0  0  0  0  0  0  0  0
    0.4467    5.0052    0.4247 C   0  0  0  0  0  0  0  0  0  0  0  0
    0.6016    6.0425    1.8250 S   0  0  0  0  0  0  0  0  0  0  0  0
    1.7565    5.0897    2.8856 C   0  0  0  0  0  0  0  0  0  0  0  0
    1.0511    4.1155    3.8067 C   0  0  0  0  0  0  0  0  0  0  0  0
    0.5625    3.1315    0.4740 Se  0  0  0  0  0  2  0  0  0  0  0  0
   -0.6325    1.7865   -3.2324 C   0  0  0  0  0  0  0  0  0  0  0  0
   -0.7823    0.5709   -3.9444 C   0  0  0  0  0  0  0  0  0  0  0  0
    0.0158   -0.5603   -3.6505 C   0  0  0  0  0  0  0  0  0  0  0  0
   -0.0867   -1.7948   -4.3946 C   0  0  0  0  0  0  0  0  0  0  0  0
    0.1155   -3.0632   -3.9174 C   0  0  0  0  0  0  0  0  0  0  0  0
    0.0089   -4.1055   -4.8538 C   0  0  0  0  0  0  0  0  0  0  0  0
   -0.2611   -3.7142   -6.1349 C   0  0  0  0  0  0  0  0  0  0  0  0
   -0.3826   -4.8152   -7.4827 S   0  0  0  0  0  0  0  0  0  0  0  0
   -1.4822   -3.8910   -8.6112 C   0  0  0  0  0  0  0  0  0  0  0  0
   -2.8928   -3.7880   -8.0672 C   0  0  0  0  0  0  0  0  0  0  0  0
   -0.3947   -1.8454   -6.2648 Se  0  0  0  0  0  2  0  0  0  0  0  0
    0.9178   -0.3977   -2.6011 C   0  0  0  0  0  0  0  0  0  0  0  0
    2.0055   -1.6210   -1.9848 S   0  0  0  0  0  0  0  0  0  0  0  0
   -1.8405    0.6383   -4.8751 C   0  0  0  0  0  0  0  0  0  0  0  0
   -2.4544    1.8599   -4.9382 C   0  0  0  0  0  0  0  0  0  0  0  0
   -1.7738    2.9872   -3.7832 S   0  0  0  0  0  0  0  0  0  0  0  0
   -3.5292    2.2087   -5.7975 C   0  0  0  0  0  0  0  0  0  0  0  0
   -4.7153    3.3773   -5.3457 S   0  0  0  0  0  0  0  0  0  0  0  0
   -5.6838    3.0749   -6.7604 C   0  0  0  0  0  0  0  0  0  0  0  0
   -5.0649    2.1264   -7.5885 C   0  0  0  0  0  0  0  0  0  0  0  0
   -3.8215    1.6503   -7.0467 C   0  0  0  0  0  0  0  0  0  0  0  0
   -2.9992    0.7770   -7.7931 C   0  0  0  0  0  0  0  0  0  0  0  0
   -3.4563    0.3685   -9.0082 C   0  0  0  0  0  0  0  0  0  0  0  0
   -2.8189   -0.5002  -10.0149 C   0  0  0  0  0  0  0  0  0  0  0  0
   -1.7568   -1.0750   -9.9664 O   0  0  0  0  0  0  0  0  0  0  0  0
   -3.6979   -0.5367  -11.0845 N   0  0  0  0  0  0  0  0  0  0  0  0
   -3.4492   -1.2896  -12.2949 C   0  0  0  0  0  0  0  0  0  0  0  0
   -3.8309   -2.7560  -12.1275 C   0  0  0  0  0  0  0  0  0  0  0  0
   -4.8474    0.2208  -10.8815 C   0  0  0  0  0  0  0  0  0  0  0  0
   -5.7401    0.3424  -11.6821 O   0  0  0  0  0  0  0  0  0  0  0  0
   -4.6976    0.8135   -9.5362 C   0  0  0  0  0  0  0  0  0  0  0  0
   -5.4965    1.6885   -8.8619 C   0  0  0  0  0  0  0  0  0  0  0  0
   -6.9605    3.6700   -6.9015 C   0  0  0  0  0  0  0  0  0  0  0  0
   -8.2394    2.8174   -7.7062 S   0  0  0  0  0  0  0  0  0  0  0  0
   -9.4260    4.0276   -7.3323 C   0  0  0  0  0  0  0  0  0  0  0  0
   -8.8383    5.0847   -6.6239 C   0  0  0  0  0  0  0  0  0  0  0  0
   -7.4374    4.8781   -6.3728 C   0  0  0  0  0  0  0  0  0  0  0  0
   -6.6779    5.8621   -5.7013 C   0  0  0  0  0  0  0  0  0  0  0  0
   -7.3291    6.9765   -5.2657 C   0  0  0  0  0  0  0  0  0  0  0  0
   -6.8199    8.1598   -4.5413 C   0  0  0  0  0  0  0  0  0  0  0  0
   -5.6973    8.4188   -4.1864 O   0  0  0  0  0  0  0  0  0  0  0  0
   -7.9270    8.9726   -4.3370 N   0  0  0  0  0  0  0  0  0  0  0  0
   -7.8634   10.2303   -3.6244 C   0  0  0  0  0  0  0  0  0  0  0  0
   -8.0870   10.0290   -2.1297 C   0  0  0  0  0  0  0  0  0  0  0  0
   -9.1042    8.4449   -4.8466 C   0  0  0  0  0  0  0  0  0  0  0  0
  -10.1847    8.9770   -4.7878 O   0  0  0  0  0  0  0  0  0  0  0  0
   -8.7245    7.1530   -5.4585 C   0  0  0  0  0  0  0  0  0  0  0  0
   -9.4837    6.2402   -6.1256 C   0  0  0  0  0  0  0  0  0  0  0  0
  -10.7665    3.8735   -7.7731 C   0  0  0  0  0  0  0  0  0  0  0  0
  -11.7650    5.2512   -8.1327 S   0  0  0  0  0  0  0  0  0  0  0  0
  -13.0781    4.2816   -8.6136 C   0  0  0  0  0  0  0  0  0  0  0  0
  -12.8038    2.9363   -8.5110 C   0  0  0  0  0  0  0  0  0  0  0  0
  -11.4674    2.6871   -8.0282 C   0  0  0  0  0  0  0  0  0  0  0  0
  -11.0410    1.3575   -7.8079 C   0  0  0  0  0  0  0  0  0  0  0  0
  -11.9180    0.3555   -8.0947 C   0  0  0  0  0  0  0  0  0  0  0  0
  -11.7588   -1.1057   -7.9529 C   0  0  0  0  0  0  0  0  0  0  0  0
  -10.8119   -1.7397   -7.5568 O   0  0  0  0  0  0  0  0  0  0  0  0
  -12.9580   -1.6541   -8.3867 N   0  0  0  0  0  0  0  0  0  0  0  0
  -13.2287   -3.0753   -8.3721 C   0  0  0  0  0  0  0  0  0  0  0  0
  -13.8225   -3.5086   -7.0361 C   0  0  0  0  0  0  0  0  0  0  0  0
  -13.8887   -0.7067   -8.7879 C   0  0  0  0  0  0  0  0  0  0  0  0
  -14.9946   -0.9551   -9.1983 O   0  0  0  0  0  0  0  0  0  0  0  0
  -13.2249    0.6032   -8.6027 C   0  0  0  0  0  0  0  0  0  0  0  0
  -13.6853    1.8643   -8.8110 C   0  0  0  0  0  0  0  0  0  0  0  0
    8.1672   -5.0044   15.2026 H   0  0  0  0  0  0  0  0  0  0  0  0
    8.1208   -6.7228   13.2645 H   0  0  0  0  0  0  0  0  0  0  0  0
    6.2389   -7.4848    9.0139 H   0  0  0  0  0  0  0  0  0  0  0  0
    6.9928   -9.9178    8.8262 H   0  0  0  0  0  0  0  0  0  0  0  0
   11.2555  -11.8413   11.2783 H   0  0  0  0  0  0  0  0  0  0  0  0
   10.8054  -10.2118   11.8349 H   0  0  0  0  0  0  0  0  0  0  0  0
   12.8052  -10.1230   10.3120 H   0  0  0  0  0  0  0  0  0  0  0  0
   11.8651  -10.9143    9.0383 H   0  0  0  0  0  0  0  0  0  0  0  0
   11.4284   -9.2903    9.5822 H   0  0  0  0  0  0  0  0  0  0  0  0
    8.6739   -0.8504   12.5324 H   0  0  0  0  0  0  0  0  0  0  0  0
    7.8610    1.5752   12.5895 H   0  0  0  0  0  0  0  0  0  0  0  0
    6.4001    4.3533    9.5087 H   0  0  0  0  0  0  0  0  0  0  0  0
    7.7313    3.6113   10.4292 H   0  0  0  0  0  0  0  0  0  0  0  0
    7.8453    3.0824    7.9528 H   0  0  0  0  0  0  0  0  0  0  0  0
    7.6841    1.6261    8.9416 H   0  0  0  0  0  0  0  0  0  0  0  0
    6.2807    2.2732    8.0813 H   0  0  0  0  0  0  0  0  0  0  0  0
    6.9338   -1.6925    8.3282 H   0  0  0  0  0  0  0  0  0  0  0  0
    6.3512   -1.1217    6.3186 H   0  0  0  0  0  0  0  0  0  0  0  0
    5.3717    1.9273    2.8209 H   0  0  0  0  0  0  0  0  0  0  0  0
    4.6772    3.8624    4.3320 H   0  0  0  0  0  0  0  0  0  0  0  0
    3.0093    3.1762    9.3137 H   0  0  0  0  0  0  0  0  0  0  0  0
    3.7129    1.7145    8.5924 H   0  0  0  0  0  0  0  0  0  0  0  0
    1.7420    1.5551    7.0335 H   0  0  0  0  0  0  0  0  0  0  0  0
    1.0514    3.0103    7.7635 H   0  0  0  0  0  0  0  0  0  0  0  0
    1.2139    1.5296    8.7188 H   0  0  0  0  0  0  0  0  0  0  0  0
    7.2019   -5.3976    2.4849 H   0  0  0  0  0  0  0  0  0  0  0  0
    6.7547   -7.6564    1.3921 H   0  0  0  0  0  0  0  0  0  0  0  0
    2.3947   -8.6935   -1.4282 H   0  0  0  0  0  0  0  0  0  0  0  0
    2.6057   -6.9761   -1.0123 H   0  0  0  0  0  0  0  0  0  0  0  0
    1.8114   -9.2080    0.9446 H   0  0  0  0  0  0  0  0  0  0  0  0
    0.7091   -7.9886    0.2889 H   0  0  0  0  0  0  0  0  0  0  0  0
    2.0152   -7.5060    1.3758 H   0  0  0  0  0  0  0  0  0  0  0  0
    3.9907   -2.9398   -0.1906 H   0  0  0  0  0  0  0  0  0  0  0  0
    2.4044    1.5462   -0.2916 H   0  0  0  0  0  0  0  0  0  0  0  0
   -0.0089    4.6934   -2.8671 H   0  0  0  0  0  0  0  0  0  0  0  0
    0.0979    6.4973   -1.0704 H   0  0  0  0  0  0  0  0  0  0  0  0
    2.4544    4.5789    2.2192 H   0  0  0  0  0  0  0  0  0  0  0  0
    2.2904    5.8482    3.4577 H   0  0  0  0  0  0  0  0  0  0  0  0
    0.3426    4.6387    4.4443 H   0  0  0  0  0  0  0  0  0  0  0  0
    0.5116    3.3605    3.2320 H   0  0  0  0  0  0  0  0  0  0  0  0
    1.7852    3.6114    4.4324 H   0  0  0  0  0  0  0  0  0  0  0  0
    0.2762   -3.2661   -2.8725 H   0  0  0  0  0  0  0  0  0  0  0  0
    0.1160   -5.1426   -4.5871 H   0  0  0  0  0  0  0  0  0  0  0  0
   -1.4555   -4.4596   -9.5403 H   0  0  0  0  0  0  0  0  0  0  0  0
   -1.0428   -2.9049   -8.7845 H   0  0  0  0  0  0  0  0  0  0  0  0
   -2.8997   -3.2537   -7.1164 H   0  0  0  0  0  0  0  0  0  0  0  0
   -3.5190   -3.2395   -8.7678 H   0  0  0  0  0  0  0  0  0  0  0  0
   -3.3196   -4.7766   -7.9124 H   0  0  0  0  0  0  0  0  0  0  0  0
   -2.2167   -0.2154   -5.4097 H   0  0  0  0  0  0  0  0  0  0  0  0
   -2.0249    0.4766   -7.4395 H   0  0  0  0  0  0  0  0  0  0  0  0
   -4.0440   -0.8276  -13.0864 H   0  0  0  0  0  0  0  0  0  0  0  0
   -2.3850   -1.2015  -12.5288 H   0  0  0  0  0  0  0  0  0  0  0  0
   -4.8831   -2.8448  -11.8665 H   0  0  0  0  0  0  0  0  0  0  0  0
   -3.6554   -3.2888  -13.0577 H   0  0  0  0  0  0  0  0  0  0  0  0
   -3.2297   -3.2124  -11.3446 H   0  0  0  0  0  0  0  0  0  0  0  0
   -6.4095    2.0527   -9.3041 H   0  0  0  0  0  0  0  0  0  0  0  0
   -5.6176    5.7467   -5.5459 H   0  0  0  0  0  0  0  0  0  0  0  0
   -8.6357   10.8815   -4.0408 H   0  0  0  0  0  0  0  0  0  0  0  0
   -6.8747   10.6585   -3.8065 H   0  0  0  0  0  0  0  0  0  0  0  0
   -9.0682    9.5946   -1.9522 H   0  0  0  0  0  0  0  0  0  0  0  0
   -8.0292   10.9849   -1.6171 H   0  0  0  0  0  0  0  0  0  0  0  0
   -7.3264    9.3666   -1.7228 H   0  0  0  0  0  0  0  0  0  0  0  0
  -10.5408    6.3989   -6.2604 H   0  0  0  0  0  0  0  0  0  0  0  0
  -13.9893    4.7412   -8.9404 H   0  0  0  0  0  0  0  0  0  0  0  0
  -10.0655    1.1306   -7.4103 H   0  0  0  0  0  0  0  0  0  0  0  0
  -13.9281   -3.2835   -9.1852 H   0  0  0  0  0  0  0  0  0  0  0  0
  -12.2816   -3.5898   -8.5519 H   0  0  0  0  0  0  0  0  0  0  0  0
  -14.0117   -4.5782   -7.0468 H   0  0  0  0  0  0  0  0  0  0  0  0
  -14.7606   -2.9884   -6.8560 H   0  0  0  0  0  0  0  0  0  0  0  0
  -13.1307   -3.2830   -6.2278 H   0  0  0  0  0  0  0  0  0  0  0  0
  -14.6804    2.0586   -9.1783 H   0  0  0  0  0  0  0  0  0  0  0  0
  1  2  2  0  0  0  0
  2  3  1  0  0  0  0
  3  4  2  0  0  0  0
  4  5  1  0  0  0  0
  5  6  2  0  0  0  0
  6  7  1  0  0  0  0
  7  8  2  0  0  0  0
  8  9  1  0  0  0  0
  9 10  1  0  0  0  0
 10 11  1  0  0  0  0
  8 12  1  0  0  0  0
  4 13  1  0  0  0  0
 13 14  2  0  0  0  0
 14 15  1  0  0  0  0
 15 16  1  0  0  0  0
 16 17  2  0  0  0  0
 17 18  1  0  0  0  0
 18 19  2  0  0  0  0
 19 20  1  0  0  0  0
 20 21  1  0  0  0  0
 21 22  1  0  0  0  0
 19 23  1  0  0  0  0
 15 24  2  0  0  0  0
 24 25  1  0  0  0  0
 14 26  1  0  0  0  0
 26 27  2  0  0  0  0
 27 28  1  0  0  0  0
 27 29  1  0  0  0  0
 29 30  2  0  0  0  0
 30 31  1  0  0  0  0
 31 32  2  0  0  0  0
 32 33  1  0  0  0  0
 33 34  2  0  0  0  0
 34 35  1  0  0  0  0
 35 36  2  0  0  0  0
 36 37  1  0  0  0  0
 37 38  1  0  0  0  0
 38 39  1  0  0  0  0
 36 40  1  0  0  0  0
 32 41  1  0  0  0  0
 41 42  2  0  0  0  0
 42 43  1  0  0  0  0
 43 44  1  0  0  0  0
 44 45  2  0  0  0  0
 45 46  1  0  0  0  0
 46 47  2  0  0  0  0
 47 48  1  0  0  0  0
 48 49  1  0  0  0  0
 49 50  1  0  0  0  0
 47 51  1  0  0  0  0
 43 52  2  0  0  0  0
 52 53  1  0  0  0  0
 42 54  1  0  0  0  0
 54 55  2  0  0  0  0
 55 56  1  0  0  0  0
 55 57  1  0  0  0  0
 57 58  2  0  0  0  0
 58 59  1  0  0  0  0
 59 60  2  0  0  0  0
 60 61  1  0  0  0  0
 61 62  2  0  0  0  0
 62 63  1  0  0  0  0
 63 64  2  0  0  0  0
 64 65  1  0  0  0  0
 65 66  1  0  0  0  0
 66 67  1  0  0  0  0
 64 68  1  0  0  0  0
 60 69  1  0  0  0  0
 69 70  2  0  0  0  0
 70 71  1  0  0  0  0
 71 72  1  0  0  0  0
 72 73  2  0  0  0  0
 73 74  1  0  0  0  0
 74 75  2  0  0  0  0
 75 76  1  0  0  0  0
 76 77  1  0  0  0  0
 77 78  1  0  0  0  0
 75 79  1  0  0  0  0
 71 80  2  0  0  0  0
 80 81  1  0  0  0  0
 70 82  1  0  0  0  0
 82 83  2  0  0  0  0
 83 84  1  0  0  0  0
 83 85  1  0  0  0  0
 85 86  1  0  0  0  0
 86 87  1  0  0  0  0
 87 88  2  0  0  0  0
 88 89  1  0  0  0  0
 89 90  1  0  0  0  0
 90 91  2  0  0  0  0
 91 92  1  0  0  0  0
 92 93  2  0  0  0  0
 92 94  1  0  0  0  0
 94 95  1  0  0  0  0
 95 96  1  0  0  0  0
 94 97  1  0  0  0  0
 97 98  2  0  0  0  0
 97 99  1  0  0  0  0
 99100  2  0  0  0  0
 87101  1  0  0  0  0
101102  1  0  0  0  0
102103  1  0  0  0  0
103104  2  0  0  0  0
104105  1  0  0  0  0
105106  1  0  0  0  0
106107  2  0  0  0  0
107108  1  0  0  0  0
108109  2  0  0  0  0
108110  1  0  0  0  0
110111  1  0  0  0  0
111112  1  0  0  0  0
110113  1  0  0  0  0
113114  2  0  0  0  0
113115  1  0  0  0  0
115116  2  0  0  0  0
103117  1  0  0  0  0
117118  1  0  0  0  0
118119  1  0  0  0  0
119120  2  0  0  0  0
120121  1  0  0  0  0
121122  1  0  0  0  0
122123  2  0  0  0  0
123124  1  0  0  0  0
124125  2  0  0  0  0
124126  1  0  0  0  0
126127  1  0  0  0  0
127128  1  0  0  0  0
126129  1  0  0  0  0
129130  2  0  0  0  0
129131  1  0  0  0  0
131132  2  0  0  0  0
 25  1  1  0  0  0  0
 53 29  1  0  0  0  0
 81 57  1  0  0  0  0
 89 85  2  0  0  0  0
 99 91  1  0  0  0  0
105101  2  0  0  0  0
115107  1  0  0  0  0
121117  2  0  0  0  0
131123  1  0  0  0  0
 24  3  1  0  0  0  0
 52 31  1  0  0  0  0
 80 59  1  0  0  0  0
100 88  1  0  0  0  0
116104  1  0  0  0  0
132120  1  0  0  0  0
 12  5  1  0  0  0  0
 28 13  1  0  0  0  0
 40 33  1  0  0  0  0
 56 41  1  0  0  0  0
 68 61  1  0  0  0  0
 84 69  1  0  0  0  0
 23 16  1  0  0  0  0
 51 44  1  0  0  0  0
 79 72  1  0  0  0  0
  1133  1  0  0  0  0
  2134  1  0  0  0  0
  6135  1  0  0  0  0
  7136  1  0  0  0  0
 10137  1  0  0  0  0
 10138  1  0  0  0  0
 11139  1  0  0  0  0
 11140  1  0  0  0  0
 11141  1  0  0  0  0
 17142  1  0  0  0  0
 18143  1  0  0  0  0
 21144  1  0  0  0  0
 21145  1  0  0  0  0
 22146  1  0  0  0  0
 22147  1  0  0  0  0
 22148  1  0  0  0  0
 26149  1  0  0  0  0
 30150  1  0  0  0  0
 34151  1  0  0  0  0
 35152  1  0  0  0  0
 38153  1  0  0  0  0
 38154  1  0  0  0  0
 39155  1  0  0  0  0
 39156  1  0  0  0  0
 39157  1  0  0  0  0
 45158  1  0  0  0  0
 46159  1  0  0  0  0
 49160  1  0  0  0  0
 49161  1  0  0  0  0
 50162  1  0  0  0  0
 50163  1  0  0  0  0
 50164  1  0  0  0  0
 54165  1  0  0  0  0
 58166  1  0  0  0  0
 62167  1  0  0  0  0
 63168  1  0  0  0  0
 66169  1  0  0  0  0
 66170  1  0  0  0  0
 67171  1  0  0  0  0
 67172  1  0  0  0  0
 67173  1  0  0  0  0
 73174  1  0  0  0  0
 74175  1  0  0  0  0
 77176  1  0  0  0  0
 77177  1  0  0  0  0
 78178  1  0  0  0  0
 78179  1  0  0  0  0
 78180  1  0  0  0  0
 82181  1  0  0  0  0
 90182  1  0  0  0  0
 95183  1  0  0  0  0
 95184  1  0  0  0  0
 96185  1  0  0  0  0
 96186  1  0  0  0  0
 96187  1  0  0  0  0
100188  1  0  0  0  0
106189  1  0  0  0  0
111190  1  0  0  0  0
111191  1  0  0  0  0
112192  1  0  0  0  0
112193  1  0  0  0  0
112194  1  0  0  0  0
116195  1  0  0  0  0
119196  1  0  0  0  0
122197  1  0  0  0  0
127198  1  0  0  0  0
127199  1  0  0  0  0
128200  1  0  0  0  0
128201  1  0  0  0  0
128202  1  0  0  0  0
132203  1  0  0  0  0
M  END
