278

C         -0.27690       -8.48910       10.38260
C          0.74670       -8.35840        9.51460
C          0.32890       -7.95840        8.21060
C          1.12070       -7.73790        7.06600
C          2.56600       -7.82670        7.07700
C          3.36820       -8.31490        6.08280
C          4.75610       -8.21300        6.29380
C          5.11980       -7.61200        7.46520
S          6.77430       -7.36420        7.96850
C          6.50950       -6.51240        9.56750
C          7.83950       -6.18270       10.21220
Se         3.61320       -7.11190        8.47460
C          0.43540       -7.39280        5.90220
C         -0.97200       -7.26160        5.83860
C         -1.76270       -7.48620        6.98240
C         -3.20280       -7.34720        6.92730
C         -4.03180       -7.78280        5.93120
C         -5.39600       -7.45390        6.06760
C         -5.69490       -6.72170        7.17920
S         -7.24130       -6.05830        7.65210
C         -8.07430       -5.89860        6.02170
C         -9.15680       -4.84110        6.10800
Se        -4.18110       -6.40050        8.24450
C         -1.07590       -7.81640        8.14570
S         -1.82220       -8.15330        9.68350
C         -1.40410       -6.82080        4.56420
C         -0.39040       -6.62300        3.67670
S          1.17490       -6.98040        4.37320
C         -0.53610       -6.14860        2.33950
C          0.39570       -5.61270        1.50300
C         -0.15220       -5.12270        0.28930
C          0.50260       -4.45540       -0.75670
C          1.93930       -4.15220       -0.76670
C          2.71230       -4.48590       -1.87900
C          4.03350       -4.11510       -1.94600
C          4.64910       -3.38750       -0.92610
S          6.32590       -2.94830       -1.25840
C          6.83300       -1.68000       -0.04110
C          7.45250       -2.28180        1.20430
C          3.87500       -3.09480        0.19200
F          4.38110       -2.41720        1.24910
C          2.54530       -3.46440        0.27630
C         -0.29070       -4.01490       -1.80520
C         -1.69050       -4.21690       -1.87190
C         -2.34660       -4.90600       -0.83720
C         -3.80530       -5.07170       -0.84130
C         -4.47640       -5.56860       -1.95460
C         -5.85270       -5.69780       -1.96370
C         -6.60970       -5.33760       -0.85480
S         -8.36450       -5.42300       -0.72290
C         -8.89790       -6.27480       -2.24600
C         -8.61980       -7.76580       -2.20630
C         -5.92190       -4.84070        0.25370
C         -4.55440       -4.70210        0.27500
F         -6.62470       -4.47370        1.34780
C         -1.55510       -5.33280        0.21900
S         -2.14080       -6.15490        1.63610
C         -2.27230       -3.52160       -2.95980
C         -1.37190       -2.79580       -3.68800
S          0.26640       -2.99510       -3.10350
C         -1.67780       -1.78230       -4.64380
C         -2.91630       -1.45390       -5.11840
C         -2.99890       -0.14810       -5.65650
C         -4.17670        0.56650       -6.00230
C         -5.40500       -0.05250       -6.40640
C         -6.49970        0.58310       -6.94640
C         -7.55640       -0.23000       -7.38180
C         -7.35550       -1.57490       -7.23470
S         -8.50480       -2.78280       -7.75400
C         -7.67380       -4.34050       -7.28410
C         -7.83320       -4.66330       -5.81130
Se        -5.68530       -1.91960       -6.45540
C         -4.05520        1.95440       -5.83950
C         -2.81320        2.60860       -5.68930
C         -1.59280        1.88540       -5.73700
C         -0.33180        2.57430       -5.72440
C         -0.10420        3.81450       -6.26500
C          1.17490        4.36360       -6.06950
C          2.03200        3.57370       -5.35680
S          3.67680        3.90380       -4.87420
C          3.95310        5.54320       -5.64670
C          5.35980        6.02280       -5.35760
Se         1.24380        1.93980       -4.86830
C         -1.74770        0.51090       -5.59120
S         -0.48660       -0.55810       -5.04170
C         -2.95560        3.90470       -5.14380
C         -4.24160        4.22030       -4.79690
S         -5.37040        3.03130       -5.40930
C         -4.53420        5.04640       -3.66340
C         -3.65520        5.90830       -3.07080
C         -3.78610        5.96730       -1.66080
C         -2.81270        6.43790       -0.76300
C         -1.47730        6.84800       -1.23480
C         -0.77240        5.95400       -2.04580
C          0.52920        6.20490       -2.41090
C          1.19810        7.35250       -1.97940
S          2.88970        7.46470       -2.47390
C          3.37350        9.22440       -2.27810
C          4.69430        9.43980       -2.99210
C          0.48760        8.23020       -1.16710
F          1.06420        9.35670       -0.68700
C         -0.82530        7.99150       -0.79800
C         -2.99700        6.12150        0.57300
C         -4.03700        5.27400        1.03230
C         -5.01600        4.81040        0.13610
C         -5.94000        3.75320        0.57850
C         -6.76770        3.91710        1.68730
C         -7.51390        2.86140        2.16730
C         -7.46920        1.60250        1.56760
S         -8.45640        0.32820        2.29270
C         -7.49230       -1.21290        2.06590
C         -6.12700       -1.14390        2.71860
C         -6.67690        1.46930        0.43160
C         -5.91240        2.51250       -0.04900
F         -6.60880        0.29940       -0.24150
C         -4.87290        5.18580       -1.19140
S         -5.75970        4.48880       -2.52730
C         -3.70820        4.66940        2.27860
C         -2.47560        5.01140        2.74730
S         -1.75560        6.31270        1.78680
C         -1.55180        4.18780        3.46330
C         -0.23030        4.47710        3.64700
C          0.61930        3.35040        3.53460
C          2.00500        3.39800        3.26050
C          2.77990        4.56230        3.59560
C          2.57690        5.37240        4.68350
C          3.42220        6.48870        4.79580
C          4.33670        6.62470        3.78780
S          5.54710        7.88460        3.76890
C          6.18090        7.79120        2.05880
C          5.22510        8.40950        1.05940
Se         4.20040        5.21730        2.53950
C          2.48290        2.32910        2.51000
C          1.73220        1.17380        2.18110
C          0.43220        1.02170        2.71190
C         -0.37550       -0.16970        2.55220
C         -0.58070       -0.97110        1.46570
C         -1.45680       -2.05920        1.65540
C         -1.97620       -2.16850        2.91430
S         -3.06680       -3.42920        3.43540
C         -3.51750       -2.83960        5.10530
C         -4.62810       -3.70330        5.66210
Se        -1.35520       -0.79400        4.03940
C         -0.10460        2.15860        3.31260
S         -1.82970        2.44190        3.46390
C          2.36080        0.41160        1.15950
C          3.50000        0.98500        0.67990
S          3.98470        2.37580        1.64180
C          4.16880        0.82320       -0.56860
C          5.05270        1.74040       -1.05890
C          5.38700        1.55000       -2.41480
C          6.17450        2.39350       -3.22340
C          6.47580        3.72800       -2.76690
C          5.63280        4.50700       -2.01890
C          6.09760        5.79190       -1.69480
C          7.33760        6.09600       -2.17900
S          8.14930        7.60980       -1.83430
C          9.42650        7.65080       -3.13660
C          8.83770        7.92400       -4.50530
Se         8.06720        4.65170       -3.15810
C          6.49970        1.89240       -4.47800
C          6.01370        0.65780       -4.96630
C          5.11710       -0.11170       -4.20250
C          4.55170       -1.35890       -4.67850
C          3.24060       -1.72960       -4.68160
C          2.97390       -3.03310       -5.14800
C          4.07390       -3.75990       -5.49790
S          3.98720       -5.39600       -6.12000
C          5.74650       -5.88490       -6.18950
C          6.31850       -6.22660       -4.82820
Se         5.65380       -2.75860       -5.28320
C          4.81020        0.37190       -2.93670
S          3.73660       -0.37590       -1.77690
C          6.47470        0.40630       -6.29300
C          7.26460        1.38540       -6.77490
S          7.49160        2.69380       -5.66290
H         -0.23270       -8.77780       11.41440
H          1.76950       -8.56300        9.78290
H          2.96560       -8.78910        5.20380
H          5.48240       -8.57770        5.58840
H          5.91750       -7.18420       10.19650
H          5.93220       -5.60710        9.35980
H          8.42390       -5.53240        9.56560
H          7.67420       -5.67670       11.16080
H          8.40920       -7.09100       10.39430
H         -3.67570       -8.38330        5.11070
H         -6.13300       -7.76490        5.34790
H         -8.49400       -6.87100        5.76390
H         -7.30820       -5.62100        5.29910
H         -9.90300       -5.11610        6.84960
H         -9.64470       -4.73750        5.14130
H         -8.72870       -3.88170        6.38860
H         -2.42810       -6.60770        4.31710
H          1.43870       -5.54850        1.75670
H          2.27380       -5.04180       -2.69330
H          4.62370       -4.36800       -2.81290
H          7.56200       -1.08060       -0.58870
H          5.97020       -1.05890        0.18550
H          6.72660       -2.87940        1.74900
H          8.29750       -2.91390        0.94010
H          7.80090       -1.48480        1.85810
H          1.98550       -3.18000        1.15510
H         -3.91250       -5.87680       -2.82250
H         -6.33020       -6.08130       -2.85070
H         -9.97040       -6.08350       -2.28330
H         -8.42870       -5.78280       -3.09660
H         -8.97490       -8.23350       -3.12280
H         -9.13440       -8.22010       -1.36300
H         -7.55530       -7.96480       -2.10280
H         -4.08510       -4.29060        1.15420
H         -3.33100       -3.50010       -3.14140
H         -3.76910       -2.08610       -4.93250
H         -6.54540        1.65130       -7.06670
H         -8.45610        0.17070       -7.81620
H         -6.62090       -4.24650       -7.56620
H         -8.14400       -5.10240       -7.90540
H         -8.88760       -4.73420       -5.55320
H         -7.34860       -5.61370       -5.59430
H         -7.37430       -3.88910       -5.19480
H         -0.85490        4.33000       -6.84090
H          1.43660        5.33190       -6.45750
H          3.79020        5.42210       -6.71790
H          3.21870        6.22730       -5.22170
H          5.53950        6.95930       -5.88210
H          6.09250        5.28960       -5.69020
H          5.48490        6.18870       -4.29010
H         -2.11230        4.49350       -4.83230
H         -2.86930        6.40780       -3.60740
H         -1.24370        5.03510       -2.36140
H          1.06680        5.49790       -3.02540
H          3.46100        9.44130       -1.21510
H          2.58390        9.83290       -2.71660
H          5.46950        8.80160       -2.57310
H          4.59790        9.21260       -4.05160
H          5.00240       10.47700       -2.88240
H         -1.31860        8.70530       -0.15650
H         -6.81390        4.87640        2.18050
H         -8.14200        2.98810        3.03560
H         -7.42630       -1.44100        1.00520
H         -8.11580       -1.96690        2.54610
H         -5.64140       -2.11350        2.63030
H         -5.49560       -0.39980        2.23560
H         -6.22040       -0.88700        3.77230
H         -5.28210        2.33150       -0.90550
H         -4.30020        3.88840        2.72280
H          0.14050        5.48740        3.66120
H          1.83200        5.14460        5.42810
H          3.36310        7.18670        5.61290
H          6.37580        6.73700        1.83770
H          7.12610        8.33220        2.08360
H          4.96980        9.42410        1.35760
H          5.70080        8.44220        0.08100
H          4.30740        7.82350        0.99430
H         -0.15920       -0.75840        0.49770
H         -1.71180       -2.73940        0.86150
H         -2.61600       -2.89490        5.72220
H         -3.83020       -1.79630        5.00380
H         -4.88250       -3.38280        6.67020
H         -4.30950       -4.74360        5.69760
H         -5.51370       -3.63220        5.03430
H          1.94190       -0.47560        0.72260
H          5.45660        2.53090       -0.45290
H          4.64000        4.18730       -1.75440
H          5.50740        6.48550       -1.12320
H          9.94730        6.68900       -3.10370
H         10.11040        8.44160       -2.83000
H          8.15390        7.12540       -4.79260
H          8.29340        8.86570       -4.50330
H          9.63420        7.97870       -5.24400
H          2.45350       -1.05660       -4.37950
H          1.97830       -3.43140       -5.22580
H          6.29140       -5.06250       -6.66370
H          5.75990       -6.75130       -6.85040
H          7.33600       -6.59450       -4.94080
H          5.71880       -6.99480       -4.34540
H          6.34520       -5.34760       -4.18430
H          6.20890       -0.46880       -6.86110
H          7.73880        1.44340       -7.73490
