
  xtb     03082202113D
 energy: -320.200738023484 gnorm: 0.000733558167 xtb: 6.4.1 (unknown)
191211  0     0  0            999 V2000
   11.2735   -4.1109    9.8459 C   0  0  0  0  0  0  0  0  0  0  0  0
    9.9431   -3.5778    8.8967 S   0  0  0  0  0  0  0  0  0  0  0  0
    8.8229   -4.5238    9.8471 C   0  0  0  0  0  0  0  0  0  0  0  0
    9.4887   -5.2164   10.8208 C   0  0  0  0  0  0  0  0  0  0  0  0
   10.8867   -4.9686   10.8222 C   0  0  0  0  0  0  0  0  0  0  0  0
   11.7004   -5.7260   11.8143 C   0  0  0  0  0  0  0  0  0  0  0  0
   13.5013   -5.4958   11.6145 S   0  0  0  0  0  0  0  0  0  0  0  0
   11.3161   -7.2029   11.6963 C   0  0  0  0  0  0  0  0  0  0  0  0
    9.8097   -7.4408   11.9106 C   0  0  0  0  0  0  0  0  0  0  0  0
    8.9370   -6.1698   11.8326 C   0  0  0  0  0  0  0  0  0  0  0  0
    8.9132   -5.4817   13.0738 O   0  0  0  0  0  0  0  0  0  0  0  0
    7.4216   -4.4727    9.5266 C   0  0  0  0  0  0  0  0  0  0  0  0
    6.9253   -4.5404    7.8630 S   0  0  0  0  0  0  0  0  0  0  0  0
    5.2412   -4.2890    8.2845 C   0  0  0  0  0  0  0  0  0  0  0  0
    5.1016   -4.1964    9.6469 C   0  0  0  0  0  0  0  0  0  0  0  0
    6.3364   -4.2848   10.3444 C   0  0  0  0  0  0  0  0  0  0  0  0
    6.3655   -3.9645   11.7958 C   0  0  0  0  0  0  0  0  0  0  0  0
    5.7446   -5.3868   12.8148 S   0  0  0  0  0  0  0  0  0  0  0  0
    5.5070   -2.7184   12.0166 C   0  0  0  0  0  0  0  0  0  0  0  0
    4.0756   -2.8627   11.4783 C   0  0  0  0  0  0  0  0  0  0  0  0
    3.8874   -4.0589   10.5256 C   0  0  0  0  0  0  0  0  0  0  0  0
    2.6567   -3.8784    9.8717 O   0  0  0  0  0  0  0  0  0  0  0  0
    4.3362   -4.1258    7.1861 C   0  0  0  0  0  0  0  0  0  0  0  0
    4.6022   -4.4675    5.8908 C   0  0  0  0  0  0  0  0  0  0  0  0
    3.6116   -4.0579    4.9655 C   0  0  0  0  0  0  0  0  0  0  0  0
    3.5874   -4.2507    3.5680 C   0  0  0  0  0  0  0  0  0  0  0  0
    4.5574   -5.0722    2.8789 C   0  0  0  0  0  0  0  0  0  0  0  0
    5.0862   -4.8795    1.6331 C   0  0  0  0  0  0  0  0  0  0  0  0
    5.9291   -5.8990    1.1499 C   0  0  0  0  0  0  0  0  0  0  0  0
    6.0960   -6.9619    1.9895 C   0  0  0  0  0  0  0  0  0  0  0  0
    7.1686   -8.3021    1.6546 S   0  0  0  0  0  0  0  0  0  0  0  0
    6.5279   -9.5771    2.7959 C   0  0  0  0  0  0  0  0  0  0  0  0
    5.1904  -10.1290    2.3473 C   0  0  0  0  0  0  0  0  0  0  0  0
    5.1554   -6.7116    3.6024 Se  0  0  0  0  0  2  0  0  0  0  0  0
    2.5529   -3.6145    2.8847 C   0  0  0  0  0  0  0  0  0  0  0  0
    1.5281   -2.8741    3.5240 C   0  0  0  0  0  0  0  0  0  0  0  0
    1.4964   -2.7767    4.9316 C   0  0  0  0  0  0  0  0  0  0  0  0
    0.4043   -2.1421    5.6305 C   0  0  0  0  0  0  0  0  0  0  0  0
   -0.9245   -2.1635    5.2984 C   0  0  0  0  0  0  0  0  0  0  0  0
   -1.7912   -1.4653    6.1588 C   0  0  0  0  0  0  0  0  0  0  0  0
   -1.1812   -0.8429    7.2122 C   0  0  0  0  0  0  0  0  0  0  0  0
   -2.0362    0.1370    8.3808 S   0  0  0  0  0  0  0  0  0  0  0  0
   -0.7544    0.4115    9.6535 C   0  0  0  0  0  0  0  0  0  0  0  0
   -0.5116   -0.8132   10.5124 C   0  0  0  0  0  0  0  0  0  0  0  0
    0.6796   -1.1327    7.1975 Se  0  0  0  0  0  2  0  0  0  0  0  0
    2.5786   -3.3367    5.6045 C   0  0  0  0  0  0  0  0  0  0  0  0
    2.8147   -3.2711    7.3274 S   0  0  0  0  0  0  0  0  0  0  0  0
    0.6457   -2.2757    2.5918 C   0  0  0  0  0  0  0  0  0  0  0  0
    0.9397   -2.5684    1.2919 C   0  0  0  0  0  0  0  0  0  0  0  0
    2.3317   -3.6192    1.1560 S   0  0  0  0  0  0  0  0  0  0  0  0
    0.2972   -2.0858    0.1136 C   0  0  0  0  0  0  0  0  0  0  0  0
   -0.7566   -1.2237    0.0184 C   0  0  0  0  0  0  0  0  0  0  0  0
   -1.1127   -0.9037   -1.3148 C   0  0  0  0  0  0  0  0  0  0  0  0
   -2.1067   -0.0068   -1.7628 C   0  0  0  0  0  0  0  0  0  0  0  0
   -3.0488    0.6156   -0.8612 C   0  0  0  0  0  0  0  0  0  0  0  0
   -3.6343    0.0657    0.2479 C   0  0  0  0  0  0  0  0  0  0  0  0
   -4.5568    0.8794    0.9325 C   0  0  0  0  0  0  0  0  0  0  0  0
   -4.7363    2.1245    0.3986 C   0  0  0  0  0  0  0  0  0  0  0  0
   -5.7824    3.3401    1.0959 S   0  0  0  0  0  0  0  0  0  0  0  0
   -5.9532    4.5258   -0.2854 C   0  0  0  0  0  0  0  0  0  0  0  0
   -6.8333    3.9965   -1.3994 C   0  0  0  0  0  0  0  0  0  0  0  0
   -3.6607    2.3788   -1.1282 Se  0  0  0  0  0  2  0  0  0  0  0  0
   -2.1408    0.2275   -3.1347 C   0  0  0  0  0  0  0  0  0  0  0  0
   -1.3043   -0.4190   -4.0735 C   0  0  0  0  0  0  0  0  0  0  0  0
   -0.3209   -1.3247   -3.6262 C   0  0  0  0  0  0  0  0  0  0  0  0
    0.6178   -1.9370   -4.5386 C   0  0  0  0  0  0  0  0  0  0  0  0
    1.2272   -1.3512   -5.6139 C   0  0  0  0  0  0  0  0  0  0  0  0
    2.1238   -2.1647   -6.3334 C   0  0  0  0  0  0  0  0  0  0  0  0
    2.2567   -3.4388   -5.8597 C   0  0  0  0  0  0  0  0  0  0  0  0
    3.2422   -4.6632   -6.6267 S   0  0  0  0  0  0  0  0  0  0  0  0
    3.4963   -5.8359   -5.2484 C   0  0  0  0  0  0  0  0  0  0  0  0
    4.4143   -5.2780   -4.1804 C   0  0  0  0  0  0  0  0  0  0  0  0
    1.1643   -3.7305   -4.3489 Se  0  0  0  0  0  2  0  0  0  0  0  0
   -0.2678   -1.5436   -2.2529 C   0  0  0  0  0  0  0  0  0  0  0  0
    0.9029   -2.5580   -1.4589 S   0  0  0  0  0  0  0  0  0  0  0  0
   -1.6109   -0.0487   -5.4081 C   0  0  0  0  0  0  0  0  0  0  0  0
   -2.5888    0.8954   -5.5033 C   0  0  0  0  0  0  0  0  0  0  0  0
   -3.2327    1.3220   -3.9260 S   0  0  0  0  0  0  0  0  0  0  0  0
   -3.1643    1.5690   -6.6231 C   0  0  0  0  0  0  0  0  0  0  0  0
   -4.6870    2.3522   -6.3532 S   0  0  0  0  0  0  0  0  0  0  0  0
   -4.7290    2.9687   -7.9749 C   0  0  0  0  0  0  0  0  0  0  0  0
   -3.6323    2.5336   -8.6979 C   0  0  0  0  0  0  0  0  0  0  0  0
   -2.7199    1.7804   -7.9154 C   0  0  0  0  0  0  0  0  0  0  0  0
   -1.3718    1.3759   -8.4215 C   0  0  0  0  0  0  0  0  0  0  0  0
   -0.0658    1.9397   -7.2266 S   0  0  0  0  0  0  0  0  0  0  0  0
   -1.0692    2.0003   -9.7787 C   0  0  0  0  0  0  0  0  0  0  0  0
   -2.2810    1.8872  -10.6876 C   0  0  0  0  0  0  0  0  0  0  0  0
   -3.4170    2.7770  -10.1722 C   0  0  0  0  0  0  0  0  0  0  0  0
   -4.5804    2.5635  -10.9445 O   0  0  0  0  0  0  0  0  0  0  0  0
   -5.7697    3.9020   -8.2725 C   0  0  0  0  0  0  0  0  0  0  0  0
   -6.0913    4.5504   -9.4267 C   0  0  0  0  0  0  0  0  0  0  0  0
   -7.1243    5.5108   -9.2775 C   0  0  0  0  0  0  0  0  0  0  0  0
   -7.6311    6.3895  -10.2563 C   0  0  0  0  0  0  0  0  0  0  0  0
   -7.0876    6.4472  -11.5951 C   0  0  0  0  0  0  0  0  0  0  0  0
   -7.7608    6.6819  -12.7626 C   0  0  0  0  0  0  0  0  0  0  0  0
   -6.9775    6.7450  -13.9305 C   0  0  0  0  0  0  0  0  0  0  0  0
   -5.6337    6.5941  -13.7364 C   0  0  0  0  0  0  0  0  0  0  0  0
   -4.4492    6.6924  -15.0203 S   0  0  0  0  0  0  0  0  0  0  0  0
   -2.9339    6.1079  -14.1837 C   0  0  0  0  0  0  0  0  0  0  0  0
   -2.9185    4.6055  -13.9814 C   0  0  0  0  0  0  0  0  0  0  0  0
   -5.2340    6.3328  -11.9204 Se  0  0  0  0  0  2  0  0  0  0  0  0
   -8.6579    7.2382   -9.8414 C   0  0  0  0  0  0  0  0  0  0  0  0
   -9.1544    7.2751   -8.5175 C   0  0  0  0  0  0  0  0  0  0  0  0
   -8.6282    6.4175   -7.5348 C   0  0  0  0  0  0  0  0  0  0  0  0
   -9.0252    6.4470   -6.1403 C   0  0  0  0  0  0  0  0  0  0  0  0
   -9.1624    5.3653   -5.3163 C   0  0  0  0  0  0  0  0  0  0  0  0
   -9.3886    5.6410   -3.9518 C   0  0  0  0  0  0  0  0  0  0  0  0
   -9.4249    6.9666   -3.6377 C   0  0  0  0  0  0  0  0  0  0  0  0
   -9.6073    7.7376   -2.0776 S   0  0  0  0  0  0  0  0  0  0  0  0
  -10.3795    6.4257   -1.0647 C   0  0  0  0  0  0  0  0  0  0  0  0
  -11.7924    6.1102   -1.5126 C   0  0  0  0  0  0  0  0  0  0  0  0
   -9.2018    8.0535   -5.1511 Se  0  0  0  0  0  2  0  0  0  0  0  0
   -7.6301    5.5447   -7.9576 C   0  0  0  0  0  0  0  0  0  0  0  0
   -6.7814    4.4238   -6.9337 S   0  0  0  0  0  0  0  0  0  0  0  0
  -10.1783    8.2555   -8.3652 C   0  0  0  0  0  0  0  0  0  0  0  0
  -10.4265    8.9395   -9.5000 C   0  0  0  0  0  0  0  0  0  0  0  0
   -9.4499    8.4350  -10.8338 S   0  0  0  0  0  0  0  0  0  0  0  0
   12.2588   -3.7508    9.6262 H   0  0  0  0  0  0  0  0  0  0  0  0
   11.4897   -5.3570   12.8220 H   0  0  0  0  0  0  0  0  0  0  0  0
   13.5768   -6.0274   10.3951 H   0  0  0  0  0  0  0  0  0  0  0  0
   11.5975   -7.5395   10.6946 H   0  0  0  0  0  0  0  0  0  0  0  0
   11.8941   -7.7850   12.4151 H   0  0  0  0  0  0  0  0  0  0  0  0
    9.4499   -8.1475   11.1622 H   0  0  0  0  0  0  0  0  0  0  0  0
    9.6423   -7.8886   12.8928 H   0  0  0  0  0  0  0  0  0  0  0  0
    7.9126   -6.4606   11.5557 H   0  0  0  0  0  0  0  0  0  0  0  0
    8.4851   -6.0484   13.7256 H   0  0  0  0  0  0  0  0  0  0  0  0
    7.3908   -3.8019   12.1346 H   0  0  0  0  0  0  0  0  0  0  0  0
    5.9343   -4.7784   13.9821 H   0  0  0  0  0  0  0  0  0  0  0  0
    5.4820   -2.4722   13.0796 H   0  0  0  0  0  0  0  0  0  0  0  0
    6.0148   -1.8986   11.5023 H   0  0  0  0  0  0  0  0  0  0  0  0
    3.7876   -1.9702   10.9221 H   0  0  0  0  0  0  0  0  0  0  0  0
    3.3663   -2.9838   12.2971 H   0  0  0  0  0  0  0  0  0  0  0  0
    3.8403   -4.9790   11.1310 H   0  0  0  0  0  0  0  0  0  0  0  0
    2.3666   -4.7152    9.4942 H   0  0  0  0  0  0  0  0  0  0  0  0
    5.5191   -4.9611    5.6127 H   0  0  0  0  0  0  0  0  0  0  0  0
    4.8985   -3.9880    1.0597 H   0  0  0  0  0  0  0  0  0  0  0  0
    6.4054   -5.8523    0.1858 H   0  0  0  0  0  0  0  0  0  0  0  0
    6.4667   -9.1201    3.7887 H   0  0  0  0  0  0  0  0  0  0  0  0
    7.2950  -10.3507    2.8047 H   0  0  0  0  0  0  0  0  0  0  0  0
    4.4382   -9.3408    2.3243 H   0  0  0  0  0  0  0  0  0  0  0  0
    4.8587  -10.9013    3.0381 H   0  0  0  0  0  0  0  0  0  0  0  0
    5.2720  -10.5588    1.3517 H   0  0  0  0  0  0  0  0  0  0  0  0
   -1.2959   -2.7364    4.4651 H   0  0  0  0  0  0  0  0  0  0  0  0
   -2.8566   -1.4278    6.0097 H   0  0  0  0  0  0  0  0  0  0  0  0
    0.1543    0.7276    9.1314 H   0  0  0  0  0  0  0  0  0  0  0  0
   -1.1334    1.2429   10.2475 H   0  0  0  0  0  0  0  0  0  0  0  0
    0.2162   -0.5790   11.2863 H   0  0  0  0  0  0  0  0  0  0  0  0
   -0.1191   -1.6363    9.9149 H   0  0  0  0  0  0  0  0  0  0  0  0
   -1.4368   -1.1344   10.9851 H   0  0  0  0  0  0  0  0  0  0  0  0
   -0.1499   -1.6123    2.8751 H   0  0  0  0  0  0  0  0  0  0  0  0
   -1.2348   -0.7915    0.8773 H   0  0  0  0  0  0  0  0  0  0  0  0
   -3.4583   -0.9561    0.5404 H   0  0  0  0  0  0  0  0  0  0  0  0
   -5.0966    0.5448    1.8016 H   0  0  0  0  0  0  0  0  0  0  0  0
   -4.9444    4.7554   -0.6419 H   0  0  0  0  0  0  0  0  0  0  0  0
   -6.3827    5.4176    0.1705 H   0  0  0  0  0  0  0  0  0  0  0  0
   -6.9530    4.7579   -2.1678 H   0  0  0  0  0  0  0  0  0  0  0  0
   -7.8116    3.7226   -1.0093 H   0  0  0  0  0  0  0  0  0  0  0  0
   -6.3860    3.1151   -1.8596 H   0  0  0  0  0  0  0  0  0  0  0  0
    1.0862   -0.3095   -5.8497 H   0  0  0  0  0  0  0  0  0  0  0  0
    2.6830   -1.8103   -7.1823 H   0  0  0  0  0  0  0  0  0  0  0  0
    3.9214   -6.7231   -5.7165 H   0  0  0  0  0  0  0  0  0  0  0  0
    2.5074   -6.0789   -4.8469 H   0  0  0  0  0  0  0  0  0  0  0  0
    4.5612   -6.0190   -3.3975 H   0  0  0  0  0  0  0  0  0  0  0  0
    5.3807   -5.0193   -4.6071 H   0  0  0  0  0  0  0  0  0  0  0  0
    3.9817   -4.3845   -3.7298 H   0  0  0  0  0  0  0  0  0  0  0  0
   -1.1396   -0.5054   -6.2569 H   0  0  0  0  0  0  0  0  0  0  0  0
   -1.2916    0.2846   -8.4666 H   0  0  0  0  0  0  0  0  0  0  0  0
    0.9532    1.5949   -8.0138 H   0  0  0  0  0  0  0  0  0  0  0  0
   -0.2070    1.5025  -10.2274 H   0  0  0  0  0  0  0  0  0  0  0  0
   -0.8214    3.0554   -9.6407 H   0  0  0  0  0  0  0  0  0  0  0  0
   -2.6273    0.8495  -10.7149 H   0  0  0  0  0  0  0  0  0  0  0  0
   -2.0308    2.1853  -11.7062 H   0  0  0  0  0  0  0  0  0  0  0  0
   -3.1687    3.8352  -10.3381 H   0  0  0  0  0  0  0  0  0  0  0  0
   -4.9060    1.6707  -10.7831 H   0  0  0  0  0  0  0  0  0  0  0  0
   -5.6376    4.3037  -10.3679 H   0  0  0  0  0  0  0  0  0  0  0  0
   -8.8340    6.7600  -12.7998 H   0  0  0  0  0  0  0  0  0  0  0  0
   -7.4005    6.8975  -14.9083 H   0  0  0  0  0  0  0  0  0  0  0  0
   -2.1213    6.4261  -14.8365 H   0  0  0  0  0  0  0  0  0  0  0  0
   -2.8610    6.6462  -13.2333 H   0  0  0  0  0  0  0  0  0  0  0  0
   -3.7295    4.2908  -13.3240 H   0  0  0  0  0  0  0  0  0  0  0  0
   -3.0268    4.0945  -14.9352 H   0  0  0  0  0  0  0  0  0  0  0  0
   -1.9735    4.3095  -13.5297 H   0  0  0  0  0  0  0  0  0  0  0  0
   -9.1279    4.3533   -5.6828 H   0  0  0  0  0  0  0  0  0  0  0  0
   -9.5047    4.8518   -3.2296 H   0  0  0  0  0  0  0  0  0  0  0  0
   -9.7303    5.5519   -1.0950 H   0  0  0  0  0  0  0  0  0  0  0  0
  -10.3689    6.8379   -0.0559 H   0  0  0  0  0  0  0  0  0  0  0  0
  -11.8009    5.7461   -2.5379 H   0  0  0  0  0  0  0  0  0  0  0  0
  -12.2210    5.3454   -0.8678 H   0  0  0  0  0  0  0  0  0  0  0  0
  -12.4137    7.0010   -1.4581 H   0  0  0  0  0  0  0  0  0  0  0  0
  -10.7097    8.4227   -7.4436 H   0  0  0  0  0  0  0  0  0  0  0  0
  -11.1438    9.7209   -9.6577 H   0  0  0  0  0  0  0  0  0  0  0  0
  1  2  1  0  0  0  0
  2  3  1  0  0  0  0
  3  4  2  0  0  0  0
  4  5  1  0  0  0  0
  5  6  1  0  0  0  0
  6  7  1  0  0  0  0
  6  8  1  0  0  0  0
  8  9  1  0  0  0  0
  9 10  1  0  0  0  0
 10 11  1  0  0  0  0
  3 12  1  0  0  0  0
 12 13  1  0  0  0  0
 13 14  1  0  0  0  0
 14 15  2  0  0  0  0
 15 16  1  0  0  0  0
 16 17  1  0  0  0  0
 17 18  1  0  0  0  0
 17 19  1  0  0  0  0
 19 20  1  0  0  0  0
 20 21  1  0  0  0  0
 21 22  1  0  0  0  0
 14 23  1  0  0  0  0
 23 24  2  0  0  0  0
 24 25  1  0  0  0  0
 25 26  2  0  0  0  0
 26 27  1  0  0  0  0
 27 28  2  0  0  0  0
 28 29  1  0  0  0  0
 29 30  2  0  0  0  0
 30 31  1  0  0  0  0
 31 32  1  0  0  0  0
 32 33  1  0  0  0  0
 30 34  1  0  0  0  0
 26 35  1  0  0  0  0
 35 36  2  0  0  0  0
 36 37  1  0  0  0  0
 37 38  1  0  0  0  0
 38 39  2  0  0  0  0
 39 40  1  0  0  0  0
 40 41  2  0  0  0  0
 41 42  1  0  0  0  0
 42 43  1  0  0  0  0
 43 44  1  0  0  0  0
 41 45  1  0  0  0  0
 37 46  2  0  0  0  0
 46 47  1  0  0  0  0
 36 48  1  0  0  0  0
 48 49  2  0  0  0  0
 49 50  1  0  0  0  0
 49 51  1  0  0  0  0
 51 52  2  0  0  0  0
 52 53  1  0  0  0  0
 53 54  2  0  0  0  0
 54 55  1  0  0  0  0
 55 56  2  0  0  0  0
 56 57  1  0  0  0  0
 57 58  2  0  0  0  0
 58 59  1  0  0  0  0
 59 60  1  0  0  0  0
 60 61  1  0  0  0  0
 58 62  1  0  0  0  0
 54 63  1  0  0  0  0
 63 64  2  0  0  0  0
 64 65  1  0  0  0  0
 65 66  1  0  0  0  0
 66 67  2  0  0  0  0
 67 68  1  0  0  0  0
 68 69  2  0  0  0  0
 69 70  1  0  0  0  0
 70 71  1  0  0  0  0
 71 72  1  0  0  0  0
 69 73  1  0  0  0  0
 65 74  2  0  0  0  0
 74 75  1  0  0  0  0
 64 76  1  0  0  0  0
 76 77  2  0  0  0  0
 77 78  1  0  0  0  0
 77 79  1  0  0  0  0
 79 80  1  0  0  0  0
 80 81  1  0  0  0  0
 81 82  2  0  0  0  0
 82 83  1  0  0  0  0
 83 84  1  0  0  0  0
 84 85  1  0  0  0  0
 84 86  1  0  0  0  0
 86 87  1  0  0  0  0
 87 88  1  0  0  0  0
 88 89  1  0  0  0  0
 81 90  1  0  0  0  0
 90 91  2  0  0  0  0
 91 92  1  0  0  0  0
 92 93  2  0  0  0  0
 93 94  1  0  0  0  0
 94 95  2  0  0  0  0
 95 96  1  0  0  0  0
 96 97  2  0  0  0  0
 97 98  1  0  0  0  0
 98 99  1  0  0  0  0
 99100  1  0  0  0  0
 97101  1  0  0  0  0
 93102  1  0  0  0  0
102103  2  0  0  0  0
103104  1  0  0  0  0
104105  1  0  0  0  0
105106  2  0  0  0  0
106107  1  0  0  0  0
107108  2  0  0  0  0
108109  1  0  0  0  0
109110  1  0  0  0  0
110111  1  0  0  0  0
108112  1  0  0  0  0
104113  2  0  0  0  0
113114  1  0  0  0  0
103115  1  0  0  0  0
115116  2  0  0  0  0
116117  1  0  0  0  0
  5  1  2  0  0  0  0
 16 12  2  0  0  0  0
 47 23  1  0  0  0  0
 75 51  1  0  0  0  0
 83 79  2  0  0  0  0
114 90  1  0  0  0  0
 10  4  1  0  0  0  0
 21 15  1  0  0  0  0
 46 25  1  0  0  0  0
 74 53  1  0  0  0  0
 88 82  1  0  0  0  0
113 92  1  0  0  0  0
 34 27  1  0  0  0  0
 50 35  1  0  0  0  0
 62 55  1  0  0  0  0
 78 63  1  0  0  0  0
101 94  1  0  0  0  0
117102  1  0  0  0  0
 45 38  1  0  0  0  0
 73 66  1  0  0  0  0
112105  1  0  0  0  0
  1118  1  0  0  0  0
  6119  1  0  0  0  0
  7120  1  0  0  0  0
  8121  1  0  0  0  0
  8122  1  0  0  0  0
  9123  1  0  0  0  0
  9124  1  0  0  0  0
 10125  1  0  0  0  0
 11126  1  0  0  0  0
 17127  1  0  0  0  0
 18128  1  0  0  0  0
 19129  1  0  0  0  0
 19130  1  0  0  0  0
 20131  1  0  0  0  0
 20132  1  0  0  0  0
 21133  1  0  0  0  0
 22134  1  0  0  0  0
 24135  1  0  0  0  0
 28136  1  0  0  0  0
 29137  1  0  0  0  0
 32138  1  0  0  0  0
 32139  1  0  0  0  0
 33140  1  0  0  0  0
 33141  1  0  0  0  0
 33142  1  0  0  0  0
 39143  1  0  0  0  0
 40144  1  0  0  0  0
 43145  1  0  0  0  0
 43146  1  0  0  0  0
 44147  1  0  0  0  0
 44148  1  0  0  0  0
 44149  1  0  0  0  0
 48150  1  0  0  0  0
 52151  1  0  0  0  0
 56152  1  0  0  0  0
 57153  1  0  0  0  0
 60154  1  0  0  0  0
 60155  1  0  0  0  0
 61156  1  0  0  0  0
 61157  1  0  0  0  0
 61158  1  0  0  0  0
 67159  1  0  0  0  0
 68160  1  0  0  0  0
 71161  1  0  0  0  0
 71162  1  0  0  0  0
 72163  1  0  0  0  0
 72164  1  0  0  0  0
 72165  1  0  0  0  0
 76166  1  0  0  0  0
 84167  1  0  0  0  0
 85168  1  0  0  0  0
 86169  1  0  0  0  0
 86170  1  0  0  0  0
 87171  1  0  0  0  0
 87172  1  0  0  0  0
 88173  1  0  0  0  0
 89174  1  0  0  0  0
 91175  1  0  0  0  0
 95176  1  0  0  0  0
 96177  1  0  0  0  0
 99178  1  0  0  0  0
 99179  1  0  0  0  0
100180  1  0  0  0  0
100181  1  0  0  0  0
100182  1  0  0  0  0
106183  1  0  0  0  0
107184  1  0  0  0  0
110185  1  0  0  0  0
110186  1  0  0  0  0
111187  1  0  0  0  0
111188  1  0  0  0  0
111189  1  0  0  0  0
115190  1  0  0  0  0
116191  1  0  0  0  0
M  END
