111

C          5.21860        0.18400        7.55020
C          4.92700        0.91210        8.62260
C          4.51730        2.28100        8.37650
C          4.39330        2.63070        7.08870
S          5.11930        1.26110        6.12210
O          4.40550        0.73950        4.98460
O          6.45780        1.71120        5.82680
C          4.05830        3.86130        6.45480
C          3.46800        3.90920        5.24050
C          2.90530        2.76140        4.62150
C          2.74770        2.42370        3.32520
C          2.11560        1.16980        3.06360
C          1.65300        0.48840        4.13880
S          1.94070        1.54650        5.57670
O          0.70290        2.22500        5.89050
O          2.53900        0.91350        6.72660
C          0.98150       -0.73970        4.24190
C          0.40350       -1.15290        5.40390
C         -0.29250       -2.36740        5.52550
C         -1.08820       -2.82460        6.51840
C         -1.56470       -4.14830        6.33820
C         -1.32200       -4.81320        5.17420
S         -0.31180       -3.58710        4.16880
O          1.00820       -4.12620        4.02690
O         -0.88550       -2.82920        3.08890
C         -1.52020       -6.23340        5.16640
C         -1.93360       -7.18390        4.28080
C         -2.34180       -6.97490        2.95620
C         -2.85520       -7.75890        1.97350
C         -3.08160       -7.11190        0.72020
C         -2.74140       -5.79790        0.64910
S         -2.10150       -5.34830        2.27810
O         -2.94660       -4.40220        2.95310
O         -0.67970       -5.15600        2.20750
C         -2.70390       -4.84100       -0.37690
C         -2.19670       -3.60510       -0.11480
C         -2.00990       -2.56440       -1.04970
C         -1.44820       -1.34300       -0.76660
C         -1.33770       -0.48540       -1.87900
C         -0.81980        0.83320       -1.91260
C         -0.45100        1.54970       -0.71590
C          0.53400        2.49570       -0.57960
C          0.58490        3.16230        0.65350
C         -0.37930        2.79740        1.55850
S         -0.54500        3.53950        3.12910
C         -2.11750        2.83640        3.73430
C         -1.95330        1.46140        4.34880
Se        -1.45780        1.42320        0.88010
C         -0.73840        1.42040       -3.17430
C         -1.18680        0.78740       -4.36260
C         -1.78380       -0.49550       -4.31360
C         -2.33810       -1.10670       -5.49670
C         -3.00950       -0.48900       -6.51860
C         -3.40160       -1.31310       -7.58840
C         -3.04940       -2.62810       -7.46670
S         -3.49050       -3.85590       -8.62870
C         -2.33210       -5.20070       -8.19460
C         -0.91130       -4.88950       -8.61890
Se        -2.16770       -2.95400       -5.83080
C         -1.80780       -1.10610       -3.06560
S         -2.43540       -2.70000       -2.74360
C         -0.95930        1.58190       -5.50500
C         -0.41540        2.80740       -5.22640
S         -0.12630        3.02040       -3.50940
C         -0.12100        3.79340       -6.18320
C          0.40250        5.03300       -6.10040
C          0.51680        5.74550       -7.34120
C          0.08380        5.11080       -8.44700
S         -0.51760        3.48360       -7.92720
O          0.29450        2.42150       -8.45720
O         -1.94110        3.35840       -8.09730
C          0.05580        5.51940       -9.81180
C         -0.41490        4.73450      -10.78200
H          5.53070       -0.83640        7.48170
H          4.95140        0.54020        9.63510
H          4.24950        2.92140        9.20170
H          4.35260        4.77770        6.95090
H          3.36730        4.85600        4.72410
H          3.14770        3.00900        2.51240
H          2.03760        0.79780        2.05390
H          0.88810       -1.35670        3.35760
H          0.47430       -0.51680        6.27930
H         -1.32950       -2.26190        7.40760
H         -2.11990       -4.61680        7.13960
H         -1.35790       -6.63660        6.16460
H         -1.99840       -8.19970        4.65530
H         -3.07640       -8.80780        2.09560
H         -3.47980       -7.66670       -0.11500
H         -3.04440       -5.10510       -1.37170
H         -1.87210       -3.37680        0.89340
H         -1.09200       -1.12220        0.22580
H          1.25000        2.69530       -1.35810
H          1.30470        3.93120        0.87190
H         -2.45530        3.55370        4.48180
H         -2.81510        2.83650        2.89190
H         -1.20680        1.50570        5.13790
H         -1.63630        0.72570        3.60820
H         -2.90190        1.13400        4.76880
H         -3.25730        0.55870       -6.49660
H         -3.93190       -0.93740       -8.44590
H         -2.71860       -6.07830       -8.71160
H         -2.40870       -5.35490       -7.11330
H         -0.86520       -4.71530       -9.69130
H         -0.54460       -4.00020       -8.10660
H         -0.25970       -5.72410       -8.36930
H         -1.15320        1.27440       -6.51570
H          0.72210        5.48320       -5.17340
H          0.93280        6.74120       -7.35440
H          0.43960        6.50970      -10.02830
H         -0.79380        3.75190      -10.55920
H         -0.43080        5.05220      -11.80990
