272

C         -7.19440       -8.80340        1.44060
C         -5.86740       -9.00900        1.33040
C         -5.19150       -8.97730        2.58600
C         -3.82020       -9.15560        2.84700
C         -2.85290       -9.45300        1.81100
C         -2.98890      -10.28000        0.73160
C         -1.89100      -10.33750       -0.15160
C         -0.83570       -9.53980        0.18630
S          0.68180       -9.50020       -0.68360
C          1.39100       -7.90780       -0.12810
C          0.66800       -6.71790       -0.72110
Se        -1.15610       -8.62110        1.80030
C         -3.42840       -8.97720        4.17030
C         -4.30050       -8.63540        5.22940
C         -5.68500       -8.53530        4.97800
C         -6.62560       -8.27760        6.04330
C         -6.57390       -8.75480        7.32510
C         -7.60640       -8.33680        8.18550
C         -8.52000       -7.49070        7.62360
S         -9.83550       -6.76120        8.51470
C        -10.91770       -6.17840        7.16330
C        -11.63910       -7.31800        6.47340
Se        -8.11500       -7.14450        5.81440
C         -6.07940       -8.69590        3.64960
S         -7.71910       -8.55750        3.07120
C         -3.59110       -8.37100        6.43460
C         -2.24790       -8.56380        6.32460
S         -1.78850       -9.10510        4.72130
C         -1.15470       -8.28510        7.20360
C         -1.02750       -7.38280        8.21800
C          0.32120       -7.15450        8.60840
C          0.82380       -6.15630        9.47900
C         -0.04630       -5.42710       10.36400
C         -1.19410       -5.88960       10.95630
C         -1.89100       -4.97580       11.76520
C         -1.32340       -3.73460       11.85510
S         -1.97230       -2.45310       12.85150
C         -0.91050       -1.04020       12.38880
C         -1.28800       -0.45380       11.04360
Se         0.27650       -3.63750       10.86450
C          2.18510       -5.87780        9.35160
C          3.06570       -6.61990        8.53100
C          2.59530       -7.72650        7.79440
C          3.46260       -8.46210        6.90420
C          4.77210       -8.80730        7.10420
C          5.43170       -9.41010        6.01670
C          4.67280       -9.54580        4.88730
S          5.25120      -10.21460        3.38140
C          3.69370      -10.23120        2.41760
C          3.92110      -10.82470        1.04400
Se         2.91580       -8.91740        5.15320
C          1.22070       -7.92240        7.83280
S          0.38100       -9.01040        6.77340
C          4.31310       -5.97790        8.36690
C          4.39970       -4.77060        8.99880
S          2.98490       -4.46030        9.98820
C          5.30760       -3.73000        8.64190
C          6.23960       -3.81150        7.64770
C          6.62610       -2.55590        7.12520
C          7.32220       -2.34540        5.91930
C          7.97630       -3.43090        5.21730
C          7.91080       -3.72930        3.88540
C          8.64620       -4.85470        3.46560
C          9.34350       -5.49310        4.45010
S         10.41320       -6.84460        4.15820
C         10.40780       -7.65950        5.79320
C          9.07760       -8.32090        6.08890
Se         9.11580       -4.63770        6.11590
C          7.20220       -1.07050        5.37830
C          6.55140        0.00690        6.02610
C          6.01310       -0.16870        7.32370
C          5.42950        0.93010        8.04820
C          5.81320        2.24590        8.00160
C          5.07010        3.13940        8.79200
C          4.04510        2.57150        9.49760
S          2.93340        3.49060       10.48500
C          1.96190        2.16920       11.29050
C          2.71400        1.50270       12.42440
Se         3.96010        0.71120        9.20960
C          5.99400       -1.48190        7.79180
S          5.02310       -2.06570        9.12080
C          6.32340        1.09400        5.13700
C          6.75310        0.85400        3.86800
S          7.63490       -0.65630        3.74500
C          6.32990        1.43480        2.62650
C          5.96680        0.65740        1.56910
C          5.37730        1.36970        0.49970
C          4.75370        0.81990       -0.63470
C          4.69350       -0.64050       -0.78330
C          5.83690       -1.42680       -0.65260
C          5.75580       -2.80470       -0.60390
C          4.52380       -3.44580       -0.67870
S          4.30710       -5.18780       -0.50720
C          5.73270       -5.65650        0.55210
C          5.39700       -6.93350        1.29810
C          3.39750       -2.65300       -0.89720
F          2.19250       -3.24700       -1.01780
C          3.46520       -1.27800       -0.94810
C          4.12730        1.71700       -1.48350
C          4.13140        3.11510       -1.24780
C          4.72600        3.65930       -0.09550
C          4.64800        5.10180        0.16620
C          3.43000        5.77410        0.08680
C          3.35180        7.14090        0.26650
C          4.49180        7.88590        0.54660
S          4.52760        9.63770        0.74410
C          2.80650       10.06740        1.18220
C          2.40810        9.51690        2.53730
C          5.70230        7.19770        0.64460
C          5.79370        5.83480        0.46500
F          6.82780        7.88810        0.91240
C          5.33680        2.76060        0.76380
S          6.01350        3.12990        2.33710
C          3.45110        3.81820       -2.26880
C          2.89580        3.01160       -3.21910
S          3.25130        1.32120       -2.94170
C          2.04760        3.47770       -4.26810
C          1.42150        4.68960       -4.25300
C          0.62550        4.94440       -5.39190
C         -0.11730        6.11140       -5.67230
C         -0.01350        7.29220       -4.84390
C         -0.98360        8.21070       -4.54980
C         -0.58960        9.30450       -3.75410
C          0.72750        9.31730       -3.39450
S          1.43720       10.48120       -2.29840
C          3.21930       10.28540       -2.65480
C          3.59920       10.86270       -4.00180
Se         1.63350        7.81470       -4.07340
C         -0.93190        6.04670       -6.80040
C         -0.97700        4.92530       -7.66590
C         -0.14420        3.80680       -7.44020
C         -0.08920        2.70350       -8.36950
C         -0.16170        2.75880       -9.73570
C         -0.09750        1.52600      -10.41040
C          0.01630        0.42930       -9.60280
S          0.01740       -1.21290      -10.20030
C          0.64730       -2.13260       -8.75300
C          2.13070       -1.91530       -8.53530
Se         0.06910        0.91790       -7.78300
C          0.61230        3.83960       -6.27270
S          1.65800        2.56170       -5.70420
C         -1.93990        5.09100       -8.69190
C         -2.58080        6.29270       -8.65770
S         -2.01940        7.29910       -7.33890
C         -3.62370        6.75390       -9.51160
C         -4.28750        7.94170       -9.44660
C         -5.30180        8.08310      -10.42630
C         -6.19300        9.16100      -10.60160
C         -6.22280       10.27010       -9.67560
C         -6.09130       10.21760       -8.31480
C         -6.13980       11.45150       -7.63920
C         -6.29870       12.54480       -8.44250
S         -6.28800       14.18810       -7.84570
C         -7.00990       15.09780       -9.25550
C         -8.49810       14.85170       -9.39620
Se        -6.41950       12.05160      -10.25910
C         -7.04490        9.07740      -11.70000
C         -7.09280        7.96620      -12.57070
C         -6.24990        6.85910      -12.35620
C         -6.30790        5.65940      -13.16580
C         -5.25820        4.89940      -13.59800
C         -5.59030        3.71560      -14.28610
C         -6.92700        3.47400      -14.41330
S         -7.59190        2.12850      -15.31050
C         -9.25720        1.99080      -14.57040
C         -9.21090        1.45900      -13.15280
Se        -7.94870        4.85960      -13.64580
C         -5.35790        6.96460      -11.29160
S         -4.20370        5.74410      -10.82060
C         -8.04510        8.16260      -13.61490
C         -8.69720        9.33820      -13.52210
S         -8.20700       10.29110      -12.16420
H         -7.92750       -8.77520        0.65870
H         -5.36480       -9.15330        0.39190
H         -3.86740      -10.88560        0.58190
H         -1.88170      -10.96110       -1.02890
H          1.35200       -7.90530        0.96630
H          2.43000       -7.93760       -0.45400
H          0.66270       -6.78080       -1.80640
H         -0.36240       -6.67740       -0.36730
H          1.17290       -5.79940       -0.43220
H         -5.82410       -9.46100        7.64090
H         -7.68210       -8.66340        9.20840
H        -11.61860       -5.49700        7.64460
H        -10.28860       -5.61480        6.46690
H        -10.92560       -7.99920        6.00930
H        -12.29260       -6.92480        5.69770
H        -12.23790       -7.87660        7.18890
H         -4.06030       -8.01510        7.33350
H         -1.85760       -6.81070        8.59070
H         -1.52010       -6.91020       10.84660
H         -2.79980       -5.23000       12.28310
H         -1.05060       -0.31540       13.19040
H          0.12440       -1.39750       12.39970
H         -2.32870       -0.13850       11.04600
H         -1.14960       -1.19060       10.25190
H         -0.65970        0.40720       10.82560
H          5.25680       -8.66960        8.05700
H          6.45290       -9.74480        6.06760
H          3.34930       -9.19440        2.35350
H          2.96880      -10.81790        2.98880
H          4.67580      -10.25910        0.50240
H          2.99310      -10.80410        0.47630
H          4.25840      -11.85500        1.12620
H          5.06910       -6.34690        7.69960
H          6.54480       -4.74520        7.20970
H          7.28760       -3.17580        3.20410
H          8.65470       -5.20080        2.44640
H         11.21410       -8.38990        5.74310
H         10.65860       -6.89680        6.53710
H          8.27890       -7.57920        6.11610
H          9.11930       -8.82040        7.05470
H          8.84230       -9.05350        5.31980
H          6.66880        2.57030        7.43320
H          5.28820        4.19220        8.84390
H          1.06340        2.66940       11.65160
H          1.69000        1.45180       10.50930
H          2.99940        2.23670       13.17400
H          3.61580        1.01500       12.05320
H          2.08410        0.74830       12.89120
H          5.74150        1.96070        5.39430
H          6.04920       -0.41340        1.59120
H          6.80490       -0.95250       -0.59130
H          6.65940       -3.38370       -0.49590
H          5.90410       -4.83410        1.24580
H          6.60450       -5.79640       -0.08760
H          5.19510       -7.74080        0.59800
H          6.23170       -7.22500        1.93230
H          4.51900       -6.78670        1.92360
H          2.55450       -0.71330       -1.06960
H          2.52600        5.21550       -0.10470
H          2.39300        7.62630        0.17610
H          2.81420       11.15740        1.19210
H          2.14220        9.73810        0.38430
H          1.39280        9.82730        2.77580
H          2.45010        8.42950        2.54550
H          3.07770        9.89180        3.30800
H          6.75830        5.35780        0.53830
H          3.39580        4.89030       -2.30740
H          1.47340        5.34100       -3.39900
H         -2.00360        8.09210       -4.87260
H         -1.27360       10.07720       -3.44840
H          3.44680        9.21570       -2.59080
H          3.72640       10.80440       -1.84210
H          3.34200       11.91840       -4.04880
H          4.67020       10.75440       -4.15770
H          3.07910       10.34250       -4.80640
H         -0.19960        3.69380      -10.26910
H         -0.12720        1.44590      -11.48320
H          0.42630       -3.17680       -8.97170
H          0.05860       -1.81440       -7.88660
H          2.34000       -0.86460       -8.33290
H          2.46770       -2.50190       -7.68350
H          2.69190       -2.21780       -9.41630
H         -2.18780        4.33060       -9.41020
H         -4.03460        8.70220       -8.73010
H         -6.02000        9.28340       -7.78330
H         -6.06640       11.53390       -6.56860
H         -6.46080       14.79190      -10.15170
H         -6.79790       16.14570       -9.04570
H         -8.89130       15.43480      -10.22610
H         -8.69630       13.79770       -9.59190
H         -9.01810       15.13970       -8.48560
H         -4.23440        5.19670      -13.44700
H         -4.84860        3.04100      -14.67730
H         -9.71540        2.98400      -14.61740
H         -9.79880        1.31570      -15.23200
H         -8.65160        2.13520      -12.50690
H        -10.22120        1.36460      -12.76020
H         -8.73150        0.48320      -13.12940
H         -8.21000        7.46270      -14.41640
H         -9.45180        9.72930      -14.17580
