
  xtb     03072217003D
 energy: -264.056663678647 gnorm: 0.000377699556 xtb: 6.4.1 (unknown)
138155  0     0  0            999 V2000
    5.5978    8.8097   10.9484 C   0  0  0  0  0  0  0  0  0  0  0  0
    5.9669   10.4913   10.9437 S   0  0  0  0  0  0  0  0  0  0  0  0
    5.4252   10.6677    9.3094 C   0  0  0  0  0  0  0  0  0  0  0  0
    4.9922    9.4896    8.8207 C   0  0  0  0  0  0  0  0  0  0  0  0
    5.0827    8.4092    9.7485 C   0  0  0  0  0  0  0  0  0  0  0  0
    4.6316    7.1392    9.2478 C   0  0  0  0  0  0  0  0  0  0  0  0
    4.1812    7.1636    7.9795 C   0  0  0  0  0  0  0  0  0  0  0  0
    4.3025    8.8440    7.3002 S   0  0  0  0  0  6  0  0  0  0  0  0
    3.0023    9.3969    7.0452 O   0  0  0  0  0  0  0  0  0  0  0  0
    5.2591    8.8872    6.2293 O   0  0  0  0  0  0  0  0  0  0  0  0
    3.7030    6.1447    7.1288 C   0  0  0  0  0  0  0  0  0  0  0  0
    3.2750    6.3305    5.8446 C   0  0  0  0  0  0  0  0  0  0  0  0
    2.8964    5.1370    5.1899 C   0  0  0  0  0  0  0  0  0  0  0  0
    2.3938    4.9996    3.8732 C   0  0  0  0  0  0  0  0  0  0  0  0
    2.3864    6.1008    2.9456 C   0  0  0  0  0  0  0  0  0  0  0  0
    3.2814    7.1383    2.8634 C   0  0  0  0  0  0  0  0  0  0  0  0
    3.0452    8.0857    1.8544 C   0  0  0  0  0  0  0  0  0  0  0  0
    1.9441    7.8470    1.0774 C   0  0  0  0  0  0  0  0  0  0  0  0
    1.4846    8.8588   -0.2704 S   0  0  0  0  0  0  0  0  0  0  0  0
    0.0114    7.9948   -0.9216 C   0  0  0  0  0  0  0  0  0  0  0  0
   -1.2386    8.2957   -0.1189 C   0  0  0  0  0  0  0  0  0  0  0  0
    1.0666    6.2697    1.6084 Se  0  0  0  0  0  2  0  0  0  0  0  0
    1.9259    3.7306    3.5407 C   0  0  0  0  0  0  0  0  0  0  0  0
    2.0150    2.6096    4.4001 C   0  0  0  0  0  0  0  0  0  0  0  0
    2.5863    2.7272    5.6873 C   0  0  0  0  0  0  0  0  0  0  0  0
    2.7092    1.6100    6.5977 C   0  0  0  0  0  0  0  0  0  0  0  0
    3.7063    1.4052    7.5142 C   0  0  0  0  0  0  0  0  0  0  0  0
    3.5876    0.2667    8.3312 C   0  0  0  0  0  0  0  0  0  0  0  0
    2.4685   -0.4876    8.1175 C   0  0  0  0  0  0  0  0  0  0  0  0
    2.0765   -1.9430    8.9967 S   0  0  0  0  0  0  0  0  0  0  0  0
    0.7340   -2.6209    7.9479 C   0  0  0  0  0  0  0  0  0  0  0  0
    0.3163   -3.9829    8.4617 C   0  0  0  0  0  0  0  0  0  0  0  0
    1.3974    0.2570    6.7654 Se  0  0  0  0  0  2  0  0  0  0  0  0
    3.0058    4.0087    6.0431 C   0  0  0  0  0  0  0  0  0  0  0  0
    3.6441    4.4589    7.6038 S   0  0  0  0  0  0  0  0  0  0  0  0
    1.4979    1.4444    3.7903 C   0  0  0  0  0  0  0  0  0  0  0  0
    0.9918    1.6484    2.5393 C   0  0  0  0  0  0  0  0  0  0  0  0
    1.1866    3.3046    2.0203 S   0  0  0  0  0  0  0  0  0  0  0  0
    0.3459    0.6770    1.7221 C   0  0  0  0  0  0  0  0  0  0  0  0
   -0.0072   -0.5888    2.0948 C   0  0  0  0  0  0  0  0  0  0  0  0
   -0.6625   -1.3199    1.0787 C   0  0  0  0  0  0  0  0  0  0  0  0
   -1.1349   -2.6505    1.1389 C   0  0  0  0  0  0  0  0  0  0  0  0
   -1.1454   -3.3744    2.3877 C   0  0  0  0  0  0  0  0  0  0  0  0
   -1.4223   -2.8594    3.6261 C   0  0  0  0  0  0  0  0  0  0  0  0
   -1.3370   -3.7572    4.7042 C   0  0  0  0  0  0  0  0  0  0  0  0
   -0.9878   -5.0353    4.3665 C   0  0  0  0  0  0  0  0  0  0  0  0
   -0.8732   -6.3301    5.5366 S   0  0  0  0  0  0  0  0  0  0  0  0
   -0.1839   -7.6943    4.5394 C   0  0  0  0  0  0  0  0  0  0  0  0
    1.3015   -7.5309    4.2897 C   0  0  0  0  0  0  0  0  0  0  0  0
   -0.7541   -5.2133    2.5029 Se  0  0  0  0  0  2  0  0  0  0  0  0
   -1.6068   -3.1827   -0.0554 C   0  0  0  0  0  0  0  0  0  0  0  0
   -1.7070   -2.4376   -1.2557 C   0  0  0  0  0  0  0  0  0  0  0  0
   -1.2756   -1.0933   -1.3048 C   0  0  0  0  0  0  0  0  0  0  0  0
   -1.3319   -0.3198   -2.5222 C   0  0  0  0  0  0  0  0  0  0  0  0
   -1.0731   -0.7391   -3.8000 C   0  0  0  0  0  0  0  0  0  0  0  0
   -1.2247    0.2252   -4.8121 C   0  0  0  0  0  0  0  0  0  0  0  0
   -1.6257    1.4596   -4.3785 C   0  0  0  0  0  0  0  0  0  0  0  0
   -1.9461    2.7983   -5.4534 S   0  0  0  0  0  0  0  0  0  0  0  0
   -2.2460    4.1697   -4.2836 C   0  0  0  0  0  0  0  0  0  0  0  0
   -0.9664    4.7158   -3.6823 C   0  0  0  0  0  0  0  0  0  0  0  0
   -1.8350    1.4953   -2.5072 Se  0  0  0  0  0  2  0  0  0  0  0  0
   -0.7684   -0.5738   -0.1185 C   0  0  0  0  0  0  0  0  0  0  0  0
   -0.1120    1.0289    0.0729 S   0  0  0  0  0  0  0  0  0  0  0  0
   -2.2996   -3.1890   -2.2941 C   0  0  0  0  0  0  0  0  0  0  0  0
   -2.5889   -4.4806   -1.9499 C   0  0  0  0  0  0  0  0  0  0  0  0
   -2.1974   -4.8085   -0.2715 S   0  0  0  0  0  0  0  0  0  0  0  0
   -3.1212   -5.5029   -2.7831 C   0  0  0  0  0  0  0  0  0  0  0  0
   -3.8415   -6.9411   -2.1042 S   0  0  0  0  0  0  0  0  0  0  0  0
   -4.1871   -7.5939   -3.6679 C   0  0  0  0  0  0  0  0  0  0  0  0
   -3.7713   -6.7579   -4.6393 C   0  0  0  0  0  0  0  0  0  0  0  0
   -3.1541   -5.5646   -4.1697 C   0  0  0  0  0  0  0  0  0  0  0  0
   -2.6647   -4.7102   -5.2022 C   0  0  0  0  0  0  0  0  0  0  0  0
   -2.8650   -5.1396   -6.4703 C   0  0  0  0  0  0  0  0  0  0  0  0
   -3.7306   -6.7374   -6.4275 S   0  0  0  0  0  6  0  0  0  0  0  0
   -5.0462   -6.6199   -6.9879 O   0  0  0  0  0  0  0  0  0  0  0  0
   -2.9060   -7.8053   -6.9287 O   0  0  0  0  0  0  0  0  0  0  0  0
   -2.5192   -4.4800   -7.6673 C   0  0  0  0  0  0  0  0  0  0  0  0
   -1.8472   -2.8553   -7.6400 S   0  0  0  0  0  0  0  0  0  0  0  0
   -1.7216   -2.8044   -9.3636 C   0  0  0  0  0  0  0  0  0  0  0  0
   -2.1627   -3.9521   -9.9151 C   0  0  0  0  0  0  0  0  0  0  0  0
   -2.6233   -4.9183   -8.9780 C   0  0  0  0  0  0  0  0  0  0  0  0
   -3.0667   -6.1534   -9.5437 C   0  0  0  0  0  0  0  0  0  0  0  0
   -2.9587   -6.2352  -10.8866 C   0  0  0  0  0  0  0  0  0  0  0  0
   -2.3221   -4.6706  -11.5535 S   0  0  0  0  0  6  0  0  0  0  0  0
   -1.0333   -4.8564  -12.1541 O   0  0  0  0  0  0  0  0  0  0  0  0
   -3.3255   -3.9920  -12.3203 O   0  0  0  0  0  0  0  0  0  0  0  0
   -3.2333   -7.2911  -11.7824 C   0  0  0  0  0  0  0  0  0  0  0  0
   -3.2201   -6.9581  -13.4946 S   0  0  0  0  0  0  0  0  0  0  0  0
   -3.5869   -8.6043  -13.8714 C   0  0  0  0  0  0  0  0  0  0  0  0
   -3.7007   -9.3521  -12.7505 C   0  0  0  0  0  0  0  0  0  0  0  0
   -3.5008   -8.6326  -11.5478 C   0  0  0  0  0  0  0  0  0  0  0  0
   -3.5803   -9.4374  -10.3483 C   0  0  0  0  0  0  0  0  0  0  0  0
   -3.8543  -10.7229  -10.5606 C   0  0  0  0  0  0  0  0  0  0  0  0
   -4.0344  -11.0632  -12.3192 S   0  0  0  0  0  6  0  0  0  0  0  0
   -5.3848  -11.4219  -12.6466 O   0  0  0  0  0  0  0  0  0  0  0  0
   -2.9857  -11.9257  -12.7839 O   0  0  0  0  0  0  0  0  0  0  0  0
    5.7815    8.2259   11.8279 H   0  0  0  0  0  0  0  0  0  0  0  0
    5.4674   11.6254    8.8320 H   0  0  0  0  0  0  0  0  0  0  0  0
    4.6645    6.2482    9.8557 H   0  0  0  0  0  0  0  0  0  0  0  0
    3.2003    7.3137    5.4197 H   0  0  0  0  0  0  0  0  0  0  0  0
    4.1518    7.2033    3.4938 H   0  0  0  0  0  0  0  0  0  0  0  0
    3.6875    8.9341    1.6943 H   0  0  0  0  0  0  0  0  0  0  0  0
   -0.0838    8.3489   -1.9479 H   0  0  0  0  0  0  0  0  0  0  0  0
    0.2433    6.9251   -0.9269 H   0  0  0  0  0  0  0  0  0  0  0  0
   -1.4352    9.3649   -0.1094 H   0  0  0  0  0  0  0  0  0  0  0  0
   -2.0929    7.7846   -0.5581 H   0  0  0  0  0  0  0  0  0  0  0  0
   -1.1257    7.9542    0.9105 H   0  0  0  0  0  0  0  0  0  0  0  0
    4.5713    2.0435    7.5695 H   0  0  0  0  0  0  0  0  0  0  0  0
    4.3278   -0.0050    9.0634 H   0  0  0  0  0  0  0  0  0  0  0  0
   -0.0946   -1.9067    7.9790 H   0  0  0  0  0  0  0  0  0  0  0  0
    1.1229   -2.6825    6.9278 H   0  0  0  0  0  0  0  0  0  0  0  0
   -0.4443   -4.4127    7.8134 H   0  0  0  0  0  0  0  0  0  0  0  0
   -0.0833   -3.9045    9.4698 H   0  0  0  0  0  0  0  0  0  0  0  0
    1.1699   -4.6562    8.4800 H   0  0  0  0  0  0  0  0  0  0  0  0
    1.5214    0.4679    4.2404 H   0  0  0  0  0  0  0  0  0  0  0  0
    0.2212   -0.9946    3.0620 H   0  0  0  0  0  0  0  0  0  0  0  0
   -1.7340   -1.8380    3.7651 H   0  0  0  0  0  0  0  0  0  0  0  0
   -1.5396   -3.4646    5.7199 H   0  0  0  0  0  0  0  0  0  0  0  0
   -0.3916   -8.5928    5.1196 H   0  0  0  0  0  0  0  0  0  0  0  0
   -0.7530   -7.7285    3.6052 H   0  0  0  0  0  0  0  0  0  0  0  0
    1.4992   -6.6163    3.7300 H   0  0  0  0  0  0  0  0  0  0  0  0
    1.6720   -8.3746    3.7117 H   0  0  0  0  0  0  0  0  0  0  0  0
    1.8424   -7.4858    5.2319 H   0  0  0  0  0  0  0  0  0  0  0  0
   -0.7052   -1.7286   -4.0147 H   0  0  0  0  0  0  0  0  0  0  0  0
   -1.0379    0.0120   -5.8504 H   0  0  0  0  0  0  0  0  0  0  0  0
   -2.9278    3.7934   -3.5144 H   0  0  0  0  0  0  0  0  0  0  0  0
   -2.7582    4.9275   -4.8758 H   0  0  0  0  0  0  0  0  0  0  0  0
   -1.1998    5.5440   -3.0163 H   0  0  0  0  0  0  0  0  0  0  0  0
   -0.4497    3.9475   -3.1064 H   0  0  0  0  0  0  0  0  0  0  0  0
   -0.2999    5.0704   -4.4647 H   0  0  0  0  0  0  0  0  0  0  0  0
   -2.5623   -2.7625   -3.2423 H   0  0  0  0  0  0  0  0  0  0  0  0
   -4.6712   -8.5452   -3.7553 H   0  0  0  0  0  0  0  0  0  0  0  0
   -2.1486   -3.7877   -4.9925 H   0  0  0  0  0  0  0  0  0  0  0  0
   -1.3301   -1.9305   -9.8439 H   0  0  0  0  0  0  0  0  0  0  0  0
   -3.4534   -6.9390   -8.9215 H   0  0  0  0  0  0  0  0  0  0  0  0
   -3.6950   -8.9148  -14.8913 H   0  0  0  0  0  0  0  0  0  0  0  0
   -3.4124   -9.0141   -9.3699 H   0  0  0  0  0  0  0  0  0  0  0  0
   -3.9539  -11.5003   -9.8303 H   0  0  0  0  0  0  0  0  0  0  0  0
  1  2  1  0  0  0  0
  2  3  1  0  0  0  0
  3  4  2  0  0  0  0
  4  5  1  0  0  0  0
  5  6  1  0  0  0  0
  6  7  2  0  0  0  0
  7  8  1  0  0  0  0
  8  9  2  0  0  0  0
  8 10  2  0  0  0  0
  7 11  1  0  0  0  0
 11 12  2  0  0  0  0
 12 13  1  0  0  0  0
 13 14  2  0  0  0  0
 14 15  1  0  0  0  0
 15 16  2  0  0  0  0
 16 17  1  0  0  0  0
 17 18  2  0  0  0  0
 18 19  1  0  0  0  0
 19 20  1  0  0  0  0
 20 21  1  0  0  0  0
 18 22  1  0  0  0  0
 14 23  1  0  0  0  0
 23 24  2  0  0  0  0
 24 25  1  0  0  0  0
 25 26  1  0  0  0  0
 26 27  2  0  0  0  0
 27 28  1  0  0  0  0
 28 29  2  0  0  0  0
 29 30  1  0  0  0  0
 30 31  1  0  0  0  0
 31 32  1  0  0  0  0
 29 33  1  0  0  0  0
 25 34  2  0  0  0  0
 34 35  1  0  0  0  0
 24 36  1  0  0  0  0
 36 37  2  0  0  0  0
 37 38  1  0  0  0  0
 37 39  1  0  0  0  0
 39 40  2  0  0  0  0
 40 41  1  0  0  0  0
 41 42  2  0  0  0  0
 42 43  1  0  0  0  0
 43 44  2  0  0  0  0
 44 45  1  0  0  0  0
 45 46  2  0  0  0  0
 46 47  1  0  0  0  0
 47 48  1  0  0  0  0
 48 49  1  0  0  0  0
 46 50  1  0  0  0  0
 42 51  1  0  0  0  0
 51 52  2  0  0  0  0
 52 53  1  0  0  0  0
 53 54  1  0  0  0  0
 54 55  2  0  0  0  0
 55 56  1  0  0  0  0
 56 57  2  0  0  0  0
 57 58  1  0  0  0  0
 58 59  1  0  0  0  0
 59 60  1  0  0  0  0
 57 61  1  0  0  0  0
 53 62  2  0  0  0  0
 62 63  1  0  0  0  0
 52 64  1  0  0  0  0
 64 65  2  0  0  0  0
 65 66  1  0  0  0  0
 65 67  1  0  0  0  0
 67 68  1  0  0  0  0
 68 69  1  0  0  0  0
 69 70  2  0  0  0  0
 70 71  1  0  0  0  0
 71 72  1  0  0  0  0
 72 73  2  0  0  0  0
 73 74  1  0  0  0  0
 74 75  2  0  0  0  0
 74 76  2  0  0  0  0
 73 77  1  0  0  0  0
 77 78  1  0  0  0  0
 78 79  1  0  0  0  0
 79 80  2  0  0  0  0
 80 81  1  0  0  0  0
 81 82  1  0  0  0  0
 82 83  2  0  0  0  0
 83 84  1  0  0  0  0
 84 85  2  0  0  0  0
 84 86  2  0  0  0  0
 83 87  1  0  0  0  0
 87 88  1  0  0  0  0
 88 89  1  0  0  0  0
 89 90  2  0  0  0  0
 90 91  1  0  0  0  0
 91 92  1  0  0  0  0
 92 93  2  0  0  0  0
 93 94  1  0  0  0  0
 94 95  2  0  0  0  0
 94 96  2  0  0  0  0
  5  1  2  0  0  0  0
 35 11  1  0  0  0  0
 63 39  1  0  0  0  0
 71 67  2  0  0  0  0
 81 77  2  0  0  0  0
 91 87  2  0  0  0  0
  8  4  1  0  0  0  0
 34 13  1  0  0  0  0
 62 41  1  0  0  0  0
 74 70  1  0  0  0  0
 84 80  1  0  0  0  0
 94 90  1  0  0  0  0
 22 15  1  0  0  0  0
 38 23  1  0  0  0  0
 50 43  1  0  0  0  0
 66 51  1  0  0  0  0
 33 26  1  0  0  0  0
 61 54  1  0  0  0  0
  1 97  1  0  0  0  0
  3 98  1  0  0  0  0
  6 99  1  0  0  0  0
 12100  1  0  0  0  0
 16101  1  0  0  0  0
 17102  1  0  0  0  0
 20103  1  0  0  0  0
 20104  1  0  0  0  0
 21105  1  0  0  0  0
 21106  1  0  0  0  0
 21107  1  0  0  0  0
 27108  1  0  0  0  0
 28109  1  0  0  0  0
 31110  1  0  0  0  0
 31111  1  0  0  0  0
 32112  1  0  0  0  0
 32113  1  0  0  0  0
 32114  1  0  0  0  0
 36115  1  0  0  0  0
 40116  1  0  0  0  0
 44117  1  0  0  0  0
 45118  1  0  0  0  0
 48119  1  0  0  0  0
 48120  1  0  0  0  0
 49121  1  0  0  0  0
 49122  1  0  0  0  0
 49123  1  0  0  0  0
 55124  1  0  0  0  0
 56125  1  0  0  0  0
 59126  1  0  0  0  0
 59127  1  0  0  0  0
 60128  1  0  0  0  0
 60129  1  0  0  0  0
 60130  1  0  0  0  0
 64131  1  0  0  0  0
 69132  1  0  0  0  0
 72133  1  0  0  0  0
 79134  1  0  0  0  0
 82135  1  0  0  0  0
 89136  1  0  0  0  0
 92137  1  0  0  0  0
 93138  1  0  0  0  0
M  END
