
  xtb     03082208253D
 energy: -461.408515811749 gnorm: 0.000388518451 xtb: 6.4.1 (unknown)
272301  0     0  0            999 V2000
   -9.6443  -18.9069    8.5575 C   0  0  0  0  0  0  0  0  0  0  0  0
   -9.7313  -17.5766    8.7559 C   0  0  0  0  0  0  0  0  0  0  0  0
   -9.2991  -16.8152    7.6301 C   0  0  0  0  0  0  0  0  0  0  0  0
   -9.2226  -15.4136    7.5088 C   0  0  0  0  0  0  0  0  0  0  0  0
   -9.4739  -14.5278    8.6244 C   0  0  0  0  0  0  0  0  0  0  0  0
   -9.1152  -14.7115    9.9316 C   0  0  0  0  0  0  0  0  0  0  0  0
   -9.4453  -13.6684   10.8188 C   0  0  0  0  0  0  0  0  0  0  0  0
  -10.0960  -12.6103   10.2511 C   0  0  0  0  0  0  0  0  0  0  0  0
  -10.6710  -11.2248   11.1497 S   0  0  0  0  0  0  0  0  0  0  0  0
  -10.9545  -10.0100    9.8137 C   0  0  0  0  0  0  0  0  0  0  0  0
   -9.6628   -9.4703    9.2342 C   0  0  0  0  0  0  0  0  0  0  0  0
  -10.3668  -12.8821    8.4051 Se  0  0  0  0  0  2  0  0  0  0  0  0
   -8.8492  -14.9313    6.2584 C   0  0  0  0  0  0  0  0  0  0  0  0
   -8.4823  -15.7601    5.1734 C   0  0  0  0  0  0  0  0  0  0  0  0
   -8.4733  -17.1617    5.3215 C   0  0  0  0  0  0  0  0  0  0  0  0
   -7.9885  -18.0436    4.2833 C   0  0  0  0  0  0  0  0  0  0  0  0
   -8.4440  -19.2923    3.9587 C   0  0  0  0  0  0  0  0  0  0  0  0
   -7.7276  -19.9783    2.9605 C   0  0  0  0  0  0  0  0  0  0  0  0
   -6.6469  -19.3084    2.4602 C   0  0  0  0  0  0  0  0  0  0  0  0
   -5.5918  -19.9329    1.2159 S   0  0  0  0  0  0  0  0  0  0  0  0
   -4.4399  -18.5226    1.0225 C   0  0  0  0  0  0  0  0  0  0  0  0
   -3.4013  -18.8396   -0.0332 C   0  0  0  0  0  0  0  0  0  0  0  0
   -6.4531  -17.6213    3.2654 Se  0  0  0  0  0  2  0  0  0  0  0  0
   -8.9188  -17.6473    6.5519 C   0  0  0  0  0  0  0  0  0  0  0  0
   -9.0443  -19.3308    6.9927 S   0  0  0  0  0  0  0  0  0  0  0  0
   -8.1553  -15.0008    4.0206 C   0  0  0  0  0  0  0  0  0  0  0  0
   -8.2282  -13.6547    4.2110 C   0  0  0  0  0  0  0  0  0  0  0  0
   -8.7203  -13.2448    5.8418 S   0  0  0  0  0  0  0  0  0  0  0  0
   -7.9191  -12.6130    3.2929 C   0  0  0  0  0  0  0  0  0  0  0  0
   -8.0461  -11.2719    3.4962 C   0  0  0  0  0  0  0  0  0  0  0  0
   -7.5702  -10.4822    2.4225 C   0  0  0  0  0  0  0  0  0  0  0  0
   -7.5415   -9.0745    2.3234 C   0  0  0  0  0  0  0  0  0  0  0  0
   -7.9072   -8.2167    3.4266 C   0  0  0  0  0  0  0  0  0  0  0  0
   -7.7140   -8.4484    4.7643 C   0  0  0  0  0  0  0  0  0  0  0  0
   -8.1267   -7.4298    5.6411 C   0  0  0  0  0  0  0  0  0  0  0  0
   -8.6703   -6.3306    5.0360 C   0  0  0  0  0  0  0  0  0  0  0  0
   -9.2793   -4.9321    5.8812 S   0  0  0  0  0  0  0  0  0  0  0  0
   -9.3355   -3.7269    4.5014 C   0  0  0  0  0  0  0  0  0  0  0  0
   -9.7232   -2.3542    5.0064 C   0  0  0  0  0  0  0  0  0  0  0  0
   -8.7100   -6.5282    3.1632 Se  0  0  0  0  0  2  0  0  0  0  0  0
   -7.0701   -8.5662    1.1153 C   0  0  0  0  0  0  0  0  0  0  0  0
   -6.5761   -9.3592    0.0528 C   0  0  0  0  0  0  0  0  0  0  0  0
   -6.6232  -10.7678    0.1485 C   0  0  0  0  0  0  0  0  0  0  0  0
   -6.2124  -11.6135   -0.9469 C   0  0  0  0  0  0  0  0  0  0  0  0
   -6.3725  -11.3724   -2.2851 C   0  0  0  0  0  0  0  0  0  0  0  0
   -5.8541  -12.3449   -3.1598 C   0  0  0  0  0  0  0  0  0  0  0  0
   -5.2544  -13.4101   -2.5495 C   0  0  0  0  0  0  0  0  0  0  0  0
   -4.6040  -14.7756   -3.4277 S   0  0  0  0  0  0  0  0  0  0  0  0
   -3.6886  -15.6615   -2.1194 C   0  0  0  0  0  0  0  0  0  0  0  0
   -2.3918  -14.9679   -1.7550 C   0  0  0  0  0  0  0  0  0  0  0  0
   -5.3432  -13.2636   -0.6710 Se  0  0  0  0  0  2  0  0  0  0  0  0
   -7.1051  -11.2803    1.3503 C   0  0  0  0  0  0  0  0  0  0  0  0
   -7.2369  -12.9794    1.7228 S   0  0  0  0  0  0  0  0  0  0  0  0
   -6.0045   -8.5656   -0.9768 C   0  0  0  0  0  0  0  0  0  0  0  0
   -6.1062   -7.2269   -0.7520 C   0  0  0  0  0  0  0  0  0  0  0  0
   -6.9120   -6.8716    0.7653 S   0  0  0  0  0  0  0  0  0  0  0  0
   -5.5832   -6.1174   -1.4775 C   0  0  0  0  0  0  0  0  0  0  0  0
   -5.8581   -4.8096   -1.2119 C   0  0  0  0  0  0  0  0  0  0  0  0
   -5.0543   -3.8963   -1.9329 C   0  0  0  0  0  0  0  0  0  0  0  0
   -5.0563   -2.4953   -1.8379 C   0  0  0  0  0  0  0  0  0  0  0  0
   -5.9716   -1.7965   -0.9281 C   0  0  0  0  0  0  0  0  0  0  0  0
   -6.7417   -0.7262   -1.3710 C   0  0  0  0  0  0  0  0  0  0  0  0
   -7.6350   -0.0882   -0.5310 C   0  0  0  0  0  0  0  0  0  0  0  0
   -7.7922   -0.5022    0.7862 C   0  0  0  0  0  0  0  0  0  0  0  0
   -8.8949    0.1986    1.9683 S   0  0  0  0  0  0  0  0  0  0  0  0
   -9.8730    1.4145    1.0236 C   0  0  0  0  0  0  0  0  0  0  0  0
  -10.9248    0.7585    0.1488 C   0  0  0  0  0  0  0  0  0  0  0  0
   -6.9920   -1.5587    1.2251 C   0  0  0  0  0  0  0  0  0  0  0  0
   -7.1044   -1.9742    2.5051 F   0  0  0  0  0  0  0  0  0  0  0  0
   -6.0943   -2.1975    0.4023 C   0  0  0  0  0  0  0  0  0  0  0  0
   -4.1235   -1.8238   -2.6116 C   0  0  0  0  0  0  0  0  0  0  0  0
   -3.2078   -2.4846   -3.4678 C   0  0  0  0  0  0  0  0  0  0  0  0
   -3.2497   -3.8839   -3.6084 C   0  0  0  0  0  0  0  0  0  0  0  0
   -2.3680   -4.5763   -4.5544 C   0  0  0  0  0  0  0  0  0  0  0  0
   -2.2657   -4.1342   -5.8737 C   0  0  0  0  0  0  0  0  0  0  0  0
   -1.4732   -4.8040   -6.7803 C   0  0  0  0  0  0  0  0  0  0  0  0
   -0.7394   -5.9291   -6.4090 C   0  0  0  0  0  0  0  0  0  0  0  0
    0.2705   -6.6880   -7.6474 S   0  0  0  0  0  0  0  0  0  0  0  0
    0.0439   -8.4818   -7.3580 C   0  0  0  0  0  0  0  0  0  0  0  0
   -1.4142   -8.8886   -7.4262 C   0  0  0  0  0  0  0  0  0  0  0  0
   -0.8231   -6.3377   -5.0815 C   0  0  0  0  0  0  0  0  0  0  0  0
   -1.6322   -5.6917   -4.1689 C   0  0  0  0  0  0  0  0  0  0  0  0
   -0.1015   -7.3890   -4.6356 F   0  0  0  0  0  0  0  0  0  0  0  0
   -4.1594   -4.5598   -2.8095 C   0  0  0  0  0  0  0  0  0  0  0  0
   -4.3585   -6.2955   -2.7176 S   0  0  0  0  0  0  0  0  0  0  0  0
   -2.2488   -1.5882   -4.0038 C   0  0  0  0  0  0  0  0  0  0  0  0
   -2.4174   -0.2981   -3.5930 C   0  0  0  0  0  0  0  0  0  0  0  0
   -3.8198   -0.1087   -2.5598 S   0  0  0  0  0  0  0  0  0  0  0  0
   -1.5417    0.8107   -3.8030 C   0  0  0  0  0  0  0  0  0  0  0  0
   -0.2456    0.7678   -4.2273 C   0  0  0  0  0  0  0  0  0  0  0  0
    0.4188    2.0158   -4.1494 C   0  0  0  0  0  0  0  0  0  0  0  0
    1.7856    2.2823   -4.3736 C   0  0  0  0  0  0  0  0  0  0  0  0
    2.7202    1.2412   -4.7421 C   0  0  0  0  0  0  0  0  0  0  0  0
    2.7974   -0.0334   -4.2553 C   0  0  0  0  0  0  0  0  0  0  0  0
    3.7871   -0.8566   -4.8279 C   0  0  0  0  0  0  0  0  0  0  0  0
    4.5385   -0.2648   -5.8021 C   0  0  0  0  0  0  0  0  0  0  0  0
    5.8814   -1.0508   -6.5997 S   0  0  0  0  0  0  0  0  0  0  0  0
    6.0694   -0.0170   -8.0942 C   0  0  0  0  0  0  0  0  0  0  0  0
    4.9457   -0.2361   -9.0861 C   0  0  0  0  0  0  0  0  0  0  0  0
    4.0385    1.5366   -6.0580 Se  0  0  0  0  0  2  0  0  0  0  0  0
    2.1931    3.5956   -4.1724 C   0  0  0  0  0  0  0  0  0  0  0  0
    1.3220    4.6379   -3.7760 C   0  0  0  0  0  0  0  0  0  0  0  0
   -0.0439    4.3731   -3.5408 C   0  0  0  0  0  0  0  0  0  0  0  0
   -0.9774    5.3808   -3.0857 C   0  0  0  0  0  0  0  0  0  0  0  0
   -2.3000    5.4832   -3.4213 C   0  0  0  0  0  0  0  0  0  0  0  0
   -3.0254    6.5140   -2.7947 C   0  0  0  0  0  0  0  0  0  0  0  0
   -2.3150    7.2669   -1.9040 C   0  0  0  0  0  0  0  0  0  0  0  0
   -3.0110    8.5470   -0.9384 S   0  0  0  0  0  0  0  0  0  0  0  0
   -1.5212    9.4464   -0.3801 C   0  0  0  0  0  0  0  0  0  0  0  0
   -0.8813   10.2501   -1.4926 C   0  0  0  0  0  0  0  0  0  0  0  0
   -0.5320    6.6790   -1.7877 Se  0  0  0  0  0  2  0  0  0  0  0  0
   -0.4476    3.0519   -3.7228 C   0  0  0  0  0  0  0  0  0  0  0  0
   -2.0365    2.4300   -3.3655 S   0  0  0  0  0  0  0  0  0  0  0  0
    2.0162    5.8591   -3.6070 C   0  0  0  0  0  0  0  0  0  0  0  0
    3.3653    5.7600   -3.7916 C   0  0  0  0  0  0  0  0  0  0  0  0
    3.8435    4.1478   -4.2685 S   0  0  0  0  0  0  0  0  0  0  0  0
    4.3387    6.7705   -3.5365 C   0  0  0  0  0  0  0  0  0  0  0  0
    4.1069    8.0482   -3.1168 C   0  0  0  0  0  0  0  0  0  0  0  0
    5.2842    8.7664   -2.8010 C   0  0  0  0  0  0  0  0  0  0  0  0
    5.3788   10.0900   -2.3226 C   0  0  0  0  0  0  0  0  0  0  0  0
    4.2149   10.9411   -2.2336 C   0  0  0  0  0  0  0  0  0  0  0  0
    3.1746   11.0190   -3.1190 C   0  0  0  0  0  0  0  0  0  0  0  0
    2.1410   11.9137   -2.7833 C   0  0  0  0  0  0  0  0  0  0  0  0
    2.3144   12.5774   -1.6017 C   0  0  0  0  0  0  0  0  0  0  0  0
    1.1191   13.6525   -0.9118 S   0  0  0  0  0  0  0  0  0  0  0  0
    2.1304   14.6045    0.2740 C   0  0  0  0  0  0  0  0  0  0  0  0
    3.0745   15.5651   -0.4187 C   0  0  0  0  0  0  0  0  0  0  0  0
    3.9340   12.0882   -0.7649 Se  0  0  0  0  0  2  0  0  0  0  0  0
    6.6465   10.5076   -1.9349 C   0  0  0  0  0  0  0  0  0  0  0  0
    7.8084    9.7103   -2.0646 C   0  0  0  0  0  0  0  0  0  0  0  0
    7.7266    8.4119   -2.6101 C   0  0  0  0  0  0  0  0  0  0  0  0
    8.8865    7.5643   -2.7989 C   0  0  0  0  0  0  0  0  0  0  0  0
    8.9410    6.2091   -2.6256 C   0  0  0  0  0  0  0  0  0  0  0  0
   10.1597    5.5817   -2.9532 C   0  0  0  0  0  0  0  0  0  0  0  0
   11.1234    6.4207   -3.4271 C   0  0  0  0  0  0  0  0  0  0  0  0
   12.7502    6.0459   -3.9562 S   0  0  0  0  0  0  0  0  0  0  0  0
   12.6340    4.2728   -4.3850 C   0  0  0  0  0  0  0  0  0  0  0  0
   11.7353    4.0277   -5.5802 C   0  0  0  0  0  0  0  0  0  0  0  0
   10.5411    8.2028   -3.4717 Se  0  0  0  0  0  2  0  0  0  0  0  0
    6.4481    7.9732   -2.9493 C   0  0  0  0  0  0  0  0  0  0  0  0
    6.0471    6.3981   -3.5831 S   0  0  0  0  0  0  0  0  0  0  0  0
    8.9505   10.3645   -1.5422 C   0  0  0  0  0  0  0  0  0  0  0  0
    8.6943   11.6114   -1.0509 C   0  0  0  0  0  0  0  0  0  0  0  0
    7.0120   12.0540   -1.2230 S   0  0  0  0  0  0  0  0  0  0  0  0
    9.6243   12.4838   -0.4110 C   0  0  0  0  0  0  0  0  0  0  0  0
   10.9833   12.3771   -0.4367 C   0  0  0  0  0  0  0  0  0  0  0  0
   11.6497   13.3309    0.3714 C   0  0  0  0  0  0  0  0  0  0  0  0
   13.0335   13.4325    0.6277 C   0  0  0  0  0  0  0  0  0  0  0  0
   13.9907   12.4819    0.1081 C   0  0  0  0  0  0  0  0  0  0  0  0
   15.2914   12.7162   -0.2484 C   0  0  0  0  0  0  0  0  0  0  0  0
   16.0330   11.5998   -0.6781 C   0  0  0  0  0  0  0  0  0  0  0  0
   15.3578   10.4127   -0.6671 C   0  0  0  0  0  0  0  0  0  0  0  0
   16.0556    8.8859   -1.1572 S   0  0  0  0  0  0  0  0  0  0  0  0
   14.5800    7.9327   -1.6697 C   0  0  0  0  0  0  0  0  0  0  0  0
   13.9194    7.2015   -0.5192 C   0  0  0  0  0  0  0  0  0  0  0  0
   13.6055   10.6379   -0.0321 Se  0  0  0  0  0  2  0  0  0  0  0  0
   13.4201   14.4814    1.4637 C   0  0  0  0  0  0  0  0  0  0  0  0
   12.5065   15.3785    2.0638 C   0  0  0  0  0  0  0  0  0  0  0  0
   11.1230   15.2474    1.8411 C   0  0  0  0  0  0  0  0  0  0  0  0
   10.1325   16.0769    2.4961 C   0  0  0  0  0  0  0  0  0  0  0  0
    8.9797   16.5705    1.9535 C   0  0  0  0  0  0  0  0  0  0  0  0
    8.1316   17.2736    2.8315 C   0  0  0  0  0  0  0  0  0  0  0  0
    8.5633   17.3428    4.1246 C   0  0  0  0  0  0  0  0  0  0  0  0
    7.6338   18.0717    5.4157 S   0  0  0  0  0  0  0  0  0  0  0  0
    8.8856   18.2338    6.7358 C   0  0  0  0  0  0  0  0  0  0  0  0
    9.8697   19.3527    6.4619 C   0  0  0  0  0  0  0  0  0  0  0  0
   10.2124   16.4606    4.3419 Se  0  0  0  0  0  2  0  0  0  0  0  0
   10.7364   14.2247    0.9797 C   0  0  0  0  0  0  0  0  0  0  0  0
    9.0882   13.8237    0.5744 S   0  0  0  0  0  0  0  0  0  0  0  0
   13.1724   16.3440    2.8753 C   0  0  0  0  0  0  0  0  0  0  0  0
   14.5080   16.1674    2.9183 C   0  0  0  0  0  0  0  0  0  0  0  0
   15.0540   14.8340    1.9658 S   0  0  0  0  0  0  0  0  0  0  0  0
   -9.9093  -19.6951    9.2347 H   0  0  0  0  0  0  0  0  0  0  0  0
  -10.1160  -17.1349    9.6566 H   0  0  0  0  0  0  0  0  0  0  0  0
   -8.5498  -15.5699   10.2539 H   0  0  0  0  0  0  0  0  0  0  0  0
   -9.1902  -13.6899   11.8642 H   0  0  0  0  0  0  0  0  0  0  0  0
  -11.5644  -10.5064    9.0522 H   0  0  0  0  0  0  0  0  0  0  0  0
  -11.5398   -9.2190   10.2814 H   0  0  0  0  0  0  0  0  0  0  0  0
   -9.0618   -9.0062   10.0128 H   0  0  0  0  0  0  0  0  0  0  0  0
   -9.8864   -8.7273    8.4712 H   0  0  0  0  0  0  0  0  0  0  0  0
   -9.0819  -10.2715    8.7762 H   0  0  0  0  0  0  0  0  0  0  0  0
   -9.3283  -19.7138    4.4051 H   0  0  0  0  0  0  0  0  0  0  0  0
   -8.0054  -20.9578    2.6120 H   0  0  0  0  0  0  0  0  0  0  0  0
   -3.9751  -18.3475    1.9970 H   0  0  0  0  0  0  0  0  0  0  0  0
   -5.0396  -17.6502    0.7459 H   0  0  0  0  0  0  0  0  0  0  0  0
   -3.8779  -19.0105   -0.9955 H   0  0  0  0  0  0  0  0  0  0  0  0
   -2.8459  -19.7340    0.2393 H   0  0  0  0  0  0  0  0  0  0  0  0
   -2.7042  -18.0101   -0.1270 H   0  0  0  0  0  0  0  0  0  0  0  0
   -7.9087  -15.4221    3.0600 H   0  0  0  0  0  0  0  0  0  0  0  0
   -8.4988  -10.8728    4.3851 H   0  0  0  0  0  0  0  0  0  0  0  0
   -7.2019   -9.3230    5.1277 H   0  0  0  0  0  0  0  0  0  0  0  0
   -7.9991   -7.4931    6.7081 H   0  0  0  0  0  0  0  0  0  0  0  0
   -8.3408   -3.7106    4.0512 H   0  0  0  0  0  0  0  0  0  0  0  0
  -10.0613   -4.1064    3.7748 H   0  0  0  0  0  0  0  0  0  0  0  0
   -9.6989   -1.6457    4.1817 H   0  0  0  0  0  0  0  0  0  0  0  0
   -9.0207   -2.0206    5.7661 H   0  0  0  0  0  0  0  0  0  0  0  0
  -10.7218   -2.3680    5.4369 H   0  0  0  0  0  0  0  0  0  0  0  0
   -6.9051  -10.5107   -2.6508 H   0  0  0  0  0  0  0  0  0  0  0  0
   -5.9252  -12.2632   -4.2308 H   0  0  0  0  0  0  0  0  0  0  0  0
   -3.5061  -16.6526   -2.5334 H   0  0  0  0  0  0  0  0  0  0  0  0
   -4.3598  -15.7457   -1.2588 H   0  0  0  0  0  0  0  0  0  0  0  0
   -1.8688  -15.5355   -0.9881 H   0  0  0  0  0  0  0  0  0  0  0  0
   -2.5880  -13.9680   -1.3675 H   0  0  0  0  0  0  0  0  0  0  0  0
   -1.7491  -14.8817   -2.6278 H   0  0  0  0  0  0  0  0  0  0  0  0
   -5.4949   -8.9679   -1.8336 H   0  0  0  0  0  0  0  0  0  0  0  0
   -6.6158   -4.5160   -0.5084 H   0  0  0  0  0  0  0  0  0  0  0  0
   -6.6586   -0.3972   -2.3956 H   0  0  0  0  0  0  0  0  0  0  0  0
   -8.2096    0.7365   -0.9193 H   0  0  0  0  0  0  0  0  0  0  0  0
   -9.1866    2.0420    0.4568 H   0  0  0  0  0  0  0  0  0  0  0  0
  -10.3400    2.0238    1.7976 H   0  0  0  0  0  0  0  0  0  0  0  0
  -11.4966    1.5215   -0.3761 H   0  0  0  0  0  0  0  0  0  0  0  0
  -11.6071    0.1717    0.7594 H   0  0  0  0  0  0  0  0  0  0  0  0
  -10.4699    0.0976   -0.5857 H   0  0  0  0  0  0  0  0  0  0  0  0
   -5.4828   -2.9881    0.8077 H   0  0  0  0  0  0  0  0  0  0  0  0
   -2.8407   -3.2787   -6.1943 H   0  0  0  0  0  0  0  0  0  0  0  0
   -1.4104   -4.4691   -7.8040 H   0  0  0  0  0  0  0  0  0  0  0  0
    0.4979   -8.7476   -6.4059 H   0  0  0  0  0  0  0  0  0  0  0  0
    0.6180   -8.9373   -8.1650 H   0  0  0  0  0  0  0  0  0  0  0  0
   -1.4969   -9.9695   -7.3327 H   0  0  0  0  0  0  0  0  0  0  0  0
   -1.9842   -8.4303   -6.6199 H   0  0  0  0  0  0  0  0  0  0  0  0
   -1.8518   -8.5847   -8.3750 H   0  0  0  0  0  0  0  0  0  0  0  0
   -1.6519   -6.0510   -3.1521 H   0  0  0  0  0  0  0  0  0  0  0  0
   -1.4402   -1.9027   -4.6380 H   0  0  0  0  0  0  0  0  0  0  0  0
    0.2276   -0.1344   -4.5663 H   0  0  0  0  0  0  0  0  0  0  0  0
    2.1672   -0.3793   -3.4530 H   0  0  0  0  0  0  0  0  0  0  0  0
    3.9419   -1.8783   -4.5266 H   0  0  0  0  0  0  0  0  0  0  0  0
    6.1201    1.0247   -7.7606 H   0  0  0  0  0  0  0  0  0  0  0  0
    7.0323   -0.3072   -8.5129 H   0  0  0  0  0  0  0  0  0  0  0  0
    4.9005   -1.2809   -9.3841 H   0  0  0  0  0  0  0  0  0  0  0  0
    3.9876    0.0414   -8.6463 H   0  0  0  0  0  0  0  0  0  0  0  0
    5.1088    0.3761   -9.9704 H   0  0  0  0  0  0  0  0  0  0  0  0
   -2.7528    4.8510   -4.1663 H   0  0  0  0  0  0  0  0  0  0  0  0
   -4.0640    6.7046   -3.0024 H   0  0  0  0  0  0  0  0  0  0  0  0
   -0.8316    8.7044    0.0349 H   0  0  0  0  0  0  0  0  0  0  0  0
   -1.8743   10.0937    0.4217 H   0  0  0  0  0  0  0  0  0  0  0  0
   -0.0198   10.7919   -1.1090 H   0  0  0  0  0  0  0  0  0  0  0  0
   -0.5477    9.5953   -2.2984 H   0  0  0  0  0  0  0  0  0  0  0  0
   -1.5890   10.9684   -1.8989 H   0  0  0  0  0  0  0  0  0  0  0  0
    1.5406    6.7898   -3.3511 H   0  0  0  0  0  0  0  0  0  0  0  0
    3.1201    8.4508   -2.9848 H   0  0  0  0  0  0  0  0  0  0  0  0
    3.1761   10.4780   -4.0506 H   0  0  0  0  0  0  0  0  0  0  0  0
    1.2813   12.0751   -3.4105 H   0  0  0  0  0  0  0  0  0  0  0  0
    1.4061   15.1332    0.8926 H   0  0  0  0  0  0  0  0  0  0  0  0
    2.6703   13.8790    0.8911 H   0  0  0  0  0  0  0  0  0  0  0  0
    3.6322   16.1314    0.3239 H   0  0  0  0  0  0  0  0  0  0  0  0
    3.7860   15.0227   -1.0420 H   0  0  0  0  0  0  0  0  0  0  0  0
    2.5192   16.2578   -1.0470 H   0  0  0  0  0  0  0  0  0  0  0  0
    8.1195    5.6456   -2.2177 H   0  0  0  0  0  0  0  0  0  0  0  0
   10.2998    4.5220   -2.8293 H   0  0  0  0  0  0  0  0  0  0  0  0
   13.6648    3.9936   -4.6027 H   0  0  0  0  0  0  0  0  0  0  0  0
   12.3026    3.7323   -3.4993 H   0  0  0  0  0  0  0  0  0  0  0  0
   10.7163    4.3468   -5.3712 H   0  0  0  0  0  0  0  0  0  0  0  0
   11.7243    2.9663   -5.8197 H   0  0  0  0  0  0  0  0  0  0  0  0
   12.0993    4.5774   -6.4452 H   0  0  0  0  0  0  0  0  0  0  0  0
    9.9230    9.9078   -1.4749 H   0  0  0  0  0  0  0  0  0  0  0  0
   11.4817   11.6563   -1.0611 H   0  0  0  0  0  0  0  0  0  0  0  0
   15.7122   13.7069   -0.2688 H   0  0  0  0  0  0  0  0  0  0  0  0
   17.0527   11.6725   -1.0141 H   0  0  0  0  0  0  0  0  0  0  0  0
   13.8920    8.6324   -2.1507 H   0  0  0  0  0  0  0  0  0  0  0  0
   14.9494    7.2312   -2.4165 H   0  0  0  0  0  0  0  0  0  0  0  0
   14.6214    6.5182   -0.0476 H   0  0  0  0  0  0  0  0  0  0  0  0
   13.5594    7.9044    0.2343 H   0  0  0  0  0  0  0  0  0  0  0  0
   13.0690    6.6341   -0.8923 H   0  0  0  0  0  0  0  0  0  0  0  0
    8.7527   16.4749    0.9052 H   0  0  0  0  0  0  0  0  0  0  0  0
    7.2093   17.7274    2.5125 H   0  0  0  0  0  0  0  0  0  0  0  0
    8.3095   18.4248    7.6406 H   0  0  0  0  0  0  0  0  0  0  0  0
    9.3870   17.2653    6.8278 H   0  0  0  0  0  0  0  0  0  0  0  0
    9.3476   20.3013    6.3616 H   0  0  0  0  0  0  0  0  0  0  0  0
   10.4216   19.1611    5.5414 H   0  0  0  0  0  0  0  0  0  0  0  0
   10.5817   19.4271    7.2811 H   0  0  0  0  0  0  0  0  0  0  0  0
   12.6691   17.1486    3.3841 H   0  0  0  0  0  0  0  0  0  0  0  0
   15.2351   16.7525    3.4467 H   0  0  0  0  0  0  0  0  0  0  0  0
  1  2  2  0  0  0  0
  2  3  1  0  0  0  0
  3  4  2  0  0  0  0
  4  5  1  0  0  0  0
  5  6  2  0  0  0  0
  6  7  1  0  0  0  0
  7  8  2  0  0  0  0
  8  9  1  0  0  0  0
  9 10  1  0  0  0  0
 10 11  1  0  0  0  0
  8 12  1  0  0  0  0
  4 13  1  0  0  0  0
 13 14  2  0  0  0  0
 14 15  1  0  0  0  0
 15 16  1  0  0  0  0
 16 17  2  0  0  0  0
 17 18  1  0  0  0  0
 18 19  2  0  0  0  0
 19 20  1  0  0  0  0
 20 21  1  0  0  0  0
 21 22  1  0  0  0  0
 19 23  1  0  0  0  0
 15 24  2  0  0  0  0
 24 25  1  0  0  0  0
 14 26  1  0  0  0  0
 26 27  2  0  0  0  0
 27 28  1  0  0  0  0
 27 29  1  0  0  0  0
 29 30  2  0  0  0  0
 30 31  1  0  0  0  0
 31 32  2  0  0  0  0
 32 33  1  0  0  0  0
 33 34  2  0  0  0  0
 34 35  1  0  0  0  0
 35 36  2  0  0  0  0
 36 37  1  0  0  0  0
 37 38  1  0  0  0  0
 38 39  1  0  0  0  0
 36 40  1  0  0  0  0
 32 41  1  0  0  0  0
 41 42  2  0  0  0  0
 42 43  1  0  0  0  0
 43 44  1  0  0  0  0
 44 45  2  0  0  0  0
 45 46  1  0  0  0  0
 46 47  2  0  0  0  0
 47 48  1  0  0  0  0
 48 49  1  0  0  0  0
 49 50  1  0  0  0  0
 47 51  1  0  0  0  0
 43 52  2  0  0  0  0
 52 53  1  0  0  0  0
 42 54  1  0  0  0  0
 54 55  2  0  0  0  0
 55 56  1  0  0  0  0
 55 57  1  0  0  0  0
 57 58  2  0  0  0  0
 58 59  1  0  0  0  0
 59 60  2  0  0  0  0
 60 61  1  0  0  0  0
 61 62  2  0  0  0  0
 62 63  1  0  0  0  0
 63 64  2  0  0  0  0
 64 65  1  0  0  0  0
 65 66  1  0  0  0  0
 66 67  1  0  0  0  0
 64 68  1  0  0  0  0
 68 69  1  0  0  0  0
 68 70  2  0  0  0  0
 60 71  1  0  0  0  0
 71 72  2  0  0  0  0
 72 73  1  0  0  0  0
 73 74  1  0  0  0  0
 74 75  2  0  0  0  0
 75 76  1  0  0  0  0
 76 77  2  0  0  0  0
 77 78  1  0  0  0  0
 78 79  1  0  0  0  0
 79 80  1  0  0  0  0
 77 81  1  0  0  0  0
 81 82  2  0  0  0  0
 81 83  1  0  0  0  0
 73 84  2  0  0  0  0
 84 85  1  0  0  0  0
 72 86  1  0  0  0  0
 86 87  2  0  0  0  0
 87 88  1  0  0  0  0
 87 89  1  0  0  0  0
 89 90  2  0  0  0  0
 90 91  1  0  0  0  0
 91 92  2  0  0  0  0
 92 93  1  0  0  0  0
 93 94  2  0  0  0  0
 94 95  1  0  0  0  0
 95 96  2  0  0  0  0
 96 97  1  0  0  0  0
 97 98  1  0  0  0  0
 98 99  1  0  0  0  0
 96100  1  0  0  0  0
 92101  1  0  0  0  0
101102  2  0  0  0  0
102103  1  0  0  0  0
103104  1  0  0  0  0
104105  2  0  0  0  0
105106  1  0  0  0  0
106107  2  0  0  0  0
107108  1  0  0  0  0
108109  1  0  0  0  0
109110  1  0  0  0  0
107111  1  0  0  0  0
103112  2  0  0  0  0
112113  1  0  0  0  0
102114  1  0  0  0  0
114115  2  0  0  0  0
115116  1  0  0  0  0
115117  1  0  0  0  0
117118  2  0  0  0  0
118119  1  0  0  0  0
119120  2  0  0  0  0
120121  1  0  0  0  0
121122  2  0  0  0  0
122123  1  0  0  0  0
123124  2  0  0  0  0
124125  1  0  0  0  0
125126  1  0  0  0  0
126127  1  0  0  0  0
124128  1  0  0  0  0
120129  1  0  0  0  0
129130  2  0  0  0  0
130131  1  0  0  0  0
131132  1  0  0  0  0
132133  2  0  0  0  0
133134  1  0  0  0  0
134135  2  0  0  0  0
135136  1  0  0  0  0
136137  1  0  0  0  0
137138  1  0  0  0  0
135139  1  0  0  0  0
131140  2  0  0  0  0
140141  1  0  0  0  0
130142  1  0  0  0  0
142143  2  0  0  0  0
143144  1  0  0  0  0
143145  1  0  0  0  0
145146  2  0  0  0  0
146147  1  0  0  0  0
147148  2  0  0  0  0
148149  1  0  0  0  0
149150  2  0  0  0  0
150151  1  0  0  0  0
151152  2  0  0  0  0
152153  1  0  0  0  0
153154  1  0  0  0  0
154155  1  0  0  0  0
152156  1  0  0  0  0
148157  1  0  0  0  0
157158  2  0  0  0  0
158159  1  0  0  0  0
159160  1  0  0  0  0
160161  2  0  0  0  0
161162  1  0  0  0  0
162163  2  0  0  0  0
163164  1  0  0  0  0
164165  1  0  0  0  0
165166  1  0  0  0  0
163167  1  0  0  0  0
159168  2  0  0  0  0
168169  1  0  0  0  0
158170  1  0  0  0  0
170171  2  0  0  0  0
171172  1  0  0  0  0
 25  1  1  0  0  0  0
 53 29  1  0  0  0  0
 85 57  1  0  0  0  0
113 89  1  0  0  0  0
141117  1  0  0  0  0
169145  1  0  0  0  0
 24  3  1  0  0  0  0
 52 31  1  0  0  0  0
 84 59  1  0  0  0  0
112 91  1  0  0  0  0
140119  1  0  0  0  0
168147  1  0  0  0  0
 12  5  1  0  0  0  0
 28 13  1  0  0  0  0
 40 33  1  0  0  0  0
 56 41  1  0  0  0  0
 70 61  1  0  0  0  0
 88 71  1  0  0  0  0
100 93  1  0  0  0  0
116101  1  0  0  0  0
128121  1  0  0  0  0
144129  1  0  0  0  0
156149  1  0  0  0  0
172157  1  0  0  0  0
 23 16  1  0  0  0  0
 51 44  1  0  0  0  0
 82 74  1  0  0  0  0
111104  1  0  0  0  0
139132  1  0  0  0  0
167160  1  0  0  0  0
  1173  1  0  0  0  0
  2174  1  0  0  0  0
  6175  1  0  0  0  0
  7176  1  0  0  0  0
 10177  1  0  0  0  0
 10178  1  0  0  0  0
 11179  1  0  0  0  0
 11180  1  0  0  0  0
 11181  1  0  0  0  0
 17182  1  0  0  0  0
 18183  1  0  0  0  0
 21184  1  0  0  0  0
 21185  1  0  0  0  0
 22186  1  0  0  0  0
 22187  1  0  0  0  0
 22188  1  0  0  0  0
 26189  1  0  0  0  0
 30190  1  0  0  0  0
 34191  1  0  0  0  0
 35192  1  0  0  0  0
 38193  1  0  0  0  0
 38194  1  0  0  0  0
 39195  1  0  0  0  0
 39196  1  0  0  0  0
 39197  1  0  0  0  0
 45198  1  0  0  0  0
 46199  1  0  0  0  0
 49200  1  0  0  0  0
 49201  1  0  0  0  0
 50202  1  0  0  0  0
 50203  1  0  0  0  0
 50204  1  0  0  0  0
 54205  1  0  0  0  0
 58206  1  0  0  0  0
 62207  1  0  0  0  0
 63208  1  0  0  0  0
 66209  1  0  0  0  0
 66210  1  0  0  0  0
 67211  1  0  0  0  0
 67212  1  0  0  0  0
 67213  1  0  0  0  0
 70214  1  0  0  0  0
 75215  1  0  0  0  0
 76216  1  0  0  0  0
 79217  1  0  0  0  0
 79218  1  0  0  0  0
 80219  1  0  0  0  0
 80220  1  0  0  0  0
 80221  1  0  0  0  0
 82222  1  0  0  0  0
 86223  1  0  0  0  0
 90224  1  0  0  0  0
 94225  1  0  0  0  0
 95226  1  0  0  0  0
 98227  1  0  0  0  0
 98228  1  0  0  0  0
 99229  1  0  0  0  0
 99230  1  0  0  0  0
 99231  1  0  0  0  0
105232  1  0  0  0  0
106233  1  0  0  0  0
109234  1  0  0  0  0
109235  1  0  0  0  0
110236  1  0  0  0  0
110237  1  0  0  0  0
110238  1  0  0  0  0
114239  1  0  0  0  0
118240  1  0  0  0  0
122241  1  0  0  0  0
123242  1  0  0  0  0
126243  1  0  0  0  0
126244  1  0  0  0  0
127245  1  0  0  0  0
127246  1  0  0  0  0
127247  1  0  0  0  0
133248  1  0  0  0  0
134249  1  0  0  0  0
137250  1  0  0  0  0
137251  1  0  0  0  0
138252  1  0  0  0  0
138253  1  0  0  0  0
138254  1  0  0  0  0
142255  1  0  0  0  0
146256  1  0  0  0  0
150257  1  0  0  0  0
151258  1  0  0  0  0
154259  1  0  0  0  0
154260  1  0  0  0  0
155261  1  0  0  0  0
155262  1  0  0  0  0
155263  1  0  0  0  0
161264  1  0  0  0  0
162265  1  0  0  0  0
165266  1  0  0  0  0
165267  1  0  0  0  0
166268  1  0  0  0  0
166269  1  0  0  0  0
166270  1  0  0  0  0
170271  1  0  0  0  0
171272  1  0  0  0  0
M  END
