
  xtb     03072219163D
 energy: -474.094466694026 gnorm: 0.000701894432 xtb: 6.4.1 (unknown)
278307  0     0  0            999 V2000
   -0.2769   -8.4891   10.3826 C   0  0  0  0  0  0  0  0  0  0  0  0
    0.7467   -8.3584    9.5146 C   0  0  0  0  0  0  0  0  0  0  0  0
    0.3289   -7.9584    8.2106 C   0  0  0  0  0  0  0  0  0  0  0  0
    1.1207   -7.7379    7.0660 C   0  0  0  0  0  0  0  0  0  0  0  0
    2.5660   -7.8267    7.0770 C   0  0  0  0  0  0  0  0  0  0  0  0
    3.3682   -8.3149    6.0828 C   0  0  0  0  0  0  0  0  0  0  0  0
    4.7561   -8.2130    6.2938 C   0  0  0  0  0  0  0  0  0  0  0  0
    5.1198   -7.6120    7.4652 C   0  0  0  0  0  0  0  0  0  0  0  0
    6.7743   -7.3642    7.9685 S   0  0  0  0  0  0  0  0  0  0  0  0
    6.5095   -6.5124    9.5675 C   0  0  0  0  0  0  0  0  0  0  0  0
    7.8395   -6.1827   10.2122 C   0  0  0  0  0  0  0  0  0  0  0  0
    3.6132   -7.1119    8.4746 Se  0  0  0  0  0  2  0  0  0  0  0  0
    0.4354   -7.3928    5.9022 C   0  0  0  0  0  0  0  0  0  0  0  0
   -0.9720   -7.2616    5.8386 C   0  0  0  0  0  0  0  0  0  0  0  0
   -1.7627   -7.4862    6.9824 C   0  0  0  0  0  0  0  0  0  0  0  0
   -3.2028   -7.3472    6.9273 C   0  0  0  0  0  0  0  0  0  0  0  0
   -4.0318   -7.7828    5.9312 C   0  0  0  0  0  0  0  0  0  0  0  0
   -5.3960   -7.4539    6.0676 C   0  0  0  0  0  0  0  0  0  0  0  0
   -5.6949   -6.7217    7.1792 C   0  0  0  0  0  0  0  0  0  0  0  0
   -7.2413   -6.0583    7.6521 S   0  0  0  0  0  0  0  0  0  0  0  0
   -8.0743   -5.8986    6.0217 C   0  0  0  0  0  0  0  0  0  0  0  0
   -9.1568   -4.8411    6.1080 C   0  0  0  0  0  0  0  0  0  0  0  0
   -4.1811   -6.4005    8.2445 Se  0  0  0  0  0  2  0  0  0  0  0  0
   -1.0759   -7.8164    8.1457 C   0  0  0  0  0  0  0  0  0  0  0  0
   -1.8222   -8.1533    9.6835 S   0  0  0  0  0  0  0  0  0  0  0  0
   -1.4041   -6.8208    4.5642 C   0  0  0  0  0  0  0  0  0  0  0  0
   -0.3904   -6.6230    3.6767 C   0  0  0  0  0  0  0  0  0  0  0  0
    1.1749   -6.9804    4.3732 S   0  0  0  0  0  0  0  0  0  0  0  0
   -0.5361   -6.1486    2.3395 C   0  0  0  0  0  0  0  0  0  0  0  0
    0.3957   -5.6127    1.5030 C   0  0  0  0  0  0  0  0  0  0  0  0
   -0.1522   -5.1227    0.2893 C   0  0  0  0  0  0  0  0  0  0  0  0
    0.5026   -4.4554   -0.7567 C   0  0  0  0  0  0  0  0  0  0  0  0
    1.9393   -4.1522   -0.7667 C   0  0  0  0  0  0  0  0  0  0  0  0
    2.7123   -4.4859   -1.8790 C   0  0  0  0  0  0  0  0  0  0  0  0
    4.0335   -4.1151   -1.9460 C   0  0  0  0  0  0  0  0  0  0  0  0
    4.6491   -3.3875   -0.9261 C   0  0  0  0  0  0  0  0  0  0  0  0
    6.3259   -2.9483   -1.2584 S   0  0  0  0  0  0  0  0  0  0  0  0
    6.8330   -1.6800   -0.0411 C   0  0  0  0  0  0  0  0  0  0  0  0
    7.4525   -2.2818    1.2043 C   0  0  0  0  0  0  0  0  0  0  0  0
    3.8750   -3.0948    0.1920 C   0  0  0  0  0  0  0  0  0  0  0  0
    4.3811   -2.4172    1.2491 F   0  0  0  0  0  0  0  0  0  0  0  0
    2.5453   -3.4644    0.2763 C   0  0  0  0  0  0  0  0  0  0  0  0
   -0.2907   -4.0149   -1.8052 C   0  0  0  0  0  0  0  0  0  0  0  0
   -1.6905   -4.2169   -1.8719 C   0  0  0  0  0  0  0  0  0  0  0  0
   -2.3466   -4.9060   -0.8372 C   0  0  0  0  0  0  0  0  0  0  0  0
   -3.8053   -5.0717   -0.8413 C   0  0  0  0  0  0  0  0  0  0  0  0
   -4.4764   -5.5686   -1.9546 C   0  0  0  0  0  0  0  0  0  0  0  0
   -5.8527   -5.6978   -1.9637 C   0  0  0  0  0  0  0  0  0  0  0  0
   -6.6097   -5.3376   -0.8548 C   0  0  0  0  0  0  0  0  0  0  0  0
   -8.3645   -5.4230   -0.7229 S   0  0  0  0  0  0  0  0  0  0  0  0
   -8.8979   -6.2748   -2.2460 C   0  0  0  0  0  0  0  0  0  0  0  0
   -8.6198   -7.7658   -2.2063 C   0  0  0  0  0  0  0  0  0  0  0  0
   -5.9219   -4.8407    0.2537 C   0  0  0  0  0  0  0  0  0  0  0  0
   -4.5544   -4.7021    0.2750 C   0  0  0  0  0  0  0  0  0  0  0  0
   -6.6247   -4.4737    1.3478 F   0  0  0  0  0  0  0  0  0  0  0  0
   -1.5551   -5.3328    0.2190 C   0  0  0  0  0  0  0  0  0  0  0  0
   -2.1408   -6.1549    1.6361 S   0  0  0  0  0  0  0  0  0  0  0  0
   -2.2723   -3.5216   -2.9598 C   0  0  0  0  0  0  0  0  0  0  0  0
   -1.3719   -2.7958   -3.6880 C   0  0  0  0  0  0  0  0  0  0  0  0
    0.2664   -2.9951   -3.1035 S   0  0  0  0  0  0  0  0  0  0  0  0
   -1.6778   -1.7823   -4.6438 C   0  0  0  0  0  0  0  0  0  0  0  0
   -2.9163   -1.4539   -5.1184 C   0  0  0  0  0  0  0  0  0  0  0  0
   -2.9989   -0.1481   -5.6565 C   0  0  0  0  0  0  0  0  0  0  0  0
   -4.1767    0.5665   -6.0023 C   0  0  0  0  0  0  0  0  0  0  0  0
   -5.4050   -0.0525   -6.4064 C   0  0  0  0  0  0  0  0  0  0  0  0
   -6.4997    0.5831   -6.9464 C   0  0  0  0  0  0  0  0  0  0  0  0
   -7.5564   -0.2300   -7.3818 C   0  0  0  0  0  0  0  0  0  0  0  0
   -7.3555   -1.5749   -7.2347 C   0  0  0  0  0  0  0  0  0  0  0  0
   -8.5048   -2.7828   -7.7540 S   0  0  0  0  0  0  0  0  0  0  0  0
   -7.6738   -4.3405   -7.2841 C   0  0  0  0  0  0  0  0  0  0  0  0
   -7.8332   -4.6633   -5.8113 C   0  0  0  0  0  0  0  0  0  0  0  0
   -5.6853   -1.9196   -6.4554 Se  0  0  0  0  0  2  0  0  0  0  0  0
   -4.0552    1.9544   -5.8395 C   0  0  0  0  0  0  0  0  0  0  0  0
   -2.8132    2.6086   -5.6893 C   0  0  0  0  0  0  0  0  0  0  0  0
   -1.5928    1.8854   -5.7370 C   0  0  0  0  0  0  0  0  0  0  0  0
   -0.3318    2.5743   -5.7244 C   0  0  0  0  0  0  0  0  0  0  0  0
   -0.1042    3.8145   -6.2650 C   0  0  0  0  0  0  0  0  0  0  0  0
    1.1749    4.3636   -6.0695 C   0  0  0  0  0  0  0  0  0  0  0  0
    2.0320    3.5737   -5.3568 C   0  0  0  0  0  0  0  0  0  0  0  0
    3.6768    3.9038   -4.8742 S   0  0  0  0  0  0  0  0  0  0  0  0
    3.9531    5.5432   -5.6467 C   0  0  0  0  0  0  0  0  0  0  0  0
    5.3598    6.0228   -5.3576 C   0  0  0  0  0  0  0  0  0  0  0  0
    1.2438    1.9398   -4.8683 Se  0  0  0  0  0  2  0  0  0  0  0  0
   -1.7477    0.5109   -5.5912 C   0  0  0  0  0  0  0  0  0  0  0  0
   -0.4866   -0.5581   -5.0417 S   0  0  0  0  0  0  0  0  0  0  0  0
   -2.9556    3.9047   -5.1438 C   0  0  0  0  0  0  0  0  0  0  0  0
   -4.2416    4.2203   -4.7969 C   0  0  0  0  0  0  0  0  0  0  0  0
   -5.3704    3.0313   -5.4093 S   0  0  0  0  0  0  0  0  0  0  0  0
   -4.5342    5.0464   -3.6634 C   0  0  0  0  0  0  0  0  0  0  0  0
   -3.6552    5.9083   -3.0708 C   0  0  0  0  0  0  0  0  0  0  0  0
   -3.7861    5.9673   -1.6608 C   0  0  0  0  0  0  0  0  0  0  0  0
   -2.8127    6.4379   -0.7630 C   0  0  0  0  0  0  0  0  0  0  0  0
   -1.4773    6.8480   -1.2348 C   0  0  0  0  0  0  0  0  0  0  0  0
   -0.7724    5.9540   -2.0458 C   0  0  0  0  0  0  0  0  0  0  0  0
    0.5292    6.2049   -2.4109 C   0  0  0  0  0  0  0  0  0  0  0  0
    1.1981    7.3525   -1.9794 C   0  0  0  0  0  0  0  0  0  0  0  0
    2.8897    7.4647   -2.4739 S   0  0  0  0  0  0  0  0  0  0  0  0
    3.3735    9.2244   -2.2781 C   0  0  0  0  0  0  0  0  0  0  0  0
    4.6943    9.4398   -2.9921 C   0  0  0  0  0  0  0  0  0  0  0  0
    0.4876    8.2302   -1.1671 C   0  0  0  0  0  0  0  0  0  0  0  0
    1.0642    9.3567   -0.6870 F   0  0  0  0  0  0  0  0  0  0  0  0
   -0.8253    7.9915   -0.7980 C   0  0  0  0  0  0  0  0  0  0  0  0
   -2.9970    6.1215    0.5730 C   0  0  0  0  0  0  0  0  0  0  0  0
   -4.0370    5.2740    1.0323 C   0  0  0  0  0  0  0  0  0  0  0  0
   -5.0160    4.8104    0.1361 C   0  0  0  0  0  0  0  0  0  0  0  0
   -5.9400    3.7532    0.5785 C   0  0  0  0  0  0  0  0  0  0  0  0
   -6.7677    3.9171    1.6873 C   0  0  0  0  0  0  0  0  0  0  0  0
   -7.5139    2.8614    2.1673 C   0  0  0  0  0  0  0  0  0  0  0  0
   -7.4692    1.6025    1.5676 C   0  0  0  0  0  0  0  0  0  0  0  0
   -8.4564    0.3282    2.2927 S   0  0  0  0  0  0  0  0  0  0  0  0
   -7.4923   -1.2129    2.0659 C   0  0  0  0  0  0  0  0  0  0  0  0
   -6.1270   -1.1439    2.7186 C   0  0  0  0  0  0  0  0  0  0  0  0
   -6.6769    1.4693    0.4316 C   0  0  0  0  0  0  0  0  0  0  0  0
   -5.9124    2.5125   -0.0490 C   0  0  0  0  0  0  0  0  0  0  0  0
   -6.6088    0.2994   -0.2415 F   0  0  0  0  0  0  0  0  0  0  0  0
   -4.8729    5.1858   -1.1914 C   0  0  0  0  0  0  0  0  0  0  0  0
   -5.7597    4.4888   -2.5273 S   0  0  0  0  0  0  0  0  0  0  0  0
   -3.7082    4.6694    2.2786 C   0  0  0  0  0  0  0  0  0  0  0  0
   -2.4756    5.0114    2.7473 C   0  0  0  0  0  0  0  0  0  0  0  0
   -1.7556    6.3127    1.7868 S   0  0  0  0  0  0  0  0  0  0  0  0
   -1.5518    4.1878    3.4633 C   0  0  0  0  0  0  0  0  0  0  0  0
   -0.2303    4.4771    3.6470 C   0  0  0  0  0  0  0  0  0  0  0  0
    0.6193    3.3504    3.5346 C   0  0  0  0  0  0  0  0  0  0  0  0
    2.0050    3.3980    3.2605 C   0  0  0  0  0  0  0  0  0  0  0  0
    2.7799    4.5623    3.5956 C   0  0  0  0  0  0  0  0  0  0  0  0
    2.5769    5.3724    4.6835 C   0  0  0  0  0  0  0  0  0  0  0  0
    3.4222    6.4887    4.7958 C   0  0  0  0  0  0  0  0  0  0  0  0
    4.3367    6.6247    3.7878 C   0  0  0  0  0  0  0  0  0  0  0  0
    5.5471    7.8846    3.7689 S   0  0  0  0  0  0  0  0  0  0  0  0
    6.1809    7.7912    2.0588 C   0  0  0  0  0  0  0  0  0  0  0  0
    5.2251    8.4095    1.0594 C   0  0  0  0  0  0  0  0  0  0  0  0
    4.2004    5.2173    2.5395 Se  0  0  0  0  0  2  0  0  0  0  0  0
    2.4829    2.3291    2.5100 C   0  0  0  0  0  0  0  0  0  0  0  0
    1.7322    1.1738    2.1811 C   0  0  0  0  0  0  0  0  0  0  0  0
    0.4322    1.0217    2.7119 C   0  0  0  0  0  0  0  0  0  0  0  0
   -0.3755   -0.1697    2.5522 C   0  0  0  0  0  0  0  0  0  0  0  0
   -0.5807   -0.9711    1.4657 C   0  0  0  0  0  0  0  0  0  0  0  0
   -1.4568   -2.0592    1.6554 C   0  0  0  0  0  0  0  0  0  0  0  0
   -1.9762   -2.1685    2.9143 C   0  0  0  0  0  0  0  0  0  0  0  0
   -3.0668   -3.4292    3.4354 S   0  0  0  0  0  0  0  0  0  0  0  0
   -3.5175   -2.8396    5.1053 C   0  0  0  0  0  0  0  0  0  0  0  0
   -4.6281   -3.7033    5.6621 C   0  0  0  0  0  0  0  0  0  0  0  0
   -1.3552   -0.7940    4.0394 Se  0  0  0  0  0  2  0  0  0  0  0  0
   -0.1046    2.1586    3.3126 C   0  0  0  0  0  0  0  0  0  0  0  0
   -1.8297    2.4419    3.4639 S   0  0  0  0  0  0  0  0  0  0  0  0
    2.3608    0.4116    1.1595 C   0  0  0  0  0  0  0  0  0  0  0  0
    3.5000    0.9850    0.6799 C   0  0  0  0  0  0  0  0  0  0  0  0
    3.9847    2.3758    1.6418 S   0  0  0  0  0  0  0  0  0  0  0  0
    4.1688    0.8232   -0.5686 C   0  0  0  0  0  0  0  0  0  0  0  0
    5.0527    1.7404   -1.0589 C   0  0  0  0  0  0  0  0  0  0  0  0
    5.3870    1.5500   -2.4148 C   0  0  0  0  0  0  0  0  0  0  0  0
    6.1745    2.3935   -3.2234 C   0  0  0  0  0  0  0  0  0  0  0  0
    6.4758    3.7280   -2.7669 C   0  0  0  0  0  0  0  0  0  0  0  0
    5.6328    4.5070   -2.0189 C   0  0  0  0  0  0  0  0  0  0  0  0
    6.0976    5.7919   -1.6948 C   0  0  0  0  0  0  0  0  0  0  0  0
    7.3376    6.0960   -2.1790 C   0  0  0  0  0  0  0  0  0  0  0  0
    8.1493    7.6098   -1.8343 S   0  0  0  0  0  0  0  0  0  0  0  0
    9.4265    7.6508   -3.1366 C   0  0  0  0  0  0  0  0  0  0  0  0
    8.8377    7.9240   -4.5053 C   0  0  0  0  0  0  0  0  0  0  0  0
    8.0672    4.6517   -3.1581 Se  0  0  0  0  0  2  0  0  0  0  0  0
    6.4997    1.8924   -4.4780 C   0  0  0  0  0  0  0  0  0  0  0  0
    6.0137    0.6578   -4.9663 C   0  0  0  0  0  0  0  0  0  0  0  0
    5.1171   -0.1117   -4.2025 C   0  0  0  0  0  0  0  0  0  0  0  0
    4.5517   -1.3589   -4.6785 C   0  0  0  0  0  0  0  0  0  0  0  0
    3.2406   -1.7296   -4.6816 C   0  0  0  0  0  0  0  0  0  0  0  0
    2.9739   -3.0331   -5.1480 C   0  0  0  0  0  0  0  0  0  0  0  0
    4.0739   -3.7599   -5.4979 C   0  0  0  0  0  0  0  0  0  0  0  0
    3.9872   -5.3960   -6.1200 S   0  0  0  0  0  0  0  0  0  0  0  0
    5.7465   -5.8849   -6.1895 C   0  0  0  0  0  0  0  0  0  0  0  0
    6.3185   -6.2266   -4.8282 C   0  0  0  0  0  0  0  0  0  0  0  0
    5.6538   -2.7586   -5.2832 Se  0  0  0  0  0  2  0  0  0  0  0  0
    4.8102    0.3719   -2.9367 C   0  0  0  0  0  0  0  0  0  0  0  0
    3.7366   -0.3759   -1.7769 S   0  0  0  0  0  0  0  0  0  0  0  0
    6.4747    0.4063   -6.2930 C   0  0  0  0  0  0  0  0  0  0  0  0
    7.2646    1.3854   -6.7749 C   0  0  0  0  0  0  0  0  0  0  0  0
    7.4916    2.6938   -5.6629 S   0  0  0  0  0  0  0  0  0  0  0  0
   -0.2327   -8.7778   11.4144 H   0  0  0  0  0  0  0  0  0  0  0  0
    1.7695   -8.5630    9.7829 H   0  0  0  0  0  0  0  0  0  0  0  0
    2.9656   -8.7891    5.2038 H   0  0  0  0  0  0  0  0  0  0  0  0
    5.4824   -8.5777    5.5884 H   0  0  0  0  0  0  0  0  0  0  0  0
    5.9175   -7.1842   10.1965 H   0  0  0  0  0  0  0  0  0  0  0  0
    5.9322   -5.6071    9.3598 H   0  0  0  0  0  0  0  0  0  0  0  0
    8.4239   -5.5324    9.5656 H   0  0  0  0  0  0  0  0  0  0  0  0
    7.6742   -5.6767   11.1608 H   0  0  0  0  0  0  0  0  0  0  0  0
    8.4092   -7.0910   10.3943 H   0  0  0  0  0  0  0  0  0  0  0  0
   -3.6757   -8.3833    5.1107 H   0  0  0  0  0  0  0  0  0  0  0  0
   -6.1330   -7.7649    5.3479 H   0  0  0  0  0  0  0  0  0  0  0  0
   -8.4940   -6.8710    5.7639 H   0  0  0  0  0  0  0  0  0  0  0  0
   -7.3082   -5.6210    5.2991 H   0  0  0  0  0  0  0  0  0  0  0  0
   -9.9030   -5.1161    6.8496 H   0  0  0  0  0  0  0  0  0  0  0  0
   -9.6447   -4.7375    5.1413 H   0  0  0  0  0  0  0  0  0  0  0  0
   -8.7287   -3.8817    6.3886 H   0  0  0  0  0  0  0  0  0  0  0  0
   -2.4281   -6.6077    4.3171 H   0  0  0  0  0  0  0  0  0  0  0  0
    1.4387   -5.5485    1.7567 H   0  0  0  0  0  0  0  0  0  0  0  0
    2.2738   -5.0418   -2.6933 H   0  0  0  0  0  0  0  0  0  0  0  0
    4.6237   -4.3680   -2.8129 H   0  0  0  0  0  0  0  0  0  0  0  0
    7.5620   -1.0806   -0.5887 H   0  0  0  0  0  0  0  0  0  0  0  0
    5.9702   -1.0589    0.1855 H   0  0  0  0  0  0  0  0  0  0  0  0
    6.7266   -2.8794    1.7490 H   0  0  0  0  0  0  0  0  0  0  0  0
    8.2975   -2.9139    0.9401 H   0  0  0  0  0  0  0  0  0  0  0  0
    7.8009   -1.4848    1.8581 H   0  0  0  0  0  0  0  0  0  0  0  0
    1.9855   -3.1800    1.1551 H   0  0  0  0  0  0  0  0  0  0  0  0
   -3.9125   -5.8768   -2.8225 H   0  0  0  0  0  0  0  0  0  0  0  0
   -6.3302   -6.0813   -2.8507 H   0  0  0  0  0  0  0  0  0  0  0  0
   -9.9704   -6.0835   -2.2833 H   0  0  0  0  0  0  0  0  0  0  0  0
   -8.4287   -5.7828   -3.0966 H   0  0  0  0  0  0  0  0  0  0  0  0
   -8.9749   -8.2335   -3.1228 H   0  0  0  0  0  0  0  0  0  0  0  0
   -9.1344   -8.2201   -1.3630 H   0  0  0  0  0  0  0  0  0  0  0  0
   -7.5553   -7.9648   -2.1028 H   0  0  0  0  0  0  0  0  0  0  0  0
   -4.0851   -4.2906    1.1542 H   0  0  0  0  0  0  0  0  0  0  0  0
   -3.3310   -3.5001   -3.1414 H   0  0  0  0  0  0  0  0  0  0  0  0
   -3.7691   -2.0861   -4.9325 H   0  0  0  0  0  0  0  0  0  0  0  0
   -6.5454    1.6513   -7.0667 H   0  0  0  0  0  0  0  0  0  0  0  0
   -8.4561    0.1707   -7.8162 H   0  0  0  0  0  0  0  0  0  0  0  0
   -6.6209   -4.2465   -7.5662 H   0  0  0  0  0  0  0  0  0  0  0  0
   -8.1440   -5.1024   -7.9054 H   0  0  0  0  0  0  0  0  0  0  0  0
   -8.8876   -4.7342   -5.5532 H   0  0  0  0  0  0  0  0  0  0  0  0
   -7.3486   -5.6137   -5.5943 H   0  0  0  0  0  0  0  0  0  0  0  0
   -7.3743   -3.8891   -5.1948 H   0  0  0  0  0  0  0  0  0  0  0  0
   -0.8549    4.3300   -6.8409 H   0  0  0  0  0  0  0  0  0  0  0  0
    1.4366    5.3319   -6.4575 H   0  0  0  0  0  0  0  0  0  0  0  0
    3.7902    5.4221   -6.7179 H   0  0  0  0  0  0  0  0  0  0  0  0
    3.2187    6.2273   -5.2217 H   0  0  0  0  0  0  0  0  0  0  0  0
    5.5395    6.9593   -5.8821 H   0  0  0  0  0  0  0  0  0  0  0  0
    6.0925    5.2896   -5.6902 H   0  0  0  0  0  0  0  0  0  0  0  0
    5.4849    6.1887   -4.2901 H   0  0  0  0  0  0  0  0  0  0  0  0
   -2.1123    4.4935   -4.8323 H   0  0  0  0  0  0  0  0  0  0  0  0
   -2.8693    6.4078   -3.6074 H   0  0  0  0  0  0  0  0  0  0  0  0
   -1.2437    5.0351   -2.3614 H   0  0  0  0  0  0  0  0  0  0  0  0
    1.0668    5.4979   -3.0254 H   0  0  0  0  0  0  0  0  0  0  0  0
    3.4610    9.4413   -1.2151 H   0  0  0  0  0  0  0  0  0  0  0  0
    2.5839    9.8329   -2.7166 H   0  0  0  0  0  0  0  0  0  0  0  0
    5.4695    8.8016   -2.5731 H   0  0  0  0  0  0  0  0  0  0  0  0
    4.5979    9.2126   -4.0516 H   0  0  0  0  0  0  0  0  0  0  0  0
    5.0024   10.4770   -2.8824 H   0  0  0  0  0  0  0  0  0  0  0  0
   -1.3186    8.7053   -0.1565 H   0  0  0  0  0  0  0  0  0  0  0  0
   -6.8139    4.8764    2.1805 H   0  0  0  0  0  0  0  0  0  0  0  0
   -8.1420    2.9881    3.0356 H   0  0  0  0  0  0  0  0  0  0  0  0
   -7.4263   -1.4410    1.0052 H   0  0  0  0  0  0  0  0  0  0  0  0
   -8.1158   -1.9669    2.5461 H   0  0  0  0  0  0  0  0  0  0  0  0
   -5.6414   -2.1135    2.6303 H   0  0  0  0  0  0  0  0  0  0  0  0
   -5.4956   -0.3998    2.2356 H   0  0  0  0  0  0  0  0  0  0  0  0
   -6.2204   -0.8870    3.7723 H   0  0  0  0  0  0  0  0  0  0  0  0
   -5.2821    2.3315   -0.9055 H   0  0  0  0  0  0  0  0  0  0  0  0
   -4.3002    3.8884    2.7228 H   0  0  0  0  0  0  0  0  0  0  0  0
    0.1405    5.4874    3.6612 H   0  0  0  0  0  0  0  0  0  0  0  0
    1.8320    5.1446    5.4281 H   0  0  0  0  0  0  0  0  0  0  0  0
    3.3631    7.1867    5.6129 H   0  0  0  0  0  0  0  0  0  0  0  0
    6.3758    6.7370    1.8377 H   0  0  0  0  0  0  0  0  0  0  0  0
    7.1261    8.3322    2.0836 H   0  0  0  0  0  0  0  0  0  0  0  0
    4.9698    9.4241    1.3576 H   0  0  0  0  0  0  0  0  0  0  0  0
    5.7008    8.4422    0.0810 H   0  0  0  0  0  0  0  0  0  0  0  0
    4.3074    7.8235    0.9943 H   0  0  0  0  0  0  0  0  0  0  0  0
   -0.1592   -0.7584    0.4977 H   0  0  0  0  0  0  0  0  0  0  0  0
   -1.7118   -2.7394    0.8615 H   0  0  0  0  0  0  0  0  0  0  0  0
   -2.6160   -2.8949    5.7222 H   0  0  0  0  0  0  0  0  0  0  0  0
   -3.8302   -1.7963    5.0038 H   0  0  0  0  0  0  0  0  0  0  0  0
   -4.8825   -3.3828    6.6702 H   0  0  0  0  0  0  0  0  0  0  0  0
   -4.3095   -4.7436    5.6976 H   0  0  0  0  0  0  0  0  0  0  0  0
   -5.5137   -3.6322    5.0343 H   0  0  0  0  0  0  0  0  0  0  0  0
    1.9419   -0.4756    0.7226 H   0  0  0  0  0  0  0  0  0  0  0  0
    5.4566    2.5309   -0.4529 H   0  0  0  0  0  0  0  0  0  0  0  0
    4.6400    4.1873   -1.7544 H   0  0  0  0  0  0  0  0  0  0  0  0
    5.5074    6.4855   -1.1232 H   0  0  0  0  0  0  0  0  0  0  0  0
    9.9473    6.6890   -3.1037 H   0  0  0  0  0  0  0  0  0  0  0  0
   10.1104    8.4416   -2.8300 H   0  0  0  0  0  0  0  0  0  0  0  0
    8.1539    7.1254   -4.7926 H   0  0  0  0  0  0  0  0  0  0  0  0
    8.2934    8.8657   -4.5033 H   0  0  0  0  0  0  0  0  0  0  0  0
    9.6342    7.9787   -5.2440 H   0  0  0  0  0  0  0  0  0  0  0  0
    2.4535   -1.0566   -4.3795 H   0  0  0  0  0  0  0  0  0  0  0  0
    1.9783   -3.4314   -5.2258 H   0  0  0  0  0  0  0  0  0  0  0  0
    6.2914   -5.0625   -6.6637 H   0  0  0  0  0  0  0  0  0  0  0  0
    5.7599   -6.7513   -6.8504 H   0  0  0  0  0  0  0  0  0  0  0  0
    7.3360   -6.5945   -4.9408 H   0  0  0  0  0  0  0  0  0  0  0  0
    5.7188   -6.9948   -4.3454 H   0  0  0  0  0  0  0  0  0  0  0  0
    6.3452   -5.3476   -4.1843 H   0  0  0  0  0  0  0  0  0  0  0  0
    6.2089   -0.4688   -6.8611 H   0  0  0  0  0  0  0  0  0  0  0  0
    7.7388    1.4434   -7.7349 H   0  0  0  0  0  0  0  0  0  0  0  0
  1  2  2  0  0  0  0
  2  3  1  0  0  0  0
  3  4  2  0  0  0  0
  4  5  1  0  0  0  0
  5  6  2  0  0  0  0
  6  7  1  0  0  0  0
  7  8  2  0  0  0  0
  8  9  1  0  0  0  0
  9 10  1  0  0  0  0
 10 11  1  0  0  0  0
  8 12  1  0  0  0  0
  4 13  1  0  0  0  0
 13 14  2  0  0  0  0
 14 15  1  0  0  0  0
 15 16  1  0  0  0  0
 16 17  2  0  0  0  0
 17 18  1  0  0  0  0
 18 19  2  0  0  0  0
 19 20  1  0  0  0  0
 20 21  1  0  0  0  0
 21 22  1  0  0  0  0
 19 23  1  0  0  0  0
 15 24  2  0  0  0  0
 24 25  1  0  0  0  0
 14 26  1  0  0  0  0
 26 27  2  0  0  0  0
 27 28  1  0  0  0  0
 27 29  1  0  0  0  0
 29 30  2  0  0  0  0
 30 31  1  0  0  0  0
 31 32  2  0  0  0  0
 32 33  1  0  0  0  0
 33 34  2  0  0  0  0
 34 35  1  0  0  0  0
 35 36  2  0  0  0  0
 36 37  1  0  0  0  0
 37 38  1  0  0  0  0
 38 39  1  0  0  0  0
 36 40  1  0  0  0  0
 40 41  1  0  0  0  0
 40 42  2  0  0  0  0
 32 43  1  0  0  0  0
 43 44  2  0  0  0  0
 44 45  1  0  0  0  0
 45 46  1  0  0  0  0
 46 47  2  0  0  0  0
 47 48  1  0  0  0  0
 48 49  2  0  0  0  0
 49 50  1  0  0  0  0
 50 51  1  0  0  0  0
 51 52  1  0  0  0  0
 49 53  1  0  0  0  0
 53 54  2  0  0  0  0
 53 55  1  0  0  0  0
 45 56  2  0  0  0  0
 56 57  1  0  0  0  0
 44 58  1  0  0  0  0
 58 59  2  0  0  0  0
 59 60  1  0  0  0  0
 59 61  1  0  0  0  0
 61 62  2  0  0  0  0
 62 63  1  0  0  0  0
 63 64  2  0  0  0  0
 64 65  1  0  0  0  0
 65 66  2  0  0  0  0
 66 67  1  0  0  0  0
 67 68  2  0  0  0  0
 68 69  1  0  0  0  0
 69 70  1  0  0  0  0
 70 71  1  0  0  0  0
 68 72  1  0  0  0  0
 64 73  1  0  0  0  0
 73 74  2  0  0  0  0
 74 75  1  0  0  0  0
 75 76  1  0  0  0  0
 76 77  2  0  0  0  0
 77 78  1  0  0  0  0
 78 79  2  0  0  0  0
 79 80  1  0  0  0  0
 80 81  1  0  0  0  0
 81 82  1  0  0  0  0
 79 83  1  0  0  0  0
 75 84  2  0  0  0  0
 84 85  1  0  0  0  0
 74 86  1  0  0  0  0
 86 87  2  0  0  0  0
 87 88  1  0  0  0  0
 87 89  1  0  0  0  0
 89 90  2  0  0  0  0
 90 91  1  0  0  0  0
 91 92  2  0  0  0  0
 92 93  1  0  0  0  0
 93 94  2  0  0  0  0
 94 95  1  0  0  0  0
 95 96  2  0  0  0  0
 96 97  1  0  0  0  0
 97 98  1  0  0  0  0
 98 99  1  0  0  0  0
 96100  1  0  0  0  0
100101  1  0  0  0  0
100102  2  0  0  0  0
 92103  1  0  0  0  0
103104  2  0  0  0  0
104105  1  0  0  0  0
105106  1  0  0  0  0
106107  2  0  0  0  0
107108  1  0  0  0  0
108109  2  0  0  0  0
109110  1  0  0  0  0
110111  1  0  0  0  0
111112  1  0  0  0  0
109113  1  0  0  0  0
113114  2  0  0  0  0
113115  1  0  0  0  0
105116  2  0  0  0  0
116117  1  0  0  0  0
104118  1  0  0  0  0
118119  2  0  0  0  0
119120  1  0  0  0  0
119121  1  0  0  0  0
121122  2  0  0  0  0
122123  1  0  0  0  0
123124  2  0  0  0  0
124125  1  0  0  0  0
125126  2  0  0  0  0
126127  1  0  0  0  0
127128  2  0  0  0  0
128129  1  0  0  0  0
129130  1  0  0  0  0
130131  1  0  0  0  0
128132  1  0  0  0  0
124133  1  0  0  0  0
133134  2  0  0  0  0
134135  1  0  0  0  0
135136  1  0  0  0  0
136137  2  0  0  0  0
137138  1  0  0  0  0
138139  2  0  0  0  0
139140  1  0  0  0  0
140141  1  0  0  0  0
141142  1  0  0  0  0
139143  1  0  0  0  0
135144  2  0  0  0  0
144145  1  0  0  0  0
134146  1  0  0  0  0
146147  2  0  0  0  0
147148  1  0  0  0  0
147149  1  0  0  0  0
149150  2  0  0  0  0
150151  1  0  0  0  0
151152  2  0  0  0  0
152153  1  0  0  0  0
153154  2  0  0  0  0
154155  1  0  0  0  0
155156  2  0  0  0  0
156157  1  0  0  0  0
157158  1  0  0  0  0
158159  1  0  0  0  0
156160  1  0  0  0  0
152161  1  0  0  0  0
161162  2  0  0  0  0
162163  1  0  0  0  0
163164  1  0  0  0  0
164165  2  0  0  0  0
165166  1  0  0  0  0
166167  2  0  0  0  0
167168  1  0  0  0  0
168169  1  0  0  0  0
169170  1  0  0  0  0
167171  1  0  0  0  0
163172  2  0  0  0  0
172173  1  0  0  0  0
162174  1  0  0  0  0
174175  2  0  0  0  0
175176  1  0  0  0  0
 25  1  1  0  0  0  0
 57 29  1  0  0  0  0
 85 61  1  0  0  0  0
117 89  1  0  0  0  0
145121  1  0  0  0  0
173149  1  0  0  0  0
 24  3  1  0  0  0  0
 56 31  1  0  0  0  0
 84 63  1  0  0  0  0
116 91  1  0  0  0  0
144123  1  0  0  0  0
172151  1  0  0  0  0
 12  5  1  0  0  0  0
 28 13  1  0  0  0  0
 42 33  1  0  0  0  0
 60 43  1  0  0  0  0
 72 65  1  0  0  0  0
 88 73  1  0  0  0  0
102 93  1  0  0  0  0
120103  1  0  0  0  0
132125  1  0  0  0  0
148133  1  0  0  0  0
160153  1  0  0  0  0
176161  1  0  0  0  0
 23 16  1  0  0  0  0
 54 46  1  0  0  0  0
 83 76  1  0  0  0  0
114106  1  0  0  0  0
143136  1  0  0  0  0
171164  1  0  0  0  0
  1177  1  0  0  0  0
  2178  1  0  0  0  0
  6179  1  0  0  0  0
  7180  1  0  0  0  0
 10181  1  0  0  0  0
 10182  1  0  0  0  0
 11183  1  0  0  0  0
 11184  1  0  0  0  0
 11185  1  0  0  0  0
 17186  1  0  0  0  0
 18187  1  0  0  0  0
 21188  1  0  0  0  0
 21189  1  0  0  0  0
 22190  1  0  0  0  0
 22191  1  0  0  0  0
 22192  1  0  0  0  0
 26193  1  0  0  0  0
 30194  1  0  0  0  0
 34195  1  0  0  0  0
 35196  1  0  0  0  0
 38197  1  0  0  0  0
 38198  1  0  0  0  0
 39199  1  0  0  0  0
 39200  1  0  0  0  0
 39201  1  0  0  0  0
 42202  1  0  0  0  0
 47203  1  0  0  0  0
 48204  1  0  0  0  0
 51205  1  0  0  0  0
 51206  1  0  0  0  0
 52207  1  0  0  0  0
 52208  1  0  0  0  0
 52209  1  0  0  0  0
 54210  1  0  0  0  0
 58211  1  0  0  0  0
 62212  1  0  0  0  0
 66213  1  0  0  0  0
 67214  1  0  0  0  0
 70215  1  0  0  0  0
 70216  1  0  0  0  0
 71217  1  0  0  0  0
 71218  1  0  0  0  0
 71219  1  0  0  0  0
 77220  1  0  0  0  0
 78221  1  0  0  0  0
 81222  1  0  0  0  0
 81223  1  0  0  0  0
 82224  1  0  0  0  0
 82225  1  0  0  0  0
 82226  1  0  0  0  0
 86227  1  0  0  0  0
 90228  1  0  0  0  0
 94229  1  0  0  0  0
 95230  1  0  0  0  0
 98231  1  0  0  0  0
 98232  1  0  0  0  0
 99233  1  0  0  0  0
 99234  1  0  0  0  0
 99235  1  0  0  0  0
102236  1  0  0  0  0
107237  1  0  0  0  0
108238  1  0  0  0  0
111239  1  0  0  0  0
111240  1  0  0  0  0
112241  1  0  0  0  0
112242  1  0  0  0  0
112243  1  0  0  0  0
114244  1  0  0  0  0
118245  1  0  0  0  0
122246  1  0  0  0  0
126247  1  0  0  0  0
127248  1  0  0  0  0
130249  1  0  0  0  0
130250  1  0  0  0  0
131251  1  0  0  0  0
131252  1  0  0  0  0
131253  1  0  0  0  0
137254  1  0  0  0  0
138255  1  0  0  0  0
141256  1  0  0  0  0
141257  1  0  0  0  0
142258  1  0  0  0  0
142259  1  0  0  0  0
142260  1  0  0  0  0
146261  1  0  0  0  0
150262  1  0  0  0  0
154263  1  0  0  0  0
155264  1  0  0  0  0
158265  1  0  0  0  0
158266  1  0  0  0  0
159267  1  0  0  0  0
159268  1  0  0  0  0
159269  1  0  0  0  0
165270  1  0  0  0  0
166271  1  0  0  0  0
169272  1  0  0  0  0
169273  1  0  0  0  0
170274  1  0  0  0  0
170275  1  0  0  0  0
170276  1  0  0  0  0
174277  1  0  0  0  0
175278  1  0  0  0  0
M  END
