
  xtb     03082200073D
 energy: -198.969329270473 gnorm: 0.000585913502 xtb: 6.4.1 (unknown)
121135  0     0  0            999 V2000
    2.5882   10.9890   13.0241 C   0  0  0  0  0  0  0  0  0  0  0  0
    3.9090   11.2521   12.9754 C   0  0  0  0  0  0  0  0  0  0  0  0
    4.4781   10.3853   11.9468 C   0  0  0  0  0  0  0  0  0  0  0  0
    5.5718    9.9864   11.2848 C   0  0  0  0  0  0  0  0  0  0  0  0
    5.0896    8.9321   10.3215 C   0  0  0  0  0  0  0  0  0  0  0  0
    3.7989    8.7407   10.4268 N   0  0  0  0  0  0  0  0  0  0  0  0
    3.3626    9.5981   11.4062 C   0  0  0  0  0  0  0  0  0  0  0  0
    2.2246    9.9534   12.0477 C   0  0  0  0  0  0  0  0  0  0  0  0
    6.0135    8.2833    9.4656 C   0  0  0  0  0  0  0  0  0  0  0  0
    5.8810    7.3033    8.5235 C   0  0  0  0  0  0  0  0  0  0  0  0
    4.7633    6.5852    8.0277 C   0  0  0  0  0  0  0  0  0  0  0  0
    4.8867    5.5855    7.0834 C   0  0  0  0  0  0  0  0  0  0  0  0
    3.5732    5.0758    6.8080 C   0  0  0  0  0  0  0  0  0  0  0  0
    2.8251    4.1857    6.1249 C   0  0  0  0  0  0  0  0  0  0  0  0
    1.4214    4.4538    6.5574 C   0  0  0  0  0  0  0  0  0  0  0  0
    1.3525    5.4314    7.4378 N   0  0  0  0  0  0  0  0  0  0  0  0
    2.6385    5.8494    7.6422 C   0  0  0  0  0  0  0  0  0  0  0  0
    3.3358    6.7470    8.3799 C   0  0  0  0  0  0  0  0  0  0  0  0
    0.2642    3.7787    6.1111 C   0  0  0  0  0  0  0  0  0  0  0  0
    0.2652    2.7171    5.2536 C   0  0  0  0  0  0  0  0  0  0  0  0
   -0.8826    2.0308    4.8039 C   0  0  0  0  0  0  0  0  0  0  0  0
   -0.7890    0.8501    3.9162 C   0  0  0  0  0  0  0  0  0  0  0  0
   -2.0350    0.4389    3.6659 C   0  0  0  0  0  0  0  0  0  0  0  0
   -2.8831   -0.5340    2.9398 C   0  0  0  0  0  0  0  0  0  0  0  0
   -4.2583   -0.1516    3.5088 C   0  0  0  0  0  0  0  0  0  0  0  0
   -4.2336    0.9682    4.2566 N   0  0  0  0  0  0  0  0  0  0  0  0
   -2.9744    1.3302    4.3839 C   0  0  0  0  0  0  0  0  0  0  0  0
   -2.2213    2.3030    5.0676 C   0  0  0  0  0  0  0  0  0  0  0  0
   -5.3431   -0.9709    3.3208 C   0  0  0  0  0  0  0  0  0  0  0  0
   -5.1620   -2.2136    2.6836 C   0  0  0  0  0  0  0  0  0  0  0  0
   -3.8995   -2.7300    2.5288 C   0  0  0  0  0  0  0  0  0  0  0  0
   -3.4648   -3.8062    1.7254 C   0  0  0  0  0  0  0  0  0  0  0  0
   -2.0894   -3.8102    1.6760 C   0  0  0  0  0  0  0  0  0  0  0  0
   -0.9404   -4.3855    1.1004 C   0  0  0  0  0  0  0  0  0  0  0  0
    0.1277   -3.6463    1.5850 C   0  0  0  0  0  0  0  0  0  0  0  0
   -0.2842   -2.6439    2.4906 N   0  0  0  0  0  0  0  0  0  0  0  0
   -1.5702   -2.7228    2.5169 C   0  0  0  0  0  0  0  0  0  0  0  0
   -2.7048   -2.0311    3.1728 C   0  0  0  0  0  0  0  0  0  0  0  0
    1.5311   -3.7922    1.3200 C   0  0  0  0  0  0  0  0  0  0  0  0
    2.1323   -4.0321    0.1347 C   0  0  0  0  0  0  0  0  0  0  0  0
    1.5234   -3.9816   -1.1592 C   0  0  0  0  0  0  0  0  0  0  0  0
    0.3111   -3.4659   -1.5145 C   0  0  0  0  0  0  0  0  0  0  0  0
    0.0381   -3.4967   -2.8965 C   0  0  0  0  0  0  0  0  0  0  0  0
   -1.1631   -3.1185   -3.5355 C   0  0  0  0  0  0  0  0  0  0  0  0
   -2.3115   -2.6097   -2.8107 C   0  0  0  0  0  0  0  0  0  0  0  0
   -3.6234   -2.8738   -3.0947 C   0  0  0  0  0  0  0  0  0  0  0  0
   -4.5859   -2.2256   -2.2934 C   0  0  0  0  0  0  0  0  0  0  0  0
   -4.0685   -1.3916   -1.3477 C   0  0  0  0  0  0  0  0  0  0  0  0
   -4.8825   -0.4007   -0.1553 S   0  0  0  0  0  0  0  0  0  0  0  0
   -6.5925   -0.3147   -0.7894 C   0  0  0  0  0  0  0  0  0  0  0  0
   -6.6936    0.5012   -2.0626 C   0  0  0  0  0  0  0  0  0  0  0  0
   -2.1965   -1.3785   -1.3714 Se  0  0  0  0  0  2  0  0  0  0  0  0
   -1.1878   -3.2826   -4.9167 C   0  0  0  0  0  0  0  0  0  0  0  0
   -0.0987   -3.7993   -5.6655 C   0  0  0  0  0  0  0  0  0  0  0  0
    1.0839   -4.2201   -5.0147 C   0  0  0  0  0  0  0  0  0  0  0  0
    2.1968   -4.8155   -5.7200 C   0  0  0  0  0  0  0  0  0  0  0  0
    3.5275   -4.6439   -5.4559 C   0  0  0  0  0  0  0  0  0  0  0  0
    4.4186   -5.4226   -6.2187 C   0  0  0  0  0  0  0  0  0  0  0  0
    3.8305   -6.2682   -7.1141 C   0  0  0  0  0  0  0  0  0  0  0  0
    4.7215   -7.2605   -8.2444 S   0  0  0  0  0  0  0  0  0  0  0  0
    3.4970   -8.5647   -8.6170 C   0  0  0  0  0  0  0  0  0  0  0  0
    3.2874   -9.5012   -7.4451 C   0  0  0  0  0  0  0  0  0  0  0  0
    1.9539   -6.0935   -7.0885 Se  0  0  0  0  0  2  0  0  0  0  0  0
    1.1160   -4.0448   -3.6348 C   0  0  0  0  0  0  0  0  0  0  0  0
    2.4206   -4.5093   -2.5728 S   0  0  0  0  0  0  0  0  0  0  0  0
   -0.3560   -3.7711   -7.0539 C   0  0  0  0  0  0  0  0  0  0  0  0
   -1.5898   -3.2794   -7.3874 C   0  0  0  0  0  0  0  0  0  0  0  0
   -2.5031   -2.8246   -5.9632 S   0  0  0  0  0  0  0  0  0  0  0  0
   -2.1490   -3.1162   -8.6864 C   0  0  0  0  0  0  0  0  0  0  0  0
   -1.5820   -3.4351   -9.8867 C   0  0  0  0  0  0  0  0  0  0  0  0
   -2.5274   -3.0731  -10.9179 C   0  0  0  0  0  0  0  0  0  0  0  0
   -2.7878   -3.0143  -12.2362 C   0  0  0  0  0  0  0  0  0  0  0  0
   -4.1577   -2.4159  -12.3298 C   0  0  0  0  0  0  0  0  0  0  0  0
   -4.6669   -2.1418  -11.1656 N   0  0  0  0  0  0  0  0  0  0  0  0
   -3.7100   -2.5188  -10.2382 C   0  0  0  0  0  0  0  0  0  0  0  0
   -3.5020   -2.5349   -8.9112 C   0  0  0  0  0  0  0  0  0  0  0  0
   -4.8785   -2.1482  -13.5441 C   0  0  0  0  0  0  0  0  0  0  0  0
   -4.4239   -2.3889  -14.7731 C   0  0  0  0  0  0  0  0  0  0  0  0
    1.8689   11.4530   13.6754 H   0  0  0  0  0  0  0  0  0  0  0  0
    4.4602   11.9583   13.5673 H   0  0  0  0  0  0  0  0  0  0  0  0
    6.5956   10.3009   11.3684 H   0  0  0  0  0  0  0  0  0  0  0  0
    1.2284    9.5780   11.9047 H   0  0  0  0  0  0  0  0  0  0  0  0
    7.0279    8.6406    9.6101 H   0  0  0  0  0  0  0  0  0  0  0  0
    6.8109    7.0007    8.0511 H   0  0  0  0  0  0  0  0  0  0  0  0
    5.8006    5.2446    6.6317 H   0  0  0  0  0  0  0  0  0  0  0  0
    3.1234    3.4391    5.4145 H   0  0  0  0  0  0  0  0  0  0  0  0
    2.9974    7.4615    9.1076 H   0  0  0  0  0  0  0  0  0  0  0  0
   -0.6677    4.1507    6.5113 H   0  0  0  0  0  0  0  0  0  0  0  0
    1.2099    2.3417    4.8821 H   0  0  0  0  0  0  0  0  0  0  0  0
    0.1350    0.4296    3.5665 H   0  0  0  0  0  0  0  0  0  0  0  0
   -2.8703   -0.3407    1.8580 H   0  0  0  0  0  0  0  0  0  0  0  0
   -2.6127    3.0933    5.6766 H   0  0  0  0  0  0  0  0  0  0  0  0
   -6.3210   -0.6556    3.6493 H   0  0  0  0  0  0  0  0  0  0  0  0
   -6.0213   -2.7555    2.3147 H   0  0  0  0  0  0  0  0  0  0  0  0
   -4.1290   -4.4674    1.1941 H   0  0  0  0  0  0  0  0  0  0  0  0
   -0.8837   -5.2197    0.4295 H   0  0  0  0  0  0  0  0  0  0  0  0
   -2.6933   -2.2191    4.2540 H   0  0  0  0  0  0  0  0  0  0  0  0
    2.1608   -3.6575    2.1909 H   0  0  0  0  0  0  0  0  0  0  0  0
    3.2007   -4.2068    0.1273 H   0  0  0  0  0  0  0  0  0  0  0  0
   -0.3677   -3.0664   -0.7850 H   0  0  0  0  0  0  0  0  0  0  0  0
   -3.9176   -3.5739   -3.8582 H   0  0  0  0  0  0  0  0  0  0  0  0
   -5.6399   -2.3929   -2.4316 H   0  0  0  0  0  0  0  0  0  0  0  0
   -7.1442    0.1551    0.0248 H   0  0  0  0  0  0  0  0  0  0  0  0
   -6.9539   -1.3342   -0.9195 H   0  0  0  0  0  0  0  0  0  0  0  0
   -6.1001    0.0549   -2.8577 H   0  0  0  0  0  0  0  0  0  0  0  0
   -6.3335    1.5128   -1.8906 H   0  0  0  0  0  0  0  0  0  0  0  0
   -7.7309    0.5502   -2.3878 H   0  0  0  0  0  0  0  0  0  0  0  0
    3.8801   -3.9354   -4.7261 H   0  0  0  0  0  0  0  0  0  0  0  0
    5.4870   -5.3679   -6.1022 H   0  0  0  0  0  0  0  0  0  0  0  0
    3.9048   -9.0902   -9.4797 H   0  0  0  0  0  0  0  0  0  0  0  0
    2.5683   -8.0632   -8.9076 H   0  0  0  0  0  0  0  0  0  0  0  0
    4.2263   -9.9726   -7.1639 H   0  0  0  0  0  0  0  0  0  0  0  0
    2.9011   -8.9574   -6.5836 H   0  0  0  0  0  0  0  0  0  0  0  0
    2.5714  -10.2752   -7.7134 H   0  0  0  0  0  0  0  0  0  0  0  0
    0.3592   -4.0649   -7.8025 H   0  0  0  0  0  0  0  0  0  0  0  0
   -0.6165   -3.8730  -10.0527 H   0  0  0  0  0  0  0  0  0  0  0  0
   -2.1866   -3.3131  -13.0727 H   0  0  0  0  0  0  0  0  0  0  0  0
   -4.1436   -2.2044   -8.1158 H   0  0  0  0  0  0  0  0  0  0  0  0
   -5.8583   -1.7165  -13.3919 H   0  0  0  0  0  0  0  0  0  0  0  0
   -5.0153   -2.1630  -15.6437 H   0  0  0  0  0  0  0  0  0  0  0  0
   -3.4529   -2.8164  -14.9571 H   0  0  0  0  0  0  0  0  0  0  0  0
  1  2  2  0  0  0  0
  2  3  1  0  0  0  0
  3  4  2  0  0  0  0
  4  5  1  0  0  0  0
  5  6  2  0  0  0  0
  6  7  1  0  0  0  0
  7  8  2  0  0  0  0
  5  9  1  0  0  0  0
  9 10  2  0  0  0  0
 10 11  1  0  0  0  0
 11 12  2  0  0  0  0
 12 13  1  0  0  0  0
 13 14  2  0  0  0  0
 14 15  1  0  0  0  0
 15 16  2  0  0  0  0
 16 17  1  0  0  0  0
 17 18  2  0  0  0  0
 15 19  1  0  0  0  0
 19 20  2  0  0  0  0
 20 21  1  0  0  0  0
 21 22  2  0  0  0  0
 22 23  1  0  0  0  0
 23 24  2  0  0  0  0
 24 25  1  0  0  0  0
 25 26  2  0  0  0  0
 26 27  1  0  0  0  0
 27 28  2  0  0  0  0
 25 29  1  0  0  0  0
 29 30  2  0  0  0  0
 30 31  1  0  0  0  0
 31 32  2  0  0  0  0
 32 33  1  0  0  0  0
 33 34  2  0  0  0  0
 34 35  1  0  0  0  0
 35 36  2  0  0  0  0
 36 37  1  0  0  0  0
 37 38  2  0  0  0  0
 35 39  1  0  0  0  0
 39 40  2  0  0  0  0
 40 41  1  0  0  0  0
 41 42  2  0  0  0  0
 42 43  1  0  0  0  0
 43 44  2  0  0  0  0
 44 45  1  0  0  0  0
 45 46  2  0  0  0  0
 46 47  1  0  0  0  0
 47 48  2  0  0  0  0
 48 49  1  0  0  0  0
 49 50  1  0  0  0  0
 50 51  1  0  0  0  0
 48 52  1  0  0  0  0
 44 53  1  0  0  0  0
 53 54  2  0  0  0  0
 54 55  1  0  0  0  0
 55 56  1  0  0  0  0
 56 57  2  0  0  0  0
 57 58  1  0  0  0  0
 58 59  2  0  0  0  0
 59 60  1  0  0  0  0
 60 61  1  0  0  0  0
 61 62  1  0  0  0  0
 59 63  1  0  0  0  0
 55 64  2  0  0  0  0
 64 65  1  0  0  0  0
 54 66  1  0  0  0  0
 66 67  2  0  0  0  0
 67 68  1  0  0  0  0
 67 69  1  0  0  0  0
 69 70  2  0  0  0  0
 70 71  1  0  0  0  0
 71 72  2  0  0  0  0
 72 73  1  0  0  0  0
 73 74  2  0  0  0  0
 74 75  1  0  0  0  0
 75 76  2  0  0  0  0
 73 77  1  0  0  0  0
 77 78  2  0  0  0  0
  8  1  1  0  0  0  0
 18 11  1  0  0  0  0
 28 21  1  0  0  0  0
 38 31  1  0  0  0  0
 65 41  1  0  0  0  0
 76 69  1  0  0  0  0
  7  3  1  0  0  0  0
 17 13  1  0  0  0  0
 27 23  1  0  0  0  0
 37 33  1  0  0  0  0
 64 43  1  0  0  0  0
 75 71  1  0  0  0  0
 52 45  1  0  0  0  0
 68 53  1  0  0  0  0
 63 56  1  0  0  0  0
  1 79  1  0  0  0  0
  2 80  1  0  0  0  0
  4 81  1  0  0  0  0
  8 82  1  0  0  0  0
  9 83  1  0  0  0  0
 10 84  1  0  0  0  0
 12 85  1  0  0  0  0
 14 86  1  0  0  0  0
 18 87  1  0  0  0  0
 19 88  1  0  0  0  0
 20 89  1  0  0  0  0
 22 90  1  0  0  0  0
 24 91  1  0  0  0  0
 28 92  1  0  0  0  0
 29 93  1  0  0  0  0
 30 94  1  0  0  0  0
 32 95  1  0  0  0  0
 34 96  1  0  0  0  0
 38 97  1  0  0  0  0
 39 98  1  0  0  0  0
 40 99  1  0  0  0  0
 42100  1  0  0  0  0
 46101  1  0  0  0  0
 47102  1  0  0  0  0
 50103  1  0  0  0  0
 50104  1  0  0  0  0
 51105  1  0  0  0  0
 51106  1  0  0  0  0
 51107  1  0  0  0  0
 57108  1  0  0  0  0
 58109  1  0  0  0  0
 61110  1  0  0  0  0
 61111  1  0  0  0  0
 62112  1  0  0  0  0
 62113  1  0  0  0  0
 62114  1  0  0  0  0
 66115  1  0  0  0  0
 70116  1  0  0  0  0
 72117  1  0  0  0  0
 76118  1  0  0  0  0
 77119  1  0  0  0  0
 78120  1  0  0  0  0
 78121  1  0  0  0  0
M  END
