
  xtb     03082204573D
 energy: -499.599565728785 gnorm: 0.000284214797 xtb: 6.4.1 (unknown)
290319  0     0  0            999 V2000
   -1.9540   -9.7668   10.7704 C   0  0  0  0  0  0  0  0  0  0  0  0
   -1.1333   -8.6989   10.8286 C   0  0  0  0  0  0  0  0  0  0  0  0
   -1.5013   -7.6591    9.9241 C   0  0  0  0  0  0  0  0  0  0  0  0
   -0.8424   -6.4357    9.6925 C   0  0  0  0  0  0  0  0  0  0  0  0
    0.4082   -6.0793   10.3305 C   0  0  0  0  0  0  0  0  0  0  0  0
    0.7731   -4.8451   10.7900 C   0  0  0  0  0  0  0  0  0  0  0  0
    2.0881   -4.7291   11.2816 C   0  0  0  0  0  0  0  0  0  0  0  0
    2.8349   -5.8691   11.2151 C   0  0  0  0  0  0  0  0  0  0  0  0
    4.4571   -6.0073   11.8532 S   0  0  0  0  0  0  0  0  0  0  0  0
    5.0958   -7.4340   10.9068 C   0  0  0  0  0  0  0  0  0  0  0  0
    5.3379   -7.0921    9.4511 C   0  0  0  0  0  0  0  0  0  0  0  0
    1.8356   -7.3011   10.5059 Se  0  0  0  0  0  2  0  0  0  0  0  0
   -1.4485   -5.5764    8.7796 C   0  0  0  0  0  0  0  0  0  0  0  0
   -2.6420   -5.8945    8.0917 C   0  0  0  0  0  0  0  0  0  0  0  0
   -3.2538   -7.1520    8.2573 C   0  0  0  0  0  0  0  0  0  0  0  0
   -4.3712   -7.5688    7.4403 C   0  0  0  0  0  0  0  0  0  0  0  0
   -5.4453   -8.3340    7.7950 C   0  0  0  0  0  0  0  0  0  0  0  0
   -6.3576   -8.6401    6.7662 C   0  0  0  0  0  0  0  0  0  0  0  0
   -6.0306   -8.1564    5.5322 C   0  0  0  0  0  0  0  0  0  0  0  0
   -6.9646   -8.4560    4.0856 S   0  0  0  0  0  0  0  0  0  0  0  0
   -6.2616   -7.2299    2.9261 C   0  0  0  0  0  0  0  0  0  0  0  0
   -6.6936   -5.8122    3.2388 C   0  0  0  0  0  0  0  0  0  0  0  0
   -4.4105   -7.2048    5.5876 Se  0  0  0  0  0  2  0  0  0  0  0  0
   -2.6720   -7.9926    9.2041 C   0  0  0  0  0  0  0  0  0  0  0  0
   -3.2370   -9.5871    9.6272 S   0  0  0  0  0  0  0  0  0  0  0  0
   -3.0633   -4.8358    7.2502 C   0  0  0  0  0  0  0  0  0  0  0  0
   -2.2010   -3.7826    7.2176 C   0  0  0  0  0  0  0  0  0  0  0  0
   -0.8288   -4.0215    8.2782 S   0  0  0  0  0  0  0  0  0  0  0  0
   -2.3125   -2.6273    6.3885 C   0  0  0  0  0  0  0  0  0  0  0  0
   -1.3265   -1.7672    6.0099 C   0  0  0  0  0  0  0  0  0  0  0  0
   -1.7388   -0.8231    5.0338 C   0  0  0  0  0  0  0  0  0  0  0  0
   -0.9307    0.1129    4.3582 C   0  0  0  0  0  0  0  0  0  0  0  0
    0.4079    0.4302    4.8628 C   0  0  0  0  0  0  0  0  0  0  0  0
    0.5757    0.6103    6.2363 C   0  0  0  0  0  0  0  0  0  0  0  0
    1.7903    0.9766    6.7764 C   0  0  0  0  0  0  0  0  0  0  0  0
    2.8922    1.1864    5.9561 C   0  0  0  0  0  0  0  0  0  0  0  0
    4.4832    1.6810    6.5150 S   0  0  0  0  0  0  0  0  0  0  0  0
    4.1761    2.1617    8.2573 C   0  0  0  0  0  0  0  0  0  0  0  0
    5.3954    2.8943    8.7840 C   0  0  0  0  0  0  0  0  0  0  0  0
    2.7201    0.9856    4.5863 C   0  0  0  0  0  0  0  0  0  0  0  0
    3.7837    1.1572    3.7738 F   0  0  0  0  0  0  0  0  0  0  0  0
    1.5125    0.6200    4.0345 C   0  0  0  0  0  0  0  0  0  0  0  0
   -1.5170    0.7444    3.2672 C   0  0  0  0  0  0  0  0  0  0  0  0
   -2.9055    0.6511    3.0010 C   0  0  0  0  0  0  0  0  0  0  0  0
   -3.7373   -0.2001    3.7460 C   0  0  0  0  0  0  0  0  0  0  0  0
   -5.1776   -0.2522    3.4710 C   0  0  0  0  0  0  0  0  0  0  0  0
   -5.9242    0.9262    3.4287 C   0  0  0  0  0  0  0  0  0  0  0  0
   -7.2702    0.8966    3.1400 C   0  0  0  0  0  0  0  0  0  0  0  0
   -7.9348   -0.3026    2.8805 C   0  0  0  0  0  0  0  0  0  0  0  0
   -9.6761   -0.1821    2.5894 S   0  0  0  0  0  0  0  0  0  0  0  0
  -10.0827   -1.5153    1.4009 C   0  0  0  0  0  0  0  0  0  0  0  0
   -9.3470   -1.3548    0.0874 C   0  0  0  0  0  0  0  0  0  0  0  0
   -7.1824   -1.4705    2.9508 C   0  0  0  0  0  0  0  0  0  0  0  0
   -5.8304   -1.4556    3.2331 C   0  0  0  0  0  0  0  0  0  0  0  0
   -7.7515   -2.6795    2.7358 F   0  0  0  0  0  0  0  0  0  0  0  0
   -3.1039   -0.9877    4.6913 C   0  0  0  0  0  0  0  0  0  0  0  0
   -3.8418   -2.2751    5.6043 S   0  0  0  0  0  0  0  0  0  0  0  0
   -3.2741    1.3743    1.8458 C   0  0  0  0  0  0  0  0  0  0  0  0
   -2.2210    1.9395    1.1901 C   0  0  0  0  0  0  0  0  0  0  0  0
   -0.7149    1.6961    2.0438 S   0  0  0  0  0  0  0  0  0  0  0  0
   -2.3006    2.4825   -0.1254 C   0  0  0  0  0  0  0  0  0  0  0  0
   -1.3267    2.7501   -1.0415 C   0  0  0  0  0  0  0  0  0  0  0  0
   -1.8274    3.0120   -2.3473 C   0  0  0  0  0  0  0  0  0  0  0  0
   -1.1009    3.1206   -3.5589 C   0  0  0  0  0  0  0  0  0  0  0  0
    0.3379    3.2632   -3.5472 C   0  0  0  0  0  0  0  0  0  0  0  0
    1.0632    3.9887   -2.6392 C   0  0  0  0  0  0  0  0  0  0  0  0
    2.4525    4.0474   -2.8529 C   0  0  0  0  0  0  0  0  0  0  0  0
    2.8970    3.3546   -3.9405 C   0  0  0  0  0  0  0  0  0  0  0  0
    4.5688    3.2560   -4.4363 S   0  0  0  0  0  0  0  0  0  0  0  0
    4.3560    3.3163   -6.2615 C   0  0  0  0  0  0  0  0  0  0  0  0
    5.6613    3.7175   -6.9152 C   0  0  0  0  0  0  0  0  0  0  0  0
    1.4796    2.4745   -4.8280 Se  0  0  0  0  0  2  0  0  0  0  0  0
   -1.8515    3.0294   -4.7294 C   0  0  0  0  0  0  0  0  0  0  0  0
   -3.2661    2.9496   -4.7523 C   0  0  0  0  0  0  0  0  0  0  0  0
   -3.9939    2.8960   -3.5503 C   0  0  0  0  0  0  0  0  0  0  0  0
   -5.4077    2.5774   -3.5046 C   0  0  0  0  0  0  0  0  0  0  0  0
   -6.0616    1.6002   -4.2043 C   0  0  0  0  0  0  0  0  0  0  0  0
   -7.4157    1.3997   -3.8723 C   0  0  0  0  0  0  0  0  0  0  0  0
   -7.8963    2.2145   -2.8864 C   0  0  0  0  0  0  0  0  0  0  0  0
   -9.5438    2.1582   -2.3024 S   0  0  0  0  0  0  0  0  0  0  0  0
   -9.5011    3.3542   -0.9196 C   0  0  0  0  0  0  0  0  0  0  0  0
   -8.8632    2.7848    0.3313 C   0  0  0  0  0  0  0  0  0  0  0  0
   -6.5685    3.4058   -2.2757 Se  0  0  0  0  0  2  0  0  0  0  0  0
   -3.2387    2.9348   -2.3838 C   0  0  0  0  0  0  0  0  0  0  0  0
   -3.9075    2.6259   -0.8099 S   0  0  0  0  0  0  0  0  0  0  0  0
   -3.7723    2.6867   -6.0453 C   0  0  0  0  0  0  0  0  0  0  0  0
   -2.8070    2.4239   -6.9739 C   0  0  0  0  0  0  0  0  0  0  0  0
   -1.1986    2.7971   -6.3362 S   0  0  0  0  0  0  0  0  0  0  0  0
   -2.9259    1.4106   -7.9785 C   0  0  0  0  0  0  0  0  0  0  0  0
   -1.9415    0.8461   -8.7350 C   0  0  0  0  0  0  0  0  0  0  0  0
   -2.0394   -0.5750   -8.8138 C   0  0  0  0  0  0  0  0  0  0  0  0
   -0.9655   -1.4393   -9.0648 C   0  0  0  0  0  0  0  0  0  0  0  0
    0.2961   -0.9509   -9.6617 C   0  0  0  0  0  0  0  0  0  0  0  0
    0.5712   -1.0700  -11.0169 C   0  0  0  0  0  0  0  0  0  0  0  0
    1.7929   -0.6609  -11.5166 C   0  0  0  0  0  0  0  0  0  0  0  0
    2.7628   -0.1166  -10.6832 C   0  0  0  0  0  0  0  0  0  0  0  0
    4.3230    0.3638  -11.3785 S   0  0  0  0  0  0  0  0  0  0  0  0
    5.4761   -0.5644  -10.2994 C   0  0  0  0  0  0  0  0  0  0  0  0
    5.2443   -2.0597  -10.3706 C   0  0  0  0  0  0  0  0  0  0  0  0
    2.4518    0.0416   -9.3369 C   0  0  0  0  0  0  0  0  0  0  0  0
    3.3333    0.6202   -8.4912 F   0  0  0  0  0  0  0  0  0  0  0  0
    1.2453   -0.3806   -8.8195 C   0  0  0  0  0  0  0  0  0  0  0  0
   -0.9915   -2.6663   -8.4275 C   0  0  0  0  0  0  0  0  0  0  0  0
   -2.0257   -3.0676   -7.5416 C   0  0  0  0  0  0  0  0  0  0  0  0
   -3.1730   -2.2686   -7.4181 C   0  0  0  0  0  0  0  0  0  0  0  0
   -4.1034   -2.3658   -6.2733 C   0  0  0  0  0  0  0  0  0  0  0  0
   -3.5782   -2.1273   -5.0046 C   0  0  0  0  0  0  0  0  0  0  0  0
   -4.3988   -1.9560   -3.9083 C   0  0  0  0  0  0  0  0  0  0  0  0
   -5.7814   -2.0107   -4.0420 C   0  0  0  0  0  0  0  0  0  0  0  0
   -6.9255   -1.7198   -2.7339 S   0  0  0  0  0  0  0  0  0  0  0  0
   -5.9469   -0.8174   -1.4793 C   0  0  0  0  0  0  0  0  0  0  0  0
   -5.3384   -1.7356   -0.4374 C   0  0  0  0  0  0  0  0  0  0  0  0
   -6.2913   -2.2971   -5.3100 C   0  0  0  0  0  0  0  0  0  0  0  0
   -5.4823   -2.4606   -6.4162 C   0  0  0  0  0  0  0  0  0  0  0  0
   -7.6259   -2.3786   -5.4746 F   0  0  0  0  0  0  0  0  0  0  0  0
   -3.1631   -1.0624   -8.1001 C   0  0  0  0  0  0  0  0  0  0  0  0
   -4.2328    0.2475   -7.6570 S   0  0  0  0  0  0  0  0  0  0  0  0
   -1.5583   -3.9980   -6.5754 C   0  0  0  0  0  0  0  0  0  0  0  0
   -0.2107   -4.2209   -6.6488 C   0  0  0  0  0  0  0  0  0  0  0  0
    0.4631   -3.6051   -8.1650 S   0  0  0  0  0  0  0  0  0  0  0  0
    0.6631   -4.2866   -5.5192 C   0  0  0  0  0  0  0  0  0  0  0  0
    1.9160   -3.7395   -5.5162 C   0  0  0  0  0  0  0  0  0  0  0  0
    2.2686   -3.1357   -4.2853 C   0  0  0  0  0  0  0  0  0  0  0  0
    3.2699   -2.1709   -4.1052 C   0  0  0  0  0  0  0  0  0  0  0  0
    4.3111   -1.9249   -5.1085 C   0  0  0  0  0  0  0  0  0  0  0  0
    4.5641   -0.6384   -5.5773 C   0  0  0  0  0  0  0  0  0  0  0  0
    5.6135   -0.3859   -6.4365 C   0  0  0  0  0  0  0  0  0  0  0  0
    6.4516   -1.4125   -6.8566 C   0  0  0  0  0  0  0  0  0  0  0  0
    7.8662   -1.1981   -7.8872 S   0  0  0  0  0  0  0  0  0  0  0  0
    8.2576    0.5789   -7.7202 C   0  0  0  0  0  0  0  0  0  0  0  0
    8.6899    0.9494   -6.3148 C   0  0  0  0  0  0  0  0  0  0  0  0
    6.1409   -2.7074   -6.4392 C   0  0  0  0  0  0  0  0  0  0  0  0
    6.8992   -3.7356   -6.8723 F   0  0  0  0  0  0  0  0  0  0  0  0
    5.0959   -2.9740   -5.5829 C   0  0  0  0  0  0  0  0  0  0  0  0
    3.1719   -1.3915   -2.9626 C   0  0  0  0  0  0  0  0  0  0  0  0
    2.1899   -1.5812   -1.9585 C   0  0  0  0  0  0  0  0  0  0  0  0
    1.2431   -2.6136   -2.1038 C   0  0  0  0  0  0  0  0  0  0  0  0
    0.2020   -2.8581   -1.0979 C   0  0  0  0  0  0  0  0  0  0  0  0
    0.0137   -4.1311   -0.5677 C   0  0  0  0  0  0  0  0  0  0  0  0
   -0.9381   -4.3719    0.4059 C   0  0  0  0  0  0  0  0  0  0  0  0
   -1.7459   -3.3430    0.8736 C   0  0  0  0  0  0  0  0  0  0  0  0
   -2.9998   -3.4790    2.1035 S   0  0  0  0  0  0  0  0  0  0  0  0
   -2.7372   -5.1058    2.8850 C   0  0  0  0  0  0  0  0  0  0  0  0
   -1.4936   -5.1549    3.7495 C   0  0  0  0  0  0  0  0  0  0  0  0
   -1.5754   -2.0843    0.2973 C   0  0  0  0  0  0  0  0  0  0  0  0
   -0.6243   -1.8255   -0.6610 C   0  0  0  0  0  0  0  0  0  0  0  0
   -2.3824   -1.0763    0.6882 F   0  0  0  0  0  0  0  0  0  0  0  0
    1.2829   -3.3325   -3.2877 C   0  0  0  0  0  0  0  0  0  0  0  0
   -0.0153   -4.3472   -3.8888 S   0  0  0  0  0  0  0  0  0  0  0  0
    2.2795   -0.5896   -0.9440 C   0  0  0  0  0  0  0  0  0  0  0  0
    3.2550    0.3346   -1.1748 C   0  0  0  0  0  0  0  0  0  0  0  0
    4.1818   -0.0210   -2.6176 S   0  0  0  0  0  0  0  0  0  0  0  0
    3.5845    1.5420   -0.4901 C   0  0  0  0  0  0  0  0  0  0  0  0
    4.4944    2.4519   -0.9368 C   0  0  0  0  0  0  0  0  0  0  0  0
    4.6165    3.5914   -0.1091 C   0  0  0  0  0  0  0  0  0  0  0  0
    5.4307    4.7116   -0.3333 C   0  0  0  0  0  0  0  0  0  0  0  0
    6.2859    4.7730   -1.5260 C   0  0  0  0  0  0  0  0  0  0  0  0
    7.1681    3.7349   -1.8227 C   0  0  0  0  0  0  0  0  0  0  0  0
    7.9291    3.7652   -2.9703 C   0  0  0  0  0  0  0  0  0  0  0  0
    7.8320    4.8228   -3.8714 C   0  0  0  0  0  0  0  0  0  0  0  0
    8.8065    4.7361   -5.3438 S   0  0  0  0  0  0  0  0  0  0  0  0
    9.2914    6.4832   -5.6418 C   0  0  0  0  0  0  0  0  0  0  0  0
   10.5932    6.5090   -6.4176 C   0  0  0  0  0  0  0  0  0  0  0  0
    6.9427    5.8476   -3.5681 C   0  0  0  0  0  0  0  0  0  0  0  0
    6.7675    6.8830   -4.4206 F   0  0  0  0  0  0  0  0  0  0  0  0
    6.1931    5.8421   -2.4091 C   0  0  0  0  0  0  0  0  0  0  0  0
    5.3466    5.7298    0.6021 C   0  0  0  0  0  0  0  0  0  0  0  0
    4.5425    5.6399    1.7644 C   0  0  0  0  0  0  0  0  0  0  0  0
    3.7392    4.5104    1.9935 C   0  0  0  0  0  0  0  0  0  0  0  0
    2.9629    4.3895    3.2343 C   0  0  0  0  0  0  0  0  0  0  0  0
    3.5882    4.5797    4.4667 C   0  0  0  0  0  0  0  0  0  0  0  0
    2.8694    4.5014    5.6373 C   0  0  0  0  0  0  0  0  0  0  0  0
    1.5033    4.2165    5.6383 C   0  0  0  0  0  0  0  0  0  0  0  0
    0.7438    4.1140    7.2327 S   0  0  0  0  0  0  0  0  0  0  0  0
   -1.0427    4.4529    7.0088 C   0  0  0  0  0  0  0  0  0  0  0  0
   -1.8786    3.1909    6.9244 C   0  0  0  0  0  0  0  0  0  0  0  0
    0.9008    4.0047    4.4050 C   0  0  0  0  0  0  0  0  0  0  0  0
    1.6066    4.0939    3.2204 C   0  0  0  0  0  0  0  0  0  0  0  0
   -0.4190    3.7225    4.3165 F   0  0  0  0  0  0  0  0  0  0  0  0
    3.7588    3.5245    1.0167 C   0  0  0  0  0  0  0  0  0  0  0  0
    2.8125    2.0580    0.9930 S   0  0  0  0  0  0  0  0  0  0  0  0
    4.6535    6.8183    2.5632 C   0  0  0  0  0  0  0  0  0  0  0  0
    5.5022    7.7289    2.0459 C   0  0  0  0  0  0  0  0  0  0  0  0
    6.2289    7.2342    0.5549 S   0  0  0  0  0  0  0  0  0  0  0  0
   -1.9019  -10.6708   11.3448 H   0  0  0  0  0  0  0  0  0  0  0  0
   -0.3038   -8.6355   11.5122 H   0  0  0  0  0  0  0  0  0  0  0  0
    0.0899   -4.0128   10.8025 H   0  0  0  0  0  0  0  0  0  0  0  0
    2.4846   -3.8093   11.6752 H   0  0  0  0  0  0  0  0  0  0  0  0
    4.3713   -8.2470   11.0186 H   0  0  0  0  0  0  0  0  0  0  0  0
    6.0215   -7.7085   11.4112 H   0  0  0  0  0  0  0  0  0  0  0  0
    6.0413   -6.2669    9.3672 H   0  0  0  0  0  0  0  0  0  0  0  0
    4.4067   -6.8043    8.9638 H   0  0  0  0  0  0  0  0  0  0  0  0
    5.7459   -7.9564    8.9313 H   0  0  0  0  0  0  0  0  0  0  0  0
   -5.6199   -8.6389    8.8128 H   0  0  0  0  0  0  0  0  0  0  0  0
   -7.2559   -9.2079    6.9354 H   0  0  0  0  0  0  0  0  0  0  0  0
   -5.1728   -7.3440    2.9642 H   0  0  0  0  0  0  0  0  0  0  0  0
   -6.6193   -7.5447    1.9464 H   0  0  0  0  0  0  0  0  0  0  0  0
   -6.2736   -5.1272    2.5058 H   0  0  0  0  0  0  0  0  0  0  0  0
   -7.7766   -5.7266    3.2090 H   0  0  0  0  0  0  0  0  0  0  0  0
   -6.3527   -5.5101    4.2299 H   0  0  0  0  0  0  0  0  0  0  0  0
   -3.9863   -4.8273    6.6952 H   0  0  0  0  0  0  0  0  0  0  0  0
   -0.3156   -1.8576    6.3668 H   0  0  0  0  0  0  0  0  0  0  0  0
   -0.2700    0.4893    6.8954 H   0  0  0  0  0  0  0  0  0  0  0  0
    1.8678    1.1087    7.8424 H   0  0  0  0  0  0  0  0  0  0  0  0
    3.2953    2.8041    8.2723 H   0  0  0  0  0  0  0  0  0  0  0  0
    3.9908    1.2547    8.8329 H   0  0  0  0  0  0  0  0  0  0  0  0
    5.2286    3.1927    9.8168 H   0  0  0  0  0  0  0  0  0  0  0  0
    6.2733    2.2539    8.7425 H   0  0  0  0  0  0  0  0  0  0  0  0
    5.5920    3.7841    8.1904 H   0  0  0  0  0  0  0  0  0  0  0  0
    1.4486    0.4758    2.9685 H   0  0  0  0  0  0  0  0  0  0  0  0
   -5.4424    1.8698    3.6355 H   0  0  0  0  0  0  0  0  0  0  0  0
   -7.8423    1.8106    3.1114 H   0  0  0  0  0  0  0  0  0  0  0  0
   -9.8805   -2.4758    1.8691 H   0  0  0  0  0  0  0  0  0  0  0  0
  -11.1590   -1.4049    1.2677 H   0  0  0  0  0  0  0  0  0  0  0  0
   -9.6344   -2.1490   -0.5978 H   0  0  0  0  0  0  0  0  0  0  0  0
   -9.5807   -0.4002   -0.3789 H   0  0  0  0  0  0  0  0  0  0  0  0
   -8.2731   -1.4133    0.2440 H   0  0  0  0  0  0  0  0  0  0  0  0
   -5.2930   -2.3900    3.2443 H   0  0  0  0  0  0  0  0  0  0  0  0
   -4.2774    1.3943    1.4597 H   0  0  0  0  0  0  0  0  0  0  0  0
   -0.2798    2.6730   -0.8053 H   0  0  0  0  0  0  0  0  0  0  0  0
    0.5895    4.5550   -1.8547 H   0  0  0  0  0  0  0  0  0  0  0  0
    3.1145    4.6280   -2.2343 H   0  0  0  0  0  0  0  0  0  0  0  0
    3.5716    4.0476   -6.4625 H   0  0  0  0  0  0  0  0  0  0  0  0
    4.0216    2.3294   -6.5889 H   0  0  0  0  0  0  0  0  0  0  0  0
    5.9212    4.7382   -6.6463 H   0  0  0  0  0  0  0  0  0  0  0  0
    6.4716    3.0691   -6.5894 H   0  0  0  0  0  0  0  0  0  0  0  0
    5.5663    3.6552   -7.9973 H   0  0  0  0  0  0  0  0  0  0  0  0
   -5.5592    0.9678   -4.9187 H   0  0  0  0  0  0  0  0  0  0  0  0
   -8.0233    0.6440   -4.3386 H   0  0  0  0  0  0  0  0  0  0  0  0
   -8.9677    4.2393   -1.2809 H   0  0  0  0  0  0  0  0  0  0  0  0
  -10.5451    3.6128   -0.7457 H   0  0  0  0  0  0  0  0  0  0  0  0
   -9.4247    1.9272    0.6932 H   0  0  0  0  0  0  0  0  0  0  0  0
   -8.8501    3.5450    1.1094 H   0  0  0  0  0  0  0  0  0  0  0  0
   -7.8355    2.4750    0.1371 H   0  0  0  0  0  0  0  0  0  0  0  0
   -4.8193    2.5707   -6.2580 H   0  0  0  0  0  0  0  0  0  0  0  0
   -1.0636    1.3819   -9.0520 H   0  0  0  0  0  0  0  0  0  0  0  0
   -0.1662   -1.5004  -11.6770 H   0  0  0  0  0  0  0  0  0  0  0  0
    2.0190   -0.7676  -12.5659 H   0  0  0  0  0  0  0  0  0  0  0  0
    5.3709   -0.1904   -9.2840 H   0  0  0  0  0  0  0  0  0  0  0  0
    6.4622   -0.3010  -10.6799 H   0  0  0  0  0  0  0  0  0  0  0  0
    5.3101   -2.4079  -11.3988 H   0  0  0  0  0  0  0  0  0  0  0  0
    4.2623   -2.3203   -9.9775 H   0  0  0  0  0  0  0  0  0  0  0  0
    6.0014   -2.5722   -9.7806 H   0  0  0  0  0  0  0  0  0  0  0  0
    1.0498   -0.2536   -7.7647 H   0  0  0  0  0  0  0  0  0  0  0  0
   -2.5092   -2.0344   -4.8793 H   0  0  0  0  0  0  0  0  0  0  0  0
   -3.9490   -1.7569   -2.9494 H   0  0  0  0  0  0  0  0  0  0  0  0
   -5.1991   -0.2218   -2.0006 H   0  0  0  0  0  0  0  0  0  0  0  0
   -6.6672   -0.1372   -1.0230 H   0  0  0  0  0  0  0  0  0  0  0  0
   -6.1114   -2.3248    0.0506 H   0  0  0  0  0  0  0  0  0  0  0  0
   -4.8212   -1.1496    0.3192 H   0  0  0  0  0  0  0  0  0  0  0  0
   -4.6272   -2.4264   -0.8852 H   0  0  0  0  0  0  0  0  0  0  0  0
   -5.9344   -2.6381   -7.3793 H   0  0  0  0  0  0  0  0  0  0  0  0
   -2.1586   -4.3304   -5.7470 H   0  0  0  0  0  0  0  0  0  0  0  0
    2.4932   -3.6041   -6.4138 H   0  0  0  0  0  0  0  0  0  0  0  0
    3.9211    0.1765   -5.2781 H   0  0  0  0  0  0  0  0  0  0  0  0
    5.7761    0.6226   -6.7771 H   0  0  0  0  0  0  0  0  0  0  0  0
    9.0743    0.7216   -8.4276 H   0  0  0  0  0  0  0  0  0  0  0  0
    7.4016    1.1599   -8.0610 H   0  0  0  0  0  0  0  0  0  0  0  0
    7.8943    0.7625   -5.5960 H   0  0  0  0  0  0  0  0  0  0  0  0
    8.9508    2.0056   -6.2748 H   0  0  0  0  0  0  0  0  0  0  0  0
    9.5595    0.3645   -6.0241 H   0  0  0  0  0  0  0  0  0  0  0  0
    4.9214   -3.9892   -5.2617 H   0  0  0  0  0  0  0  0  0  0  0  0
    0.6349   -4.9446   -0.9106 H   0  0  0  0  0  0  0  0  0  0  0  0
   -1.0475   -5.3714    0.7946 H   0  0  0  0  0  0  0  0  0  0  0  0
   -2.7380   -5.8699    2.1084 H   0  0  0  0  0  0  0  0  0  0  0  0
   -3.6300   -5.2314    3.5024 H   0  0  0  0  0  0  0  0  0  0  0  0
   -0.5882   -5.0793    3.1514 H   0  0  0  0  0  0  0  0  0  0  0  0
   -1.4744   -6.0942    4.3018 H   0  0  0  0  0  0  0  0  0  0  0  0
   -1.5009   -4.3365    4.4652 H   0  0  0  0  0  0  0  0  0  0  0  0
   -0.5493   -0.8319   -1.0755 H   0  0  0  0  0  0  0  0  0  0  0  0
    1.6313   -0.5456   -0.0870 H   0  0  0  0  0  0  0  0  0  0  0  0
    5.0425    2.3265   -1.8530 H   0  0  0  0  0  0  0  0  0  0  0  0
    7.2714    2.9105   -1.1341 H   0  0  0  0  0  0  0  0  0  0  0  0
    8.6134    2.9619   -3.1944 H   0  0  0  0  0  0  0  0  0  0  0  0
    8.4920    6.9721   -6.1969 H   0  0  0  0  0  0  0  0  0  0  0  0
    9.4039    6.9529   -4.6658 H   0  0  0  0  0  0  0  0  0  0  0  0
   10.4754    6.0115   -7.3777 H   0  0  0  0  0  0  0  0  0  0  0  0
   10.8946    7.5394   -6.5933 H   0  0  0  0  0  0  0  0  0  0  0  0
   11.3798    6.0037   -5.8615 H   0  0  0  0  0  0  0  0  0  0  0  0
    5.5116    6.6592   -2.2298 H   0  0  0  0  0  0  0  0  0  0  0  0
    4.6490    4.7724    4.5028 H   0  0  0  0  0  0  0  0  0  0  0  0
    3.3566    4.6664    6.5856 H   0  0  0  0  0  0  0  0  0  0  0  0
   -1.3080    5.0321    7.8941 H   0  0  0  0  0  0  0  0  0  0  0  0
   -1.1553    5.0815    6.1293 H   0  0  0  0  0  0  0  0  0  0  0  0
   -1.7313    2.5807    7.8129 H   0  0  0  0  0  0  0  0  0  0  0  0
   -1.6157    2.6045    6.0483 H   0  0  0  0  0  0  0  0  0  0  0  0
   -2.9316    3.4577    6.8563 H   0  0  0  0  0  0  0  0  0  0  0  0
    1.0773    3.9363    2.2942 H   0  0  0  0  0  0  0  0  0  0  0  0
    4.1015    6.9693    3.4731 H   0  0  0  0  0  0  0  0  0  0  0  0
    5.7579    8.6918    2.4431 H   0  0  0  0  0  0  0  0  0  0  0  0
  1  2  2  0  0  0  0
  2  3  1  0  0  0  0
  3  4  2  0  0  0  0
  4  5  1  0  0  0  0
  5  6  2  0  0  0  0
  6  7  1  0  0  0  0
  7  8  2  0  0  0  0
  8  9  1  0  0  0  0
  9 10  1  0  0  0  0
 10 11  1  0  0  0  0
  8 12  1  0  0  0  0
  4 13  1  0  0  0  0
 13 14  2  0  0  0  0
 14 15  1  0  0  0  0
 15 16  1  0  0  0  0
 16 17  2  0  0  0  0
 17 18  1  0  0  0  0
 18 19  2  0  0  0  0
 19 20  1  0  0  0  0
 20 21  1  0  0  0  0
 21 22  1  0  0  0  0
 19 23  1  0  0  0  0
 15 24  2  0  0  0  0
 24 25  1  0  0  0  0
 14 26  1  0  0  0  0
 26 27  2  0  0  0  0
 27 28  1  0  0  0  0
 27 29  1  0  0  0  0
 29 30  2  0  0  0  0
 30 31  1  0  0  0  0
 31 32  2  0  0  0  0
 32 33  1  0  0  0  0
 33 34  2  0  0  0  0
 34 35  1  0  0  0  0
 35 36  2  0  0  0  0
 36 37  1  0  0  0  0
 37 38  1  0  0  0  0
 38 39  1  0  0  0  0
 36 40  1  0  0  0  0
 40 41  1  0  0  0  0
 40 42  2  0  0  0  0
 32 43  1  0  0  0  0
 43 44  2  0  0  0  0
 44 45  1  0  0  0  0
 45 46  1  0  0  0  0
 46 47  2  0  0  0  0
 47 48  1  0  0  0  0
 48 49  2  0  0  0  0
 49 50  1  0  0  0  0
 50 51  1  0  0  0  0
 51 52  1  0  0  0  0
 49 53  1  0  0  0  0
 53 54  2  0  0  0  0
 53 55  1  0  0  0  0
 45 56  2  0  0  0  0
 56 57  1  0  0  0  0
 44 58  1  0  0  0  0
 58 59  2  0  0  0  0
 59 60  1  0  0  0  0
 59 61  1  0  0  0  0
 61 62  2  0  0  0  0
 62 63  1  0  0  0  0
 63 64  2  0  0  0  0
 64 65  1  0  0  0  0
 65 66  2  0  0  0  0
 66 67  1  0  0  0  0
 67 68  2  0  0  0  0
 68 69  1  0  0  0  0
 69 70  1  0  0  0  0
 70 71  1  0  0  0  0
 68 72  1  0  0  0  0
 64 73  1  0  0  0  0
 73 74  2  0  0  0  0
 74 75  1  0  0  0  0
 75 76  1  0  0  0  0
 76 77  2  0  0  0  0
 77 78  1  0  0  0  0
 78 79  2  0  0  0  0
 79 80  1  0  0  0  0
 80 81  1  0  0  0  0
 81 82  1  0  0  0  0
 79 83  1  0  0  0  0
 75 84  2  0  0  0  0
 84 85  1  0  0  0  0
 74 86  1  0  0  0  0
 86 87  2  0  0  0  0
 87 88  1  0  0  0  0
 87 89  1  0  0  0  0
 89 90  2  0  0  0  0
 90 91  1  0  0  0  0
 91 92  2  0  0  0  0
 92 93  1  0  0  0  0
 93 94  2  0  0  0  0
 94 95  1  0  0  0  0
 95 96  2  0  0  0  0
 96 97  1  0  0  0  0
 97 98  1  0  0  0  0
 98 99  1  0  0  0  0
 96100  1  0  0  0  0
100101  1  0  0  0  0
100102  2  0  0  0  0
 92103  1  0  0  0  0
103104  2  0  0  0  0
104105  1  0  0  0  0
105106  1  0  0  0  0
106107  2  0  0  0  0
107108  1  0  0  0  0
108109  2  0  0  0  0
109110  1  0  0  0  0
110111  1  0  0  0  0
111112  1  0  0  0  0
109113  1  0  0  0  0
113114  2  0  0  0  0
113115  1  0  0  0  0
105116  2  0  0  0  0
116117  1  0  0  0  0
104118  1  0  0  0  0
118119  2  0  0  0  0
119120  1  0  0  0  0
119121  1  0  0  0  0
121122  2  0  0  0  0
122123  1  0  0  0  0
123124  2  0  0  0  0
124125  1  0  0  0  0
125126  2  0  0  0  0
126127  1  0  0  0  0
127128  2  0  0  0  0
128129  1  0  0  0  0
129130  1  0  0  0  0
130131  1  0  0  0  0
128132  1  0  0  0  0
132133  1  0  0  0  0
132134  2  0  0  0  0
124135  1  0  0  0  0
135136  2  0  0  0  0
136137  1  0  0  0  0
137138  1  0  0  0  0
138139  2  0  0  0  0
139140  1  0  0  0  0
140141  2  0  0  0  0
141142  1  0  0  0  0
142143  1  0  0  0  0
143144  1  0  0  0  0
141145  1  0  0  0  0
145146  2  0  0  0  0
145147  1  0  0  0  0
137148  2  0  0  0  0
148149  1  0  0  0  0
136150  1  0  0  0  0
150151  2  0  0  0  0
151152  1  0  0  0  0
151153  1  0  0  0  0
153154  2  0  0  0  0
154155  1  0  0  0  0
155156  2  0  0  0  0
156157  1  0  0  0  0
157158  2  0  0  0  0
158159  1  0  0  0  0
159160  2  0  0  0  0
160161  1  0  0  0  0
161162  1  0  0  0  0
162163  1  0  0  0  0
160164  1  0  0  0  0
164165  1  0  0  0  0
164166  2  0  0  0  0
156167  1  0  0  0  0
167168  2  0  0  0  0
168169  1  0  0  0  0
169170  1  0  0  0  0
170171  2  0  0  0  0
171172  1  0  0  0  0
172173  2  0  0  0  0
173174  1  0  0  0  0
174175  1  0  0  0  0
175176  1  0  0  0  0
173177  1  0  0  0  0
177178  2  0  0  0  0
177179  1  0  0  0  0
169180  2  0  0  0  0
180181  1  0  0  0  0
168182  1  0  0  0  0
182183  2  0  0  0  0
183184  1  0  0  0  0
 25  1  1  0  0  0  0
 57 29  1  0  0  0  0
 85 61  1  0  0  0  0
117 89  1  0  0  0  0
149121  1  0  0  0  0
181153  1  0  0  0  0
 24  3  1  0  0  0  0
 56 31  1  0  0  0  0
 84 63  1  0  0  0  0
116 91  1  0  0  0  0
148123  1  0  0  0  0
180155  1  0  0  0  0
 12  5  1  0  0  0  0
 28 13  1  0  0  0  0
 42 33  1  0  0  0  0
 60 43  1  0  0  0  0
 72 65  1  0  0  0  0
 88 73  1  0  0  0  0
102 93  1  0  0  0  0
120103  1  0  0  0  0
134125  1  0  0  0  0
152135  1  0  0  0  0
166157  1  0  0  0  0
184167  1  0  0  0  0
 23 16  1  0  0  0  0
 54 46  1  0  0  0  0
 83 76  1  0  0  0  0
114106  1  0  0  0  0
146138  1  0  0  0  0
178170  1  0  0  0  0
  1185  1  0  0  0  0
  2186  1  0  0  0  0
  6187  1  0  0  0  0
  7188  1  0  0  0  0
 10189  1  0  0  0  0
 10190  1  0  0  0  0
 11191  1  0  0  0  0
 11192  1  0  0  0  0
 11193  1  0  0  0  0
 17194  1  0  0  0  0
 18195  1  0  0  0  0
 21196  1  0  0  0  0
 21197  1  0  0  0  0
 22198  1  0  0  0  0
 22199  1  0  0  0  0
 22200  1  0  0  0  0
 26201  1  0  0  0  0
 30202  1  0  0  0  0
 34203  1  0  0  0  0
 35204  1  0  0  0  0
 38205  1  0  0  0  0
 38206  1  0  0  0  0
 39207  1  0  0  0  0
 39208  1  0  0  0  0
 39209  1  0  0  0  0
 42210  1  0  0  0  0
 47211  1  0  0  0  0
 48212  1  0  0  0  0
 51213  1  0  0  0  0
 51214  1  0  0  0  0
 52215  1  0  0  0  0
 52216  1  0  0  0  0
 52217  1  0  0  0  0
 54218  1  0  0  0  0
 58219  1  0  0  0  0
 62220  1  0  0  0  0
 66221  1  0  0  0  0
 67222  1  0  0  0  0
 70223  1  0  0  0  0
 70224  1  0  0  0  0
 71225  1  0  0  0  0
 71226  1  0  0  0  0
 71227  1  0  0  0  0
 77228  1  0  0  0  0
 78229  1  0  0  0  0
 81230  1  0  0  0  0
 81231  1  0  0  0  0
 82232  1  0  0  0  0
 82233  1  0  0  0  0
 82234  1  0  0  0  0
 86235  1  0  0  0  0
 90236  1  0  0  0  0
 94237  1  0  0  0  0
 95238  1  0  0  0  0
 98239  1  0  0  0  0
 98240  1  0  0  0  0
 99241  1  0  0  0  0
 99242  1  0  0  0  0
 99243  1  0  0  0  0
102244  1  0  0  0  0
107245  1  0  0  0  0
108246  1  0  0  0  0
111247  1  0  0  0  0
111248  1  0  0  0  0
112249  1  0  0  0  0
112250  1  0  0  0  0
112251  1  0  0  0  0
114252  1  0  0  0  0
118253  1  0  0  0  0
122254  1  0  0  0  0
126255  1  0  0  0  0
127256  1  0  0  0  0
130257  1  0  0  0  0
130258  1  0  0  0  0
131259  1  0  0  0  0
131260  1  0  0  0  0
131261  1  0  0  0  0
134262  1  0  0  0  0
139263  1  0  0  0  0
140264  1  0  0  0  0
143265  1  0  0  0  0
143266  1  0  0  0  0
144267  1  0  0  0  0
144268  1  0  0  0  0
144269  1  0  0  0  0
146270  1  0  0  0  0
150271  1  0  0  0  0
154272  1  0  0  0  0
158273  1  0  0  0  0
159274  1  0  0  0  0
162275  1  0  0  0  0
162276  1  0  0  0  0
163277  1  0  0  0  0
163278  1  0  0  0  0
163279  1  0  0  0  0
166280  1  0  0  0  0
171281  1  0  0  0  0
172282  1  0  0  0  0
175283  1  0  0  0  0
175284  1  0  0  0  0
176285  1  0  0  0  0
176286  1  0  0  0  0
176287  1  0  0  0  0
178288  1  0  0  0  0
182289  1  0  0  0  0
183290  1  0  0  0  0
M  END
