284

C        -21.49630       -1.00770        4.44910
C        -20.73950        0.05190        4.09990
C        -19.61480       -0.30920        3.30020
C        -18.64610        0.53080        2.73460
C        -18.58820        1.97480        2.99490
C        -18.58380        2.46920        4.29530
C        -18.42670        3.81920        4.54880
C        -18.27340        4.72420        3.50470
S        -18.01580        6.45670        3.67740
C        -18.10630        6.72800        5.48600
C        -17.94010        8.21040        5.76230
C        -18.30800        4.21720        2.20380
F        -18.18220        5.07260        1.16910
C        -18.45820        2.87620        1.93930
C        -17.68730       -0.07700        1.93770
C        -17.63470       -1.47180        1.69890
C        -18.60500       -2.31200        2.26710
C        -18.60060       -3.75870        2.02020
C        -18.53510       -4.26050        0.72090
C        -18.52690       -5.61950        0.49330
C        -18.58680       -6.53220        1.54510
S        -18.61060       -8.25020        1.12420
C        -17.55420       -9.03590        2.39720
C        -16.15650       -8.45060        2.41410
C        -18.68150       -6.01670        2.83400
C        -18.67810       -4.65820        3.07780
F        -18.77640       -6.83700        3.90380
C        -19.57020       -1.70390        3.05940
S        -20.90430       -2.51510        3.83970
C        -16.50140       -1.83240        0.92050
C        -15.72720       -0.77070        0.56400
S        -16.35780        0.74920        1.17410
C        -14.51000       -0.73770       -0.17750
C        -13.80920        0.38500       -0.50150
C        -12.59290        0.12880       -1.17790
C        -11.64350        1.06850       -1.61640
C        -11.83870        2.49890       -1.35580
C        -12.16850        2.94980       -0.07960
C        -12.43140        4.28290        0.16210
C        -12.38330        5.21650       -0.86750
S        -12.74770        6.92970       -0.69010
C        -13.75610        7.00980        0.83330
C        -15.09340        6.31080        0.68840
C        -11.99580        4.75980       -2.12890
F        -11.90350        5.64020       -3.14430
C        -11.72430        3.43350       -2.38230
C        -10.53130        0.56410       -2.27180
C        -10.34890       -0.82130       -2.50210
C        -11.30740       -1.75910       -2.07970
C        -11.07180       -3.18440       -2.34860
C        -11.00160       -4.12230       -1.32430
C        -10.62980       -5.42810       -1.58530
C        -10.32340       -5.83750       -2.87890
S         -9.76050       -7.45630       -3.29330
C         -8.80090       -7.91820       -1.79660
C         -7.67110       -8.84640       -2.20120
C        -10.47460       -4.90570       -3.90600
C        -10.82840       -3.59890       -3.65710
F        -10.23320       -5.27720       -5.17760
C        -12.40280       -1.25910       -1.40040
S        -13.71660       -2.19940       -0.73450
C         -9.08720       -1.09990       -3.07540
C         -8.31770        0.00900       -3.27970
S         -9.14570        1.47960       -2.81130
C         -6.95900        0.00000       -3.71730
C         -6.21510       -1.11840       -3.96410
C         -4.85720       -0.85200       -4.24740
C         -3.82090       -1.79930       -4.40380
C         -4.05470       -3.20760       -4.17540
C         -4.83820       -3.76730       -3.20330
C         -4.91670       -5.17240       -3.20300
C         -4.20040       -5.79200       -4.18740
S         -4.22710       -7.52130       -4.44580
C         -2.78890       -7.75600       -5.54490
C         -1.47320       -7.60690       -4.80890
Se        -3.29020       -4.53970       -5.26640
C         -2.57100       -1.28270       -4.71750
C         -2.32220        0.10450       -4.83590
C         -3.32410        1.05840       -4.55190
C         -3.01680        2.46600       -4.43640
C         -3.82170        3.54090       -4.70180
C         -3.27130        4.81130       -4.44380
C         -2.00300        4.80540       -3.93320
S         -1.07960        6.24440       -3.56030
C          0.64390        5.62230       -3.56750
C          1.06990        5.04750       -2.23270
Se        -1.38250        3.05300       -3.68630
C         -4.58970        0.53850       -4.28780
S         -6.01480        1.46140       -3.88730
C         -0.96980        0.35880       -5.14960
C         -0.17540       -0.75020       -5.15840
S         -1.10140       -2.21390       -4.89640
C          1.24700       -0.70500       -5.16960
C          2.16980       -1.69540       -5.00630
C          3.48830       -1.21470       -4.79200
C          4.65310       -1.95550       -4.47700
C          4.71270       -3.37880       -4.68170
C          4.02100       -4.10060       -5.62390
C          4.25010       -5.48520       -5.64360
C          5.14420       -5.93510       -4.71030
S          5.59170       -7.60870       -4.51000
C          6.96890       -7.43110       -3.31660
C          7.58650       -8.78100       -3.01830
Se         5.82060       -4.52060       -3.66720
C          5.70980       -1.21330       -3.94950
C          5.71030        0.19830       -3.83750
C          4.62410        0.94530       -4.33460
C          4.55390        2.39080       -4.34400
C          3.94650        3.14970       -5.30800
C          3.92900        4.54030       -5.08970
C          4.51810        4.95230       -3.93160
S          4.59160        6.62210       -3.40740
C          6.33060        6.73730       -2.83350
C          6.48940        6.37330       -1.37250
Se         5.15550        3.48520       -2.93400
C          3.53250        0.19870       -4.77080
S          1.98270        0.88720       -5.15500
C          6.86510        0.67490       -3.17230
C          7.71620       -0.30980       -2.77260
S          7.16820       -1.89530       -3.28090
C          8.88500       -0.17660       -1.96960
C          9.82620       -1.12000       -1.69100
C         10.82890       -0.67500       -0.79240
C         11.90570       -1.41110       -0.27260
C         12.16530       -2.79340       -0.68960
C         12.35880       -3.79520        0.25750
C         12.60300       -5.10020       -0.12130
C         12.67560       -5.44970       -1.46470
S         12.96490       -7.07930       -2.07210
C         13.76690       -7.92950       -0.66840
C         15.13460       -7.35510       -0.35320
C         12.47260       -4.43740       -2.40410
F         12.52750       -4.74030       -3.71640
C         12.22200       -3.13350       -2.03990
C         12.70000       -0.76990        0.66570
C         12.45880        0.55060        1.11940
C         11.36210        1.27750        0.62110
C         10.99110        2.58310        1.17680
C         10.94630        2.76540        2.56010
C         10.53540        3.96390        3.10090
C         10.14890        5.02810        2.29010
S          9.65980        6.53340        3.08420
C          8.12350        6.98630        2.19660
C          7.09120        5.87830        2.25420
C         10.21590        4.84080        0.91350
C         10.61910        3.64390        0.35690
F          9.87970        5.84060        0.06740
C         10.59740        0.65370       -0.35460
S          9.18340        1.32960       -1.12250
C         13.43930        0.97500        2.05120
C         14.38290        0.02710        2.32250
S         14.11700       -1.44890        1.41950
C         15.47330        0.10880        3.23980
C         15.77490        1.12040        4.10350
C         16.91690        0.86470        4.90400
C         17.48460        1.68490        5.90190
C         16.83610        2.90070        6.33350
C         15.49160        3.10860        6.48920
C         15.10480        4.40080        6.88870
C         16.13350        5.28310        7.06520
S         15.90630        6.91940        7.63570
C         17.53280        7.66840        7.27650
C         17.72900        7.93020        5.79720
Se        17.80270        4.46450        6.75020
C         18.69070        1.24190        6.44200
C         19.30200        0.01520        6.09910
C         18.68090       -0.85110        5.17830
C         19.22280       -2.15570        4.87020
C         19.80330       -3.04340        5.73360
C         20.25750       -4.25110        5.16940
C         20.06990       -4.36560        3.82100
S         20.62200       -5.73480        2.88250
C         19.80210       -5.44610        1.27580
C         18.32270       -5.77160        1.31280
Se        19.22200       -2.83820        3.11310
C         17.51550       -0.37610        4.58410
S         16.60060       -1.22460        3.37020
C         20.55110       -0.15290        6.76670
C         20.85020        0.87030        7.59130
S         19.63910        2.10470        7.62390
H        -22.39090       -1.01290        5.04070
H        -20.96560        1.06640        4.37400
H        -18.67100        1.78400        5.12510
H        -18.41140        4.15860        5.57160
H        -17.30760        6.15260        5.95460
H        -19.07860        6.37430        5.82940
H        -18.72450        8.77980        5.26930
H        -17.99410        8.39510        6.83300
H        -16.97820        8.56100        5.39530
H        -18.48410        2.54470        0.91350
H        -18.50480       -3.57710       -0.11390
H        -18.47450       -6.00460       -0.51320
H        -18.04310       -8.95450        3.36530
H        -17.53830      -10.08280        2.09410
H        -16.17690       -7.40520        2.71670
H        -15.53790       -9.00040        3.12070
H        -15.70340       -8.51550        1.42690
H        -18.73210       -4.31610        4.09950
H        -16.25700       -2.84490        0.65260
H        -14.16570        1.37230       -0.26890
H        -12.20130        2.24890        0.74100
H        -12.67600        4.59300        1.16520
H        -13.16810        6.61920        1.66340
H        -13.89370        8.08090        0.98130
H        -14.96590        5.24350        0.52050
H        -15.64830        6.72380       -0.14990
H        -15.68550        6.45130        1.59040
H        -11.45900        3.13390       -3.38390
H        -11.21140       -3.82070       -0.30940
H        -10.56810       -6.13450       -0.77240
H         -8.41500       -6.99560       -1.36450
H         -9.47540       -8.40500       -1.09150
H         -7.09210       -9.12870       -1.32420
H         -8.06630       -9.74820       -2.66240
H         -7.00950       -8.35860       -2.91410
H        -10.90700       -2.90660       -4.48110
H         -8.75280       -2.09770       -3.28920
H         -6.62600       -2.10980       -3.95530
H         -5.31700       -3.17250       -2.44310
H         -5.48950       -5.72490       -2.47810
H         -2.88480       -7.02940       -6.35810
H         -2.90870       -8.76160       -5.94670
H         -0.64590       -7.78360       -5.49290
H         -1.37270       -6.60100       -4.40020
H         -1.41200       -8.32160       -3.99150
H         -4.79620        3.43280       -5.14710
H         -3.79750        5.72600       -4.65480
H          1.25200        6.48900       -3.82610
H          0.71530        4.87930       -4.36580
H          0.45740        4.18450       -1.96600
H          0.97900        5.79550       -1.44910
H          2.10840        4.72590       -2.29220
H         -0.57070        1.33080       -5.38370
H          1.89100       -2.73200       -4.94620
H          3.38340       -3.62660       -6.35060
H          3.77370       -6.14630       -6.34680
H          6.55400       -6.97240       -2.41330
H          7.69730       -6.75100       -3.76690
H          8.41100       -8.66100       -2.31920
H          7.96690       -9.23360       -3.93090
H          6.84900       -9.45030       -2.58140
H          3.56250        2.71980       -6.21740
H          3.50580        5.23620       -5.79310
H          6.61440        7.77370       -3.01320
H          6.91800        6.08420       -3.47940
H          7.53730        6.44680       -1.09090
H          5.90420        7.04460       -0.74850
H          6.15570        5.34920       -1.19040
H          7.06910        1.71400       -2.97300
H          9.78670       -2.11320       -2.10120
H         12.29330       -3.55710        1.30790
H         12.72680       -5.84910        0.64380
H         13.84760       -8.96080       -1.01180
H         13.09680       -7.90220        0.19000
H         15.06090       -6.31170       -0.05330
H         15.59280       -7.91740        0.45800
H         15.77770       -7.41820       -1.22800
H         12.10110       -2.38690       -2.80920
H         11.19750        1.94440        3.21390
H         10.49270        4.09560        4.17090
H          8.37440        7.26120        1.17450
H          7.77970        7.87340        2.72810
H          6.90050        5.59020        3.28590
H          7.43110        5.00040        1.70740
H          6.15900        6.21960        1.80970
H         10.66380        3.56300       -0.71780
H         13.45720        1.95920        2.48170
H         15.21670        2.03690        4.14690
H         14.77290        2.31690        6.35770
H         14.07770        4.68110        7.04670
H         18.29500        6.99090        7.67460
H         17.54280        8.59550        7.84860
H         18.69580        8.40020        5.63050
H         17.69810        6.99660        5.23500
H         16.94830        8.58720        5.42120
H         19.85610       -2.85790        6.79350
H         20.71280       -5.03260        5.75290
H         20.33220       -6.09150        0.57610
H         19.98060       -4.40040        1.00600
H         17.88600       -5.60890        0.32990
H         18.17060       -6.80960        1.59910
H         17.80530       -5.13250        2.02870
H         21.20230       -0.99160        6.60240
H         21.72330        0.99540        8.20100
