
  xtb     03072223153D
 energy: -486.870985850822 gnorm: 0.000229774531 xtb: 6.4.1 (unknown)
284313  0     0  0            999 V2000
    2.9878   -6.8300    8.1509 C   0  0  0  0  0  0  0  0  0  0  0  0
    4.0472   -7.1027    7.3633 C   0  0  0  0  0  0  0  0  0  0  0  0
    3.6773   -7.4541    6.0316 C   0  0  0  0  0  0  0  0  0  0  0  0
    4.5220   -7.7409    4.9417 C   0  0  0  0  0  0  0  0  0  0  0  0
    5.9625   -7.8111    5.0651 C   0  0  0  0  0  0  0  0  0  0  0  0
    6.6985   -8.3654    6.0745 C   0  0  0  0  0  0  0  0  0  0  0  0
    8.0985   -8.3257    5.9163 C   0  0  0  0  0  0  0  0  0  0  0  0
    8.5346   -7.7182    4.7736 C   0  0  0  0  0  0  0  0  0  0  0  0
   10.2200   -7.4850    4.3700 S   0  0  0  0  0  0  0  0  0  0  0  0
   10.1249   -7.1204    2.5801 C   0  0  0  0  0  0  0  0  0  0  0  0
    9.7804   -8.3422    1.7536 C   0  0  0  0  0  0  0  0  0  0  0  0
    7.0911   -7.0938    3.7351 Se  0  0  0  0  0  2  0  0  0  0  0  0
    3.8903   -7.9473    3.7199 C   0  0  0  0  0  0  0  0  0  0  0  0
    2.4886   -7.9063    3.5389 C   0  0  0  0  0  0  0  0  0  0  0  0
    1.6426   -7.6209    4.6271 C   0  0  0  0  0  0  0  0  0  0  0  0
    0.2044   -7.5035    4.4881 C   0  0  0  0  0  0  0  0  0  0  0  0
   -0.7376   -7.9594    5.3682 C   0  0  0  0  0  0  0  0  0  0  0  0
   -2.0803   -7.6909    5.0361 C   0  0  0  0  0  0  0  0  0  0  0  0
   -2.2542   -6.9755    3.8895 C   0  0  0  0  0  0  0  0  0  0  0  0
   -3.7688   -6.4710    3.1624 S   0  0  0  0  0  0  0  0  0  0  0  0
   -4.6752   -5.8339    4.6178 C   0  0  0  0  0  0  0  0  0  0  0  0
   -3.9400   -4.7003    5.3003 C   0  0  0  0  0  0  0  0  0  0  0  0
   -0.6182   -6.5546    3.0727 Se  0  0  0  0  0  2  0  0  0  0  0  0
    2.2741   -7.4143    5.8533 C   0  0  0  0  0  0  0  0  0  0  0  0
    1.4689   -6.9823    7.3393 S   0  0  0  0  0  0  0  0  0  0  0  0
    2.1251   -8.1734    2.1954 C   0  0  0  0  0  0  0  0  0  0  0  0
    3.1903   -8.3754    1.3710 C   0  0  0  0  0  0  0  0  0  0  0  0
    4.7149   -8.2981    2.2257 S   0  0  0  0  0  0  0  0  0  0  0  0
    3.1797   -8.4953   -0.0459 C   0  0  0  0  0  0  0  0  0  0  0  0
    4.2451   -8.4256   -0.8924 C   0  0  0  0  0  0  0  0  0  0  0  0
    3.8860   -8.3271   -2.2595 C   0  0  0  0  0  0  0  0  0  0  0  0
    4.7275   -8.0787   -3.3662 C   0  0  0  0  0  0  0  0  0  0  0  0
    6.1600   -7.9183   -3.2441 C   0  0  0  0  0  0  0  0  0  0  0  0
    7.1038   -8.2740   -4.1688 C   0  0  0  0  0  0  0  0  0  0  0  0
    8.4366   -7.9343   -3.8641 C   0  0  0  0  0  0  0  0  0  0  0  0
    8.6082   -7.2646   -2.6879 C   0  0  0  0  0  0  0  0  0  0  0  0
   10.1623   -6.8276   -2.0148 S   0  0  0  0  0  0  0  0  0  0  0  0
    9.6995   -5.4007   -0.9674 C   0  0  0  0  0  0  0  0  0  0  0  0
    9.3137   -4.1908   -1.7923 C   0  0  0  0  0  0  0  0  0  0  0  0
    6.9727   -7.0378   -1.7845 Se  0  0  0  0  0  2  0  0  0  0  0  0
    4.0832   -7.8993   -4.5903 C   0  0  0  0  0  0  0  0  0  0  0  0
    2.6832   -8.0188   -4.7584 C   0  0  0  0  0  0  0  0  0  0  0  0
    1.8437   -8.2997   -3.6586 C   0  0  0  0  0  0  0  0  0  0  0  0
    0.4056   -8.3427   -3.7895 C   0  0  0  0  0  0  0  0  0  0  0  0
   -0.3375   -8.8216   -4.8342 C   0  0  0  0  0  0  0  0  0  0  0  0
   -1.7343   -8.6786   -4.7226 C   0  0  0  0  0  0  0  0  0  0  0  0
   -2.1618   -8.0699   -3.5766 C   0  0  0  0  0  0  0  0  0  0  0  0
   -3.8428   -7.7502   -3.2049 S   0  0  0  0  0  0  0  0  0  0  0  0
   -3.8333   -7.6675   -1.3759 C   0  0  0  0  0  0  0  0  0  0  0  0
   -3.5150   -6.2858   -0.8441 C   0  0  0  0  0  0  0  0  0  0  0  0
   -0.7144   -7.5867   -2.4732 Se  0  0  0  0  0  2  0  0  0  0  0  0
    2.4832   -8.4035   -2.4296 C   0  0  0  0  0  0  0  0  0  0  0  0
    1.6582   -8.5651   -0.9042 S   0  0  0  0  0  0  0  0  0  0  0  0
    2.2701   -7.6051   -6.0444 C   0  0  0  0  0  0  0  0  0  0  0  0
    3.2813   -7.1346   -6.8300 C   0  0  0  0  0  0  0  0  0  0  0  0
    4.8389   -7.2952   -6.0510 S   0  0  0  0  0  0  0  0  0  0  0  0
    3.0456   -6.3531   -8.0026 C   0  0  0  0  0  0  0  0  0  0  0  0
    3.6887   -5.2257   -8.4207 C   0  0  0  0  0  0  0  0  0  0  0  0
    2.8811   -4.3825   -9.2315 C   0  0  0  0  0  0  0  0  0  0  0  0
    3.1305   -3.0272   -9.5638 C   0  0  0  0  0  0  0  0  0  0  0  0
    4.4586   -2.4837   -9.5122 C   0  0  0  0  0  0  0  0  0  0  0  0
    5.6292   -3.1682   -9.7314 C   0  0  0  0  0  0  0  0  0  0  0  0
    6.8144   -2.4239   -9.6239 C   0  0  0  0  0  0  0  0  0  0  0  0
    6.6419   -1.1039   -9.3053 C   0  0  0  0  0  0  0  0  0  0  0  0
    7.9714   -0.0036   -9.0347 S   0  0  0  0  0  0  0  0  0  0  0  0
    7.1140    1.6056   -8.9237 C   0  0  0  0  0  0  0  0  0  0  0  0
    6.6764    2.1205  -10.2797 C   0  0  0  0  0  0  0  0  0  0  0  0
    4.8167   -0.6737   -9.1211 Se  0  0  0  0  0  2  0  0  0  0  0  0
    1.9883   -2.2620   -9.8073 C   0  0  0  0  0  0  0  0  0  0  0  0
    0.6944   -2.8132   -9.9424 C   0  0  0  0  0  0  0  0  0  0  0  0
    0.4970   -4.2107   -9.8834 C   0  0  0  0  0  0  0  0  0  0  0  0
   -0.8165   -4.7771  -10.0542 C   0  0  0  0  0  0  0  0  0  0  0  0
   -1.7842   -4.3515  -10.9253 C   0  0  0  0  0  0  0  0  0  0  0  0
   -3.0388   -4.9783  -10.8171 C   0  0  0  0  0  0  0  0  0  0  0  0
   -3.1281   -5.9252   -9.8354 C   0  0  0  0  0  0  0  0  0  0  0  0
   -4.5637   -6.8720   -9.5321 S   0  0  0  0  0  0  0  0  0  0  0  0
   -4.2082   -7.5470   -7.8712 C   0  0  0  0  0  0  0  0  0  0  0  0
   -4.3127   -6.4919   -6.7909 C   0  0  0  0  0  0  0  0  0  0  0  0
   -1.4799   -6.1556   -8.9478 Se  0  0  0  0  0  2  0  0  0  0  0  0
    1.5976   -4.9357   -9.4412 C   0  0  0  0  0  0  0  0  0  0  0  0
    1.4889   -6.5478   -8.7935 S   0  0  0  0  0  0  0  0  0  0  0  0
   -0.3187   -1.8338   -9.8118 C   0  0  0  0  0  0  0  0  0  0  0  0
    0.1579   -0.5846   -9.5425 C   0  0  0  0  0  0  0  0  0  0  0  0
    1.9101   -0.5203   -9.6875 S   0  0  0  0  0  0  0  0  0  0  0  0
   -0.5515    0.4248   -8.8183 C   0  0  0  0  0  0  0  0  0  0  0  0
   -1.5988    0.1337   -7.9909 C   0  0  0  0  0  0  0  0  0  0  0  0
   -1.8783    1.1481   -7.0468 C   0  0  0  0  0  0  0  0  0  0  0  0
   -2.6914    1.0249   -5.9090 C   0  0  0  0  0  0  0  0  0  0  0  0
   -3.5326   -0.1609   -5.7066 C   0  0  0  0  0  0  0  0  0  0  0  0
   -4.4167   -0.5891   -6.6977 C   0  0  0  0  0  0  0  0  0  0  0  0
   -5.2022   -1.7018   -6.5029 C   0  0  0  0  0  0  0  0  0  0  0  0
   -5.1457   -2.4481   -5.3212 C   0  0  0  0  0  0  0  0  0  0  0  0
   -6.2492   -3.8190   -5.2551 S   0  0  0  0  0  0  0  0  0  0  0  0
   -5.9342   -4.6863   -3.6705 C   0  0  0  0  0  0  0  0  0  0  0  0
   -6.8626   -5.8819   -3.5897 C   0  0  0  0  0  0  0  0  0  0  0  0
   -4.2515   -2.0139   -4.3478 C   0  0  0  0  0  0  0  0  0  0  0  0
   -4.1059   -2.6703   -3.1708 F   0  0  0  0  0  0  0  0  0  0  0  0
   -3.4617   -0.8953   -4.5292 C   0  0  0  0  0  0  0  0  0  0  0  0
   -2.5841    2.0359   -4.9691 C   0  0  0  0  0  0  0  0  0  0  0  0
   -1.7775    3.1892   -5.1458 C   0  0  0  0  0  0  0  0  0  0  0  0
   -0.9876    3.3206   -6.3020 C   0  0  0  0  0  0  0  0  0  0  0  0
   -0.0740    4.4511   -6.5044 C   0  0  0  0  0  0  0  0  0  0  0  0
   -0.0728    5.1521   -7.7063 C   0  0  0  0  0  0  0  0  0  0  0  0
    0.7955    6.2050   -7.9198 C   0  0  0  0  0  0  0  0  0  0  0  0
    1.7009    6.5911   -6.9382 C   0  0  0  0  0  0  0  0  0  0  0  0
    2.8804    7.8907   -7.0873 S   0  0  0  0  0  0  0  0  0  0  0  0
    2.2823    8.8756   -8.5039 C   0  0  0  0  0  0  0  0  0  0  0  0
    0.9955    9.6140   -8.1887 C   0  0  0  0  0  0  0  0  0  0  0  0
    1.7040    5.8638   -5.7461 C   0  0  0  0  0  0  0  0  0  0  0  0
    0.8393    4.8176   -5.5178 C   0  0  0  0  0  0  0  0  0  0  0  0
    2.5880    6.1892   -4.7822 F   0  0  0  0  0  0  0  0  0  0  0  0
   -1.0375    2.2746   -7.2122 C   0  0  0  0  0  0  0  0  0  0  0  0
    0.0545    2.0481   -8.5619 S   0  0  0  0  0  0  0  0  0  0  0  0
   -1.8344    4.0479   -4.0147 C   0  0  0  0  0  0  0  0  0  0  0  0
   -2.5824    3.5477   -2.9925 C   0  0  0  0  0  0  0  0  0  0  0  0
   -3.3581    2.0320   -3.4104 S   0  0  0  0  0  0  0  0  0  0  0  0
   -2.6945    3.9968   -1.6410 C   0  0  0  0  0  0  0  0  0  0  0  0
   -2.9822    3.1943   -0.5782 C   0  0  0  0  0  0  0  0  0  0  0  0
   -2.9118    3.8531    0.6725 C   0  0  0  0  0  0  0  0  0  0  0  0
   -3.0881    3.2849    1.9457 C   0  0  0  0  0  0  0  0  0  0  0  0
   -3.3959    1.8543    2.0784 C   0  0  0  0  0  0  0  0  0  0  0  0
   -4.4504    1.2764    1.3726 C   0  0  0  0  0  0  0  0  0  0  0  0
   -4.6615   -0.0863    1.4139 C   0  0  0  0  0  0  0  0  0  0  0  0
   -3.8353   -0.9180    2.1626 C   0  0  0  0  0  0  0  0  0  0  0  0
   -4.1353   -2.6670    2.1405 S   0  0  0  0  0  0  0  0  0  0  0  0
   -2.4829   -3.3234    1.7001 C   0  0  0  0  0  0  0  0  0  0  0  0
   -2.0429   -2.8536    0.3292 C   0  0  0  0  0  0  0  0  0  0  0  0
   -2.8303   -0.3214    2.9165 C   0  0  0  0  0  0  0  0  0  0  0  0
   -2.0355   -1.0729    3.7075 F   0  0  0  0  0  0  0  0  0  0  0  0
   -2.5974    1.0384    2.8739 C   0  0  0  0  0  0  0  0  0  0  0  0
   -2.8983    4.1266    3.0294 C   0  0  0  0  0  0  0  0  0  0  0  0
   -2.5779    5.4995    2.8833 C   0  0  0  0  0  0  0  0  0  0  0  0
   -2.4185    6.0723    1.6081 C   0  0  0  0  0  0  0  0  0  0  0  0
   -2.1115    7.5019    1.4841 C   0  0  0  0  0  0  0  0  0  0  0  0
   -2.8564    8.4392    2.2008 C   0  0  0  0  0  0  0  0  0  0  0  0
   -2.5159    9.7751    2.1910 C   0  0  0  0  0  0  0  0  0  0  0  0
   -1.4183   10.2225    1.4635 C   0  0  0  0  0  0  0  0  0  0  0  0
   -0.8812   11.9070    1.5002 S   0  0  0  0  0  0  0  0  0  0  0  0
   -0.9832   12.2553    3.2945 C   0  0  0  0  0  0  0  0  0  0  0  0
   -0.0988   11.3169    4.0914 C   0  0  0  0  0  0  0  0  0  0  0  0
   -0.7298    9.2914    0.6896 C   0  0  0  0  0  0  0  0  0  0  0  0
   -1.0568    7.9505    0.6948 C   0  0  0  0  0  0  0  0  0  0  0  0
    0.3135    9.6921   -0.0589 F   0  0  0  0  0  0  0  0  0  0  0  0
   -2.5587    5.2183    0.5262 C   0  0  0  0  0  0  0  0  0  0  0  0
   -2.3403    5.6404   -1.1558 S   0  0  0  0  0  0  0  0  0  0  0  0
   -2.4168    6.1354    4.1375 C   0  0  0  0  0  0  0  0  0  0  0  0
   -2.6424    5.3175    5.2058 C   0  0  0  0  0  0  0  0  0  0  0  0
   -3.0449    3.6863    4.7122 S   0  0  0  0  0  0  0  0  0  0  0  0
   -2.6064    5.7063    6.5800 C   0  0  0  0  0  0  0  0  0  0  0  0
   -2.3827    6.9672    7.0517 C   0  0  0  0  0  0  0  0  0  0  0  0
   -2.4774    7.0762    8.4608 C   0  0  0  0  0  0  0  0  0  0  0  0
   -2.3081    8.2268    9.2498 C   0  0  0  0  0  0  0  0  0  0  0  0
   -2.0783    9.5418    8.6409 C   0  0  0  0  0  0  0  0  0  0  0  0
   -1.0770   10.3903    9.1037 C   0  0  0  0  0  0  0  0  0  0  0  0
   -0.8660   11.6324    8.5355 C   0  0  0  0  0  0  0  0  0  0  0  0
   -1.6441   12.0708    7.4706 C   0  0  0  0  0  0  0  0  0  0  0  0
   -1.5132   13.6316    6.6604 S   0  0  0  0  0  0  0  0  0  0  0  0
   -0.0296   14.4080    7.3861 C   0  0  0  0  0  0  0  0  0  0  0  0
    1.2621   13.8154    6.8546 C   0  0  0  0  0  0  0  0  0  0  0  0
   -2.6415   11.2076    7.0125 C   0  0  0  0  0  0  0  0  0  0  0  0
   -3.4101   11.5922    5.9693 F   0  0  0  0  0  0  0  0  0  0  0  0
   -2.8728    9.9761    7.5790 C   0  0  0  0  0  0  0  0  0  0  0  0
   -2.3976    8.0506   10.6241 C   0  0  0  0  0  0  0  0  0  0  0  0
   -2.6561    6.7969   11.2297 C   0  0  0  0  0  0  0  0  0  0  0  0
   -2.8285    5.6503   10.4401 C   0  0  0  0  0  0  0  0  0  0  0  0
   -3.0613    4.3293   11.0364 C   0  0  0  0  0  0  0  0  0  0  0  0
   -4.1082    3.5199   10.6080 C   0  0  0  0  0  0  0  0  0  0  0  0
   -4.3180    2.2693   11.1569 C   0  0  0  0  0  0  0  0  0  0  0  0
   -3.4845    1.7813   12.1564 C   0  0  0  0  0  0  0  0  0  0  0  0
   -3.6128    0.2047   12.9301 S   0  0  0  0  0  0  0  0  0  0  0  0
   -5.2162   -0.4541   12.3577 C   0  0  0  0  0  0  0  0  0  0  0  0
   -6.3938    0.2376   13.0184 C   0  0  0  0  0  0  0  0  0  0  0  0
   -2.4317    2.6012   12.5695 C   0  0  0  0  0  0  0  0  0  0  0  0
   -2.2133    3.8492   12.0333 C   0  0  0  0  0  0  0  0  0  0  0  0
   -1.5939    2.1560   13.5282 F   0  0  0  0  0  0  0  0  0  0  0  0
   -2.7502    5.8248    9.0660 C   0  0  0  0  0  0  0  0  0  0  0  0
   -2.9182    4.5654    7.8694 S   0  0  0  0  0  0  0  0  0  0  0  0
   -2.7664    6.9115   12.6483 C   0  0  0  0  0  0  0  0  0  0  0  0
   -2.5938    8.1731   13.0893 C   0  0  0  0  0  0  0  0  0  0  0  0
   -2.2841    9.3132   11.8245 S   0  0  0  0  0  0  0  0  0  0  0  0
    2.9896   -6.5411    9.1836 H   0  0  0  0  0  0  0  0  0  0  0  0
    5.0663   -7.0321    7.6956 H   0  0  0  0  0  0  0  0  0  0  0  0
    6.2374   -8.8673    6.9089 H   0  0  0  0  0  0  0  0  0  0  0  0
    8.7778   -8.7574    6.6309 H   0  0  0  0  0  0  0  0  0  0  0  0
   11.1133   -6.7375    2.3281 H   0  0  0  0  0  0  0  0  0  0  0  0
    9.3860   -6.3218    2.4560 H   0  0  0  0  0  0  0  0  0  0  0  0
    9.7959   -8.0905    0.6949 H   0  0  0  0  0  0  0  0  0  0  0  0
    8.7860   -8.7113    2.0061 H   0  0  0  0  0  0  0  0  0  0  0  0
   10.5017   -9.1360    1.9321 H   0  0  0  0  0  0  0  0  0  0  0  0
   -0.4773   -8.5388    6.2377 H   0  0  0  0  0  0  0  0  0  0  0  0
   -2.9013   -8.0366    5.6410 H   0  0  0  0  0  0  0  0  0  0  0  0
   -5.6237   -5.4965    4.2016 H   0  0  0  0  0  0  0  0  0  0  0  0
   -4.8540   -6.6721    5.2906 H   0  0  0  0  0  0  0  0  0  0  0  0
   -4.5272   -4.3399    6.1423 H   0  0  0  0  0  0  0  0  0  0  0  0
   -3.7866   -3.8779    4.6062 H   0  0  0  0  0  0  0  0  0  0  0  0
   -2.9717   -5.0330    5.6705 H   0  0  0  0  0  0  0  0  0  0  0  0
    1.1107   -8.2125    1.8355 H   0  0  0  0  0  0  0  0  0  0  0  0
    5.2551   -8.4303   -0.5177 H   0  0  0  0  0  0  0  0  0  0  0  0
    6.8503   -8.8088   -5.0686 H   0  0  0  0  0  0  0  0  0  0  0  0
    9.2616   -8.1753   -4.5117 H   0  0  0  0  0  0  0  0  0  0  0  0
   10.5824   -5.2052   -0.3598 H   0  0  0  0  0  0  0  0  0  0  0  0
    8.8799   -5.7265   -0.3183 H   0  0  0  0  0  0  0  0  0  0  0  0
    8.4378   -4.4068   -2.4036 H   0  0  0  0  0  0  0  0  0  0  0  0
   10.1310   -3.9016   -2.4488 H   0  0  0  0  0  0  0  0  0  0  0  0
    9.0776   -3.3562   -1.1356 H   0  0  0  0  0  0  0  0  0  0  0  0
    0.1098   -9.3411   -5.6651 H   0  0  0  0  0  0  0  0  0  0  0  0
   -2.4174   -9.0433   -5.4704 H   0  0  0  0  0  0  0  0  0  0  0  0
   -4.8336   -7.9817   -1.0792 H   0  0  0  0  0  0  0  0  0  0  0  0
   -3.1068   -8.4071   -1.0326 H   0  0  0  0  0  0  0  0  0  0  0  0
   -3.5416   -6.3064    0.2439 H   0  0  0  0  0  0  0  0  0  0  0  0
   -4.2396   -5.5572   -1.1994 H   0  0  0  0  0  0  0  0  0  0  0  0
   -2.5193   -5.9696   -1.1613 H   0  0  0  0  0  0  0  0  0  0  0  0
    1.2397   -7.5400   -6.3420 H   0  0  0  0  0  0  0  0  0  0  0  0
    4.6474   -4.9331   -8.0305 H   0  0  0  0  0  0  0  0  0  0  0  0
    5.6363   -4.2059  -10.0203 H   0  0  0  0  0  0  0  0  0  0  0  0
    7.7892   -2.8515   -9.7837 H   0  0  0  0  0  0  0  0  0  0  0  0
    6.2643    1.4729   -8.2464 H   0  0  0  0  0  0  0  0  0  0  0  0
    7.8394    2.2741   -8.4612 H   0  0  0  0  0  0  0  0  0  0  0  0
    5.9667    1.4334  -10.7417 H   0  0  0  0  0  0  0  0  0  0  0  0
    6.1921    3.0880  -10.1657 H   0  0  0  0  0  0  0  0  0  0  0  0
    7.5337    2.2302  -10.9396 H   0  0  0  0  0  0  0  0  0  0  0  0
   -1.5860   -3.5962  -11.6680 H   0  0  0  0  0  0  0  0  0  0  0  0
   -3.8729   -4.7291  -11.4502 H   0  0  0  0  0  0  0  0  0  0  0  0
   -4.9470   -8.3351   -7.7294 H   0  0  0  0  0  0  0  0  0  0  0  0
   -3.2083   -7.9917   -7.9146 H   0  0  0  0  0  0  0  0  0  0  0  0
   -4.1544   -6.9451   -5.8141 H   0  0  0  0  0  0  0  0  0  0  0  0
   -5.2951   -6.0265   -6.8096 H   0  0  0  0  0  0  0  0  0  0  0  0
   -3.5600   -5.7159   -6.9361 H   0  0  0  0  0  0  0  0  0  0  0  0
   -1.3652   -2.0774   -9.7924 H   0  0  0  0  0  0  0  0  0  0  0  0
   -2.0790   -0.8271   -7.9684 H   0  0  0  0  0  0  0  0  0  0  0  0
   -4.4982   -0.0294   -7.6171 H   0  0  0  0  0  0  0  0  0  0  0  0
   -5.8907   -2.0234   -7.2693 H   0  0  0  0  0  0  0  0  0  0  0  0
   -6.1273   -3.9857   -2.8597 H   0  0  0  0  0  0  0  0  0  0  0  0
   -4.8923   -5.0015   -3.6629 H   0  0  0  0  0  0  0  0  0  0  0  0
   -7.9014   -5.5670   -3.6595 H   0  0  0  0  0  0  0  0  0  0  0  0
   -6.7146   -6.3938   -2.6419 H   0  0  0  0  0  0  0  0  0  0  0  0
   -6.6539   -6.5825   -4.3941 H   0  0  0  0  0  0  0  0  0  0  0  0
   -2.7757   -0.6244   -3.7419 H   0  0  0  0  0  0  0  0  0  0  0  0
   -0.7708    4.8781   -8.4829 H   0  0  0  0  0  0  0  0  0  0  0  0
    0.7659    6.7179   -8.8672 H   0  0  0  0  0  0  0  0  0  0  0  0
    2.1888    8.2230   -9.3710 H   0  0  0  0  0  0  0  0  0  0  0  0
    3.0970    9.5768   -8.6849 H   0  0  0  0  0  0  0  0  0  0  0  0
    0.1903    8.9184   -7.9619 H   0  0  0  0  0  0  0  0  0  0  0  0
    1.1379   10.2645   -7.3290 H   0  0  0  0  0  0  0  0  0  0  0  0
    0.6998   10.2228   -9.0410 H   0  0  0  0  0  0  0  0  0  0  0  0
    0.9028    4.2770   -4.5865 H   0  0  0  0  0  0  0  0  0  0  0  0
   -1.3093    4.9835   -3.9446 H   0  0  0  0  0  0  0  0  0  0  0  0
   -3.1938    2.1461   -0.6881 H   0  0  0  0  0  0  0  0  0  0  0  0
   -5.1066    1.9025    0.7874 H   0  0  0  0  0  0  0  0  0  0  0  0
   -5.4655   -0.5331    0.8500 H   0  0  0  0  0  0  0  0  0  0  0  0
   -1.7743   -3.0413    2.4767 H   0  0  0  0  0  0  0  0  0  0  0  0
   -2.6207   -4.4053    1.7204 H   0  0  0  0  0  0  0  0  0  0  0  0
   -1.1044   -3.3360    0.0632 H   0  0  0  0  0  0  0  0  0  0  0  0
   -1.8924   -1.7747    0.3190 H   0  0  0  0  0  0  0  0  0  0  0  0
   -2.7894   -3.1051   -0.4212 H   0  0  0  0  0  0  0  0  0  0  0  0
   -1.7814    1.4456    3.4503 H   0  0  0  0  0  0  0  0  0  0  0  0
   -3.7206    8.1157    2.7613 H   0  0  0  0  0  0  0  0  0  0  0  0
   -3.1019   10.4788    2.7616 H   0  0  0  0  0  0  0  0  0  0  0  0
   -2.0217   12.2072    3.6170 H   0  0  0  0  0  0  0  0  0  0  0  0
   -0.6416   13.2861    3.3795 H   0  0  0  0  0  0  0  0  0  0  0  0
   -0.1331   11.5820    5.1451 H   0  0  0  0  0  0  0  0  0  0  0  0
   -0.4362   10.2869    3.9864 H   0  0  0  0  0  0  0  0  0  0  0  0
    0.9310   11.3789    3.7462 H   0  0  0  0  0  0  0  0  0  0  0  0
   -0.4581    7.2648    0.1166 H   0  0  0  0  0  0  0  0  0  0  0  0
   -2.1240    7.1632    4.2393 H   0  0  0  0  0  0  0  0  0  0  0  0
   -2.1405    7.7966    6.4143 H   0  0  0  0  0  0  0  0  0  0  0  0
   -0.4386   10.0714    9.9128 H   0  0  0  0  0  0  0  0  0  0  0  0
   -0.0848   12.2572    8.9360 H   0  0  0  0  0  0  0  0  0  0  0  0
   -0.1041   14.3465    8.4709 H   0  0  0  0  0  0  0  0  0  0  0  0
   -0.1225   15.4534    7.0914 H   0  0  0  0  0  0  0  0  0  0  0  0
    1.3067   13.9192    5.7731 H   0  0  0  0  0  0  0  0  0  0  0  0
    2.1121   14.3388    7.2882 H   0  0  0  0  0  0  0  0  0  0  0  0
    1.3441   12.7591    7.1016 H   0  0  0  0  0  0  0  0  0  0  0  0
   -3.6861    9.3726    7.2077 H   0  0  0  0  0  0  0  0  0  0  0  0
   -4.7823    3.8770    9.8446 H   0  0  0  0  0  0  0  0  0  0  0  0
   -5.1385    1.6754   10.7894 H   0  0  0  0  0  0  0  0  0  0  0  0
   -5.1757   -1.5051   12.6440 H   0  0  0  0  0  0  0  0  0  0  0  0
   -5.2493   -0.3931   11.2708 H   0  0  0  0  0  0  0  0  0  0  0  0
   -6.4057    1.3004   12.7865 H   0  0  0  0  0  0  0  0  0  0  0  0
   -6.3362    0.1243   14.0984 H   0  0  0  0  0  0  0  0  0  0  0  0
   -7.3257   -0.2048   12.6712 H   0  0  0  0  0  0  0  0  0  0  0  0
   -1.3711    4.4298   12.3761 H   0  0  0  0  0  0  0  0  0  0  0  0
   -2.9854    6.0799   13.2927 H   0  0  0  0  0  0  0  0  0  0  0  0
   -2.6268    8.5293   14.1003 H   0  0  0  0  0  0  0  0  0  0  0  0
  1  2  2  0  0  0  0
  2  3  1  0  0  0  0
  3  4  2  0  0  0  0
  4  5  1  0  0  0  0
  5  6  2  0  0  0  0
  6  7  1  0  0  0  0
  7  8  2  0  0  0  0
  8  9  1  0  0  0  0
  9 10  1  0  0  0  0
 10 11  1  0  0  0  0
  8 12  1  0  0  0  0
  4 13  1  0  0  0  0
 13 14  2  0  0  0  0
 14 15  1  0  0  0  0
 15 16  1  0  0  0  0
 16 17  2  0  0  0  0
 17 18  1  0  0  0  0
 18 19  2  0  0  0  0
 19 20  1  0  0  0  0
 20 21  1  0  0  0  0
 21 22  1  0  0  0  0
 19 23  1  0  0  0  0
 15 24  2  0  0  0  0
 24 25  1  0  0  0  0
 14 26  1  0  0  0  0
 26 27  2  0  0  0  0
 27 28  1  0  0  0  0
 27 29  1  0  0  0  0
 29 30  2  0  0  0  0
 30 31  1  0  0  0  0
 31 32  2  0  0  0  0
 32 33  1  0  0  0  0
 33 34  2  0  0  0  0
 34 35  1  0  0  0  0
 35 36  2  0  0  0  0
 36 37  1  0  0  0  0
 37 38  1  0  0  0  0
 38 39  1  0  0  0  0
 36 40  1  0  0  0  0
 32 41  1  0  0  0  0
 41 42  2  0  0  0  0
 42 43  1  0  0  0  0
 43 44  1  0  0  0  0
 44 45  2  0  0  0  0
 45 46  1  0  0  0  0
 46 47  2  0  0  0  0
 47 48  1  0  0  0  0
 48 49  1  0  0  0  0
 49 50  1  0  0  0  0
 47 51  1  0  0  0  0
 43 52  2  0  0  0  0
 52 53  1  0  0  0  0
 42 54  1  0  0  0  0
 54 55  2  0  0  0  0
 55 56  1  0  0  0  0
 55 57  1  0  0  0  0
 57 58  2  0  0  0  0
 58 59  1  0  0  0  0
 59 60  2  0  0  0  0
 60 61  1  0  0  0  0
 61 62  2  0  0  0  0
 62 63  1  0  0  0  0
 63 64  2  0  0  0  0
 64 65  1  0  0  0  0
 65 66  1  0  0  0  0
 66 67  1  0  0  0  0
 64 68  1  0  0  0  0
 60 69  1  0  0  0  0
 69 70  2  0  0  0  0
 70 71  1  0  0  0  0
 71 72  1  0  0  0  0
 72 73  2  0  0  0  0
 73 74  1  0  0  0  0
 74 75  2  0  0  0  0
 75 76  1  0  0  0  0
 76 77  1  0  0  0  0
 77 78  1  0  0  0  0
 75 79  1  0  0  0  0
 71 80  2  0  0  0  0
 80 81  1  0  0  0  0
 70 82  1  0  0  0  0
 82 83  2  0  0  0  0
 83 84  1  0  0  0  0
 83 85  1  0  0  0  0
 85 86  2  0  0  0  0
 86 87  1  0  0  0  0
 87 88  2  0  0  0  0
 88 89  1  0  0  0  0
 89 90  2  0  0  0  0
 90 91  1  0  0  0  0
 91 92  2  0  0  0  0
 92 93  1  0  0  0  0
 93 94  1  0  0  0  0
 94 95  1  0  0  0  0
 92 96  1  0  0  0  0
 96 97  1  0  0  0  0
 96 98  2  0  0  0  0
 88 99  1  0  0  0  0
 99100  2  0  0  0  0
100101  1  0  0  0  0
101102  1  0  0  0  0
102103  2  0  0  0  0
103104  1  0  0  0  0
104105  2  0  0  0  0
105106  1  0  0  0  0
106107  1  0  0  0  0
107108  1  0  0  0  0
105109  1  0  0  0  0
109110  2  0  0  0  0
109111  1  0  0  0  0
101112  2  0  0  0  0
112113  1  0  0  0  0
100114  1  0  0  0  0
114115  2  0  0  0  0
115116  1  0  0  0  0
115117  1  0  0  0  0
117118  2  0  0  0  0
118119  1  0  0  0  0
119120  2  0  0  0  0
120121  1  0  0  0  0
121122  2  0  0  0  0
122123  1  0  0  0  0
123124  2  0  0  0  0
124125  1  0  0  0  0
125126  1  0  0  0  0
126127  1  0  0  0  0
124128  1  0  0  0  0
128129  1  0  0  0  0
128130  2  0  0  0  0
120131  1  0  0  0  0
131132  2  0  0  0  0
132133  1  0  0  0  0
133134  1  0  0  0  0
134135  2  0  0  0  0
135136  1  0  0  0  0
136137  2  0  0  0  0
137138  1  0  0  0  0
138139  1  0  0  0  0
139140  1  0  0  0  0
137141  1  0  0  0  0
141142  2  0  0  0  0
141143  1  0  0  0  0
133144  2  0  0  0  0
144145  1  0  0  0  0
132146  1  0  0  0  0
146147  2  0  0  0  0
147148  1  0  0  0  0
147149  1  0  0  0  0
149150  2  0  0  0  0
150151  1  0  0  0  0
151152  2  0  0  0  0
152153  1  0  0  0  0
153154  2  0  0  0  0
154155  1  0  0  0  0
155156  2  0  0  0  0
156157  1  0  0  0  0
157158  1  0  0  0  0
158159  1  0  0  0  0
156160  1  0  0  0  0
160161  1  0  0  0  0
160162  2  0  0  0  0
152163  1  0  0  0  0
163164  2  0  0  0  0
164165  1  0  0  0  0
165166  1  0  0  0  0
166167  2  0  0  0  0
167168  1  0  0  0  0
168169  2  0  0  0  0
169170  1  0  0  0  0
170171  1  0  0  0  0
171172  1  0  0  0  0
169173  1  0  0  0  0
173174  2  0  0  0  0
173175  1  0  0  0  0
165176  2  0  0  0  0
176177  1  0  0  0  0
164178  1  0  0  0  0
178179  2  0  0  0  0
179180  1  0  0  0  0
 25  1  1  0  0  0  0
 53 29  1  0  0  0  0
 81 57  1  0  0  0  0
113 85  1  0  0  0  0
145117  1  0  0  0  0
177149  1  0  0  0  0
 24  3  1  0  0  0  0
 52 31  1  0  0  0  0
 80 59  1  0  0  0  0
112 87  1  0  0  0  0
144119  1  0  0  0  0
176151  1  0  0  0  0
 12  5  1  0  0  0  0
 28 13  1  0  0  0  0
 40 33  1  0  0  0  0
 56 41  1  0  0  0  0
 68 61  1  0  0  0  0
 84 69  1  0  0  0  0
 98 89  1  0  0  0  0
116 99  1  0  0  0  0
130121  1  0  0  0  0
148131  1  0  0  0  0
162153  1  0  0  0  0
180163  1  0  0  0  0
 23 16  1  0  0  0  0
 51 44  1  0  0  0  0
 79 72  1  0  0  0  0
110102  1  0  0  0  0
142134  1  0  0  0  0
174166  1  0  0  0  0
  1181  1  0  0  0  0
  2182  1  0  0  0  0
  6183  1  0  0  0  0
  7184  1  0  0  0  0
 10185  1  0  0  0  0
 10186  1  0  0  0  0
 11187  1  0  0  0  0
 11188  1  0  0  0  0
 11189  1  0  0  0  0
 17190  1  0  0  0  0
 18191  1  0  0  0  0
 21192  1  0  0  0  0
 21193  1  0  0  0  0
 22194  1  0  0  0  0
 22195  1  0  0  0  0
 22196  1  0  0  0  0
 26197  1  0  0  0  0
 30198  1  0  0  0  0
 34199  1  0  0  0  0
 35200  1  0  0  0  0
 38201  1  0  0  0  0
 38202  1  0  0  0  0
 39203  1  0  0  0  0
 39204  1  0  0  0  0
 39205  1  0  0  0  0
 45206  1  0  0  0  0
 46207  1  0  0  0  0
 49208  1  0  0  0  0
 49209  1  0  0  0  0
 50210  1  0  0  0  0
 50211  1  0  0  0  0
 50212  1  0  0  0  0
 54213  1  0  0  0  0
 58214  1  0  0  0  0
 62215  1  0  0  0  0
 63216  1  0  0  0  0
 66217  1  0  0  0  0
 66218  1  0  0  0  0
 67219  1  0  0  0  0
 67220  1  0  0  0  0
 67221  1  0  0  0  0
 73222  1  0  0  0  0
 74223  1  0  0  0  0
 77224  1  0  0  0  0
 77225  1  0  0  0  0
 78226  1  0  0  0  0
 78227  1  0  0  0  0
 78228  1  0  0  0  0
 82229  1  0  0  0  0
 86230  1  0  0  0  0
 90231  1  0  0  0  0
 91232  1  0  0  0  0
 94233  1  0  0  0  0
 94234  1  0  0  0  0
 95235  1  0  0  0  0
 95236  1  0  0  0  0
 95237  1  0  0  0  0
 98238  1  0  0  0  0
103239  1  0  0  0  0
104240  1  0  0  0  0
107241  1  0  0  0  0
107242  1  0  0  0  0
108243  1  0  0  0  0
108244  1  0  0  0  0
108245  1  0  0  0  0
110246  1  0  0  0  0
114247  1  0  0  0  0
118248  1  0  0  0  0
122249  1  0  0  0  0
123250  1  0  0  0  0
126251  1  0  0  0  0
126252  1  0  0  0  0
127253  1  0  0  0  0
127254  1  0  0  0  0
127255  1  0  0  0  0
130256  1  0  0  0  0
135257  1  0  0  0  0
136258  1  0  0  0  0
139259  1  0  0  0  0
139260  1  0  0  0  0
140261  1  0  0  0  0
140262  1  0  0  0  0
140263  1  0  0  0  0
142264  1  0  0  0  0
146265  1  0  0  0  0
150266  1  0  0  0  0
154267  1  0  0  0  0
155268  1  0  0  0  0
158269  1  0  0  0  0
158270  1  0  0  0  0
159271  1  0  0  0  0
159272  1  0  0  0  0
159273  1  0  0  0  0
162274  1  0  0  0  0
167275  1  0  0  0  0
168276  1  0  0  0  0
171277  1  0  0  0  0
171278  1  0  0  0  0
172279  1  0  0  0  0
172280  1  0  0  0  0
172281  1  0  0  0  0
174282  1  0  0  0  0
178283  1  0  0  0  0
179284  1  0  0  0  0
M  END
