
  xtb     03082203343D
 energy: -330.620632707796 gnorm: 0.000405267656 xtb: 6.4.1 (unknown)
194217  0     0  0            999 V2000
    3.7076   -6.0422   12.4027 C   0  0  0  0  0  0  0  0  0  0  0  0
    3.6582   -4.7405   13.5380 S   0  0  0  0  0  0  0  0  0  0  0  0
    4.2260   -3.6287   12.3263 C   0  0  0  0  0  0  0  0  0  0  0  0
    4.4250   -4.2800   11.0992 C   0  0  0  0  0  0  0  0  0  0  0  0
    4.1200   -5.6661   11.1723 C   0  0  0  0  0  0  0  0  0  0  0  0
    4.8892   -3.5123   10.0146 C   0  0  0  0  0  0  0  0  0  0  0  0
    5.1186   -2.1429   10.2107 C   0  0  0  0  0  0  0  0  0  0  0  0
    5.7175   -1.4007    8.7539 S   0  0  0  0  0  0  0  0  0  0  0  0
    5.6144   -2.9052    7.9112 C   0  0  0  0  0  0  0  0  0  0  0  0
    5.1699   -3.9215    8.6808 C   0  0  0  0  0  0  0  0  0  0  0  0
    4.8565   -1.4897   11.4300 C   0  0  0  0  0  0  0  0  0  0  0  0
    4.4380   -2.2627   12.4983 C   0  0  0  0  0  0  0  0  0  0  0  0
    4.9413   -0.0298   11.5653 C   0  0  0  0  0  0  0  0  0  0  0  0
    4.2644    0.8358   10.8001 C   0  0  0  0  0  0  0  0  0  0  0  0
    3.3605    0.4179    9.7569 C   0  0  0  0  0  0  0  0  0  0  0  0
    2.6270   -0.7258    9.7106 C   0  0  0  0  0  0  0  0  0  0  0  0
    2.0478   -0.9856    8.4462 C   0  0  0  0  0  0  0  0  0  0  0  0
    1.4142   -2.1694    8.0261 C   0  0  0  0  0  0  0  0  0  0  0  0
    1.1850   -3.2640    8.9456 C   0  0  0  0  0  0  0  0  0  0  0  0
    0.7125   -3.1990   10.2252 C   0  0  0  0  0  0  0  0  0  0  0  0
    0.5825   -4.4296   10.9002 C   0  0  0  0  0  0  0  0  0  0  0  0
    0.9654   -5.5240   10.1815 C   0  0  0  0  0  0  0  0  0  0  0  0
    0.9469   -7.1567   10.8106 S   0  0  0  0  0  0  0  0  0  0  0  0
    0.9399   -8.1347    9.2668 C   0  0  0  0  0  0  0  0  0  0  0  0
   -0.3865   -8.0519    8.5402 C   0  0  0  0  0  0  0  0  0  0  0  0
    1.6018   -5.0358    8.4746 Se  0  0  0  0  0  2  0  0  0  0  0  0
    1.0728   -2.2349    6.6815 C   0  0  0  0  0  0  0  0  0  0  0  0
    1.2965   -1.1841    5.7586 C   0  0  0  0  0  0  0  0  0  0  0  0
    1.9375   -0.0035    6.1828 C   0  0  0  0  0  0  0  0  0  0  0  0
    2.2081    1.0994    5.2820 C   0  0  0  0  0  0  0  0  0  0  0  0
    2.6900    1.0535    4.0033 C   0  0  0  0  0  0  0  0  0  0  0  0
    2.8068    2.2958    3.3467 C   0  0  0  0  0  0  0  0  0  0  0  0
    2.4155    3.3700    4.0890 C   0  0  0  0  0  0  0  0  0  0  0  0
    2.4074    5.0554    3.5891 S   0  0  0  0  0  0  0  0  0  0  0  0
    4.1964    5.3035    3.2909 C   0  0  0  0  0  0  0  0  0  0  0  0
    4.9910    5.1941    4.5753 C   0  0  0  0  0  0  0  0  0  0  0  0
    1.8518    2.8722    5.8074 Se  0  0  0  0  0  2  0  0  0  0  0  0
    2.3067    0.0522    7.5231 C   0  0  0  0  0  0  0  0  0  0  0  0
    3.2525    1.3205    8.2569 S   0  0  0  0  0  0  0  0  0  0  0  0
    0.7999   -1.5028    4.4694 C   0  0  0  0  0  0  0  0  0  0  0  0
    0.2330   -2.7396    4.3908 C   0  0  0  0  0  0  0  0  0  0  0  0
    0.2751   -3.5860    5.9269 S   0  0  0  0  0  0  0  0  0  0  0  0
   -0.3347   -3.3859    3.2559 C   0  0  0  0  0  0  0  0  0  0  0  0
   -0.1320   -2.6992    1.6593 S   0  0  0  0  0  0  0  0  0  0  0  0
   -1.0021   -4.0270    0.9435 C   0  0  0  0  0  0  0  0  0  0  0  0
   -1.4385   -4.9364    1.9255 C   0  0  0  0  0  0  0  0  0  0  0  0
   -1.0405   -4.5570    3.2247 C   0  0  0  0  0  0  0  0  0  0  0  0
   -2.1871   -6.0505    1.4935 C   0  0  0  0  0  0  0  0  0  0  0  0
   -2.4270   -6.2024    0.1219 C   0  0  0  0  0  0  0  0  0  0  0  0
   -3.3749   -7.6255   -0.1865 S   0  0  0  0  0  0  0  0  0  0  0  0
   -3.4383   -7.9873    1.5008 C   0  0  0  0  0  0  0  0  0  0  0  0
   -2.7774   -7.0903    2.2638 C   0  0  0  0  0  0  0  0  0  0  0  0
   -1.9506   -5.3075   -0.8578 C   0  0  0  0  0  0  0  0  0  0  0  0
   -1.2411   -4.1972   -0.4097 C   0  0  0  0  0  0  0  0  0  0  0  0
   -2.2481   -5.5395   -2.2464 C   0  0  0  0  0  0  0  0  0  0  0  0
   -1.7037   -4.8834   -3.2876 C   0  0  0  0  0  0  0  0  0  0  0  0
   -2.1355   -5.0174   -4.6389 C   0  0  0  0  0  0  0  0  0  0  0  0
   -3.4029   -6.1379   -5.1042 S   0  0  0  0  0  0  0  0  0  0  0  0
   -3.5181   -5.4076   -6.6790 C   0  0  0  0  0  0  0  0  0  0  0  0
   -2.5304   -4.4205   -6.8508 C   0  0  0  0  0  0  0  0  0  0  0  0
   -1.7622   -4.2165   -5.6843 C   0  0  0  0  0  0  0  0  0  0  0  0
   -2.4882   -3.7386   -8.0823 C   0  0  0  0  0  0  0  0  0  0  0  0
   -3.5156   -3.9789   -9.0037 C   0  0  0  0  0  0  0  0  0  0  0  0
   -3.2797   -3.0466  -10.4530 S   0  0  0  0  0  0  0  0  0  0  0  0
   -1.8508   -2.3297   -9.7926 C   0  0  0  0  0  0  0  0  0  0  0  0
   -1.5578   -2.7708   -8.5508 C   0  0  0  0  0  0  0  0  0  0  0  0
   -4.5993   -4.8338   -8.7376 C   0  0  0  0  0  0  0  0  0  0  0  0
   -4.5402   -5.6185   -7.5991 C   0  0  0  0  0  0  0  0  0  0  0  0
   -5.8485   -4.6970   -9.5081 C   0  0  0  0  0  0  0  0  0  0  0  0
   -6.5190   -3.5450   -9.4440 C   0  0  0  0  0  0  0  0  0  0  0  0
   -6.0075   -2.4496   -8.6221 C   0  0  0  0  0  0  0  0  0  0  0  0
   -5.4598   -1.2830   -9.0359 C   0  0  0  0  0  0  0  0  0  0  0  0
   -4.7121   -0.6068   -8.0290 C   0  0  0  0  0  0  0  0  0  0  0  0
   -3.8842    0.5233   -8.1718 C   0  0  0  0  0  0  0  0  0  0  0  0
   -3.7404    1.2383   -9.4228 C   0  0  0  0  0  0  0  0  0  0  0  0
   -3.6666    0.7352  -10.6922 C   0  0  0  0  0  0  0  0  0  0  0  0
   -3.5349    1.6767  -11.7305 C   0  0  0  0  0  0  0  0  0  0  0  0
   -3.5073    2.9814  -11.3260 C   0  0  0  0  0  0  0  0  0  0  0  0
   -3.3695    4.3412  -12.4134 S   0  0  0  0  0  0  0  0  0  0  0  0
   -3.2382    5.7107  -11.2060 C   0  0  0  0  0  0  0  0  0  0  0  0
   -3.0579    7.0307  -11.9258 C   0  0  0  0  0  0  0  0  0  0  0  0
   -3.6413    3.1241   -9.4525 Se  0  0  0  0  0  2  0  0  0  0  0  0
   -3.1606    0.8926   -7.0395 C   0  0  0  0  0  0  0  0  0  0  0  0
   -3.2448    0.2286   -5.7945 C   0  0  0  0  0  0  0  0  0  0  0  0
   -4.1544   -0.8408   -5.6213 C   0  0  0  0  0  0  0  0  0  0  0  0
   -4.3655   -1.4452   -4.3290 C   0  0  0  0  0  0  0  0  0  0  0  0
   -4.2267   -0.8399   -3.1036 C   0  0  0  0  0  0  0  0  0  0  0  0
   -4.4679   -1.6443   -1.9782 C   0  0  0  0  0  0  0  0  0  0  0  0
   -4.8358   -2.9311   -2.2535 C   0  0  0  0  0  0  0  0  0  0  0  0
   -5.1403   -4.1219   -1.0075 S   0  0  0  0  0  0  0  0  0  0  0  0
   -6.5851   -5.0208   -1.6909 C   0  0  0  0  0  0  0  0  0  0  0  0
   -6.1867   -6.1678   -2.5947 C   0  0  0  0  0  0  0  0  0  0  0  0
   -4.8826   -3.2414   -4.1098 Se  0  0  0  0  0  2  0  0  0  0  0  0
   -4.8075   -1.2616   -6.7790 C   0  0  0  0  0  0  0  0  0  0  0  0
   -5.7991   -2.6858   -6.8931 S   0  0  0  0  0  0  0  0  0  0  0  0
   -2.2901    0.7256   -4.8733 C   0  0  0  0  0  0  0  0  0  0  0  0
   -1.5376    1.7559   -5.3562 C   0  0  0  0  0  0  0  0  0  0  0  0
   -1.9605    2.1572   -7.0046 S   0  0  0  0  0  0  0  0  0  0  0  0
   -0.5154    2.4717   -4.6629 C   0  0  0  0  0  0  0  0  0  0  0  0
   -0.2087    2.3927   -3.3360 C   0  0  0  0  0  0  0  0  0  0  0  0
    0.8640    3.2326   -2.9480 C   0  0  0  0  0  0  0  0  0  0  0  0
    1.3821    3.4271   -1.6525 C   0  0  0  0  0  0  0  0  0  0  0  0
    0.8741    2.7024   -0.5078 C   0  0  0  0  0  0  0  0  0  0  0  0
    0.5496    1.3765   -0.4198 C   0  0  0  0  0  0  0  0  0  0  0  0
    0.0055    0.9574    0.8091 C   0  0  0  0  0  0  0  0  0  0  0  0
   -0.1308    1.9431    1.7457 C   0  0  0  0  0  0  0  0  0  0  0  0
   -0.7260    1.6666    3.3684 S   0  0  0  0  0  0  0  0  0  0  0  0
   -1.2195    3.3528    3.8621 C   0  0  0  0  0  0  0  0  0  0  0  0
   -2.4755    3.8110    3.1517 C   0  0  0  0  0  0  0  0  0  0  0  0
    0.5174    3.5914    1.1152 Se  0  0  0  0  0  2  0  0  0  0  0  0
    2.3849    4.3843   -1.5340 C   0  0  0  0  0  0  0  0  0  0  0  0
    2.8866    5.1384   -2.6169 C   0  0  0  0  0  0  0  0  0  0  0  0
    2.3620    4.9524   -3.9101 C   0  0  0  0  0  0  0  0  0  0  0  0
    2.7789    5.7396   -5.0519 C   0  0  0  0  0  0  0  0  0  0  0  0
    2.9346    5.3111   -6.3398 C   0  0  0  0  0  0  0  0  0  0  0  0
    3.2571    6.3010   -7.2891 C   0  0  0  0  0  0  0  0  0  0  0  0
    3.3438    7.5708   -6.7970 C   0  0  0  0  0  0  0  0  0  0  0  0
    3.6203    8.9804   -7.7957 S   0  0  0  0  0  0  0  0  0  0  0  0
    4.1618   10.2098   -6.5580 C   0  0  0  0  0  0  0  0  0  0  0  0
    5.5586    9.9283   -6.0433 C   0  0  0  0  0  0  0  0  0  0  0  0
    3.0002    7.6110   -4.9453 Se  0  0  0  0  0  2  0  0  0  0  0  0
    1.3678    3.9843   -4.0366 C   0  0  0  0  0  0  0  0  0  0  0  0
    0.5176    3.6011   -5.5099 S   0  0  0  0  0  0  0  0  0  0  0  0
    3.9399    6.0067   -2.2023 C   0  0  0  0  0  0  0  0  0  0  0  0
    4.2100    5.9204   -0.8843 C   0  0  0  0  0  0  0  0  0  0  0  0
    3.2150    4.7766   -0.0532 S   0  0  0  0  0  0  0  0  0  0  0  0
    3.4092   -7.0185   12.7294 H   0  0  0  0  0  0  0  0  0  0  0  0
    4.2102   -6.3422   10.3405 H   0  0  0  0  0  0  0  0  0  0  0  0
    5.9002   -2.9330    6.8778 H   0  0  0  0  0  0  0  0  0  0  0  0
    5.0419   -4.9297    8.3284 H   0  0  0  0  0  0  0  0  0  0  0  0
    4.2324   -1.8008   13.4517 H   0  0  0  0  0  0  0  0  0  0  0  0
    5.5708    0.3411   12.3629 H   0  0  0  0  0  0  0  0  0  0  0  0
    4.4163    1.8996   10.9178 H   0  0  0  0  0  0  0  0  0  0  0  0
    2.5341   -1.3950   10.5446 H   0  0  0  0  0  0  0  0  0  0  0  0
    0.3875   -2.2718   10.6674 H   0  0  0  0  0  0  0  0  0  0  0  0
    0.1900   -4.5083   11.8994 H   0  0  0  0  0  0  0  0  0  0  0  0
    1.1586   -9.1540    9.5830 H   0  0  0  0  0  0  0  0  0  0  0  0
    1.7638   -7.7634    8.6484 H   0  0  0  0  0  0  0  0  0  0  0  0
   -1.1929   -8.3972    9.1829 H   0  0  0  0  0  0  0  0  0  0  0  0
   -0.3571   -8.6723    7.6468 H   0  0  0  0  0  0  0  0  0  0  0  0
   -0.5951   -7.0249    8.2405 H   0  0  0  0  0  0  0  0  0  0  0  0
    2.9847    0.1307    3.5323 H   0  0  0  0  0  0  0  0  0  0  0  0
    3.1756    2.3902    2.3377 H   0  0  0  0  0  0  0  0  0  0  0  0
    4.2621    6.3020    2.8609 H   0  0  0  0  0  0  0  0  0  0  0  0
    4.5110    4.5690    2.5509 H   0  0  0  0  0  0  0  0  0  0  0  0
    4.6424    5.9262    5.3004 H   0  0  0  0  0  0  0  0  0  0  0  0
    4.8819    4.2006    5.0085 H   0  0  0  0  0  0  0  0  0  0  0  0
    6.0460    5.3715    4.3764 H   0  0  0  0  0  0  0  0  0  0  0  0
    0.8278   -0.8247    3.6359 H   0  0  0  0  0  0  0  0  0  0  0  0
   -1.2615   -5.1203    4.1140 H   0  0  0  0  0  0  0  0  0  0  0  0
   -3.9737   -8.8607    1.8182 H   0  0  0  0  0  0  0  0  0  0  0  0
   -2.7084   -7.1502    3.3349 H   0  0  0  0  0  0  0  0  0  0  0  0
   -0.8879   -3.4550   -1.1063 H   0  0  0  0  0  0  0  0  0  0  0  0
   -2.9887   -6.3040   -2.4470 H   0  0  0  0  0  0  0  0  0  0  0  0
   -0.9325   -4.1410   -3.1330 H   0  0  0  0  0  0  0  0  0  0  0  0
   -0.9964   -3.4656   -5.6006 H   0  0  0  0  0  0  0  0  0  0  0  0
   -1.3123   -1.6157  -10.3848 H   0  0  0  0  0  0  0  0  0  0  0  0
   -0.7080   -2.4379   -7.9829 H   0  0  0  0  0  0  0  0  0  0  0  0
   -5.3405   -6.3048   -7.3707 H   0  0  0  0  0  0  0  0  0  0  0  0
   -6.2132   -5.5374  -10.0798 H   0  0  0  0  0  0  0  0  0  0  0  0
   -7.4258   -3.3816  -10.0093 H   0  0  0  0  0  0  0  0  0  0  0  0
   -5.5319   -0.9416  -10.0516 H   0  0  0  0  0  0  0  0  0  0  0  0
   -3.6507   -0.3220  -10.8938 H   0  0  0  0  0  0  0  0  0  0  0  0
   -3.4526    1.3947  -12.7659 H   0  0  0  0  0  0  0  0  0  0  0  0
   -4.1560    5.7025  -10.6100 H   0  0  0  0  0  0  0  0  0  0  0  0
   -2.3843    5.4883  -10.5596 H   0  0  0  0  0  0  0  0  0  0  0  0
   -2.9823    7.8380  -11.2009 H   0  0  0  0  0  0  0  0  0  0  0  0
   -3.9037    7.2257  -12.5811 H   0  0  0  0  0  0  0  0  0  0  0  0
   -2.1518    7.0145  -12.5268 H   0  0  0  0  0  0  0  0  0  0  0  0
   -4.0260    0.2130   -3.0022 H   0  0  0  0  0  0  0  0  0  0  0  0
   -4.3949   -1.2748   -0.9695 H   0  0  0  0  0  0  0  0  0  0  0  0
   -7.1935   -4.2839   -2.2169 H   0  0  0  0  0  0  0  0  0  0  0  0
   -7.1240   -5.3779   -0.8137 H   0  0  0  0  0  0  0  0  0  0  0  0
   -7.0761   -6.6879   -2.9443 H   0  0  0  0  0  0  0  0  0  0  0  0
   -5.6406   -5.7970   -3.4637 H   0  0  0  0  0  0  0  0  0  0  0  0
   -5.5545   -6.8733   -2.0605 H   0  0  0  0  0  0  0  0  0  0  0  0
   -2.1194    0.2972   -3.9041 H   0  0  0  0  0  0  0  0  0  0  0  0
   -0.7563    1.7827   -2.6424 H   0  0  0  0  0  0  0  0  0  0  0  0
    0.7299    0.6866   -1.2276 H   0  0  0  0  0  0  0  0  0  0  0  0
   -0.2912   -0.0597    0.9981 H   0  0  0  0  0  0  0  0  0  0  0  0
   -0.3716    4.0140    3.6537 H   0  0  0  0  0  0  0  0  0  0  0  0
   -1.3673    3.2924    4.9406 H   0  0  0  0  0  0  0  0  0  0  0  0
   -3.2991    3.1301    3.3551 H   0  0  0  0  0  0  0  0  0  0  0  0
   -2.3124    3.8479    2.0743 H   0  0  0  0  0  0  0  0  0  0  0  0
   -2.7477    4.8076    3.4925 H   0  0  0  0  0  0  0  0  0  0  0  0
    2.8680    4.2708   -6.6099 H   0  0  0  0  0  0  0  0  0  0  0  0
    3.4265    6.0785   -8.3283 H   0  0  0  0  0  0  0  0  0  0  0  0
    4.1154   11.1655   -7.0791 H   0  0  0  0  0  0  0  0  0  0  0  0
    3.4229   10.2050   -5.7505 H   0  0  0  0  0  0  0  0  0  0  0  0
    5.8521   10.6964   -5.3310 H   0  0  0  0  0  0  0  0  0  0  0  0
    5.5942    8.9607   -5.5422 H   0  0  0  0  0  0  0  0  0  0  0  0
    6.2710    9.9189   -6.8649 H   0  0  0  0  0  0  0  0  0  0  0  0
    4.4858    6.6499   -2.8717 H   0  0  0  0  0  0  0  0  0  0  0  0
    4.9512    6.4577   -0.3258 H   0  0  0  0  0  0  0  0  0  0  0  0
  1  2  1  0  0  0  0
  2  3  1  0  0  0  0
  3  4  2  0  0  0  0
  4  5  1  0  0  0  0
  4  6  1  0  0  0  0
  6  7  2  0  0  0  0
  7  8  1  0  0  0  0
  8  9  1  0  0  0  0
  9 10  2  0  0  0  0
  7 11  1  0  0  0  0
 11 12  2  0  0  0  0
 11 13  1  0  0  0  0
 13 14  2  0  0  0  0
 14 15  1  0  0  0  0
 15 16  2  0  0  0  0
 16 17  1  0  0  0  0
 17 18  2  0  0  0  0
 18 19  1  0  0  0  0
 19 20  2  0  0  0  0
 20 21  1  0  0  0  0
 21 22  2  0  0  0  0
 22 23  1  0  0  0  0
 23 24  1  0  0  0  0
 24 25  1  0  0  0  0
 22 26  1  0  0  0  0
 18 27  1  0  0  0  0
 27 28  2  0  0  0  0
 28 29  1  0  0  0  0
 29 30  1  0  0  0  0
 30 31  2  0  0  0  0
 31 32  1  0  0  0  0
 32 33  2  0  0  0  0
 33 34  1  0  0  0  0
 34 35  1  0  0  0  0
 35 36  1  0  0  0  0
 33 37  1  0  0  0  0
 29 38  2  0  0  0  0
 38 39  1  0  0  0  0
 28 40  1  0  0  0  0
 40 41  2  0  0  0  0
 41 42  1  0  0  0  0
 41 43  1  0  0  0  0
 43 44  1  0  0  0  0
 44 45  1  0  0  0  0
 45 46  2  0  0  0  0
 46 47  1  0  0  0  0
 46 48  1  0  0  0  0
 48 49  2  0  0  0  0
 49 50  1  0  0  0  0
 50 51  1  0  0  0  0
 51 52  2  0  0  0  0
 49 53  1  0  0  0  0
 53 54  2  0  0  0  0
 53 55  1  0  0  0  0
 55 56  2  0  0  0  0
 56 57  1  0  0  0  0
 57 58  1  0  0  0  0
 58 59  1  0  0  0  0
 59 60  2  0  0  0  0
 60 61  1  0  0  0  0
 60 62  1  0  0  0  0
 62 63  2  0  0  0  0
 63 64  1  0  0  0  0
 64 65  1  0  0  0  0
 65 66  2  0  0  0  0
 63 67  1  0  0  0  0
 67 68  2  0  0  0  0
 67 69  1  0  0  0  0
 69 70  2  0  0  0  0
 70 71  1  0  0  0  0
 71 72  2  0  0  0  0
 72 73  1  0  0  0  0
 73 74  2  0  0  0  0
 74 75  1  0  0  0  0
 75 76  2  0  0  0  0
 76 77  1  0  0  0  0
 77 78  2  0  0  0  0
 78 79  1  0  0  0  0
 79 80  1  0  0  0  0
 80 81  1  0  0  0  0
 78 82  1  0  0  0  0
 74 83  1  0  0  0  0
 83 84  2  0  0  0  0
 84 85  1  0  0  0  0
 85 86  1  0  0  0  0
 86 87  2  0  0  0  0
 87 88  1  0  0  0  0
 88 89  2  0  0  0  0
 89 90  1  0  0  0  0
 90 91  1  0  0  0  0
 91 92  1  0  0  0  0
 89 93  1  0  0  0  0
 85 94  2  0  0  0  0
 94 95  1  0  0  0  0
 84 96  1  0  0  0  0
 96 97  2  0  0  0  0
 97 98  1  0  0  0  0
 97 99  1  0  0  0  0
 99100  2  0  0  0  0
100101  1  0  0  0  0
101102  2  0  0  0  0
102103  1  0  0  0  0
103104  2  0  0  0  0
104105  1  0  0  0  0
105106  2  0  0  0  0
106107  1  0  0  0  0
107108  1  0  0  0  0
108109  1  0  0  0  0
106110  1  0  0  0  0
102111  1  0  0  0  0
111112  2  0  0  0  0
112113  1  0  0  0  0
113114  1  0  0  0  0
114115  2  0  0  0  0
115116  1  0  0  0  0
116117  2  0  0  0  0
117118  1  0  0  0  0
118119  1  0  0  0  0
119120  1  0  0  0  0
117121  1  0  0  0  0
113122  2  0  0  0  0
122123  1  0  0  0  0
112124  1  0  0  0  0
124125  2  0  0  0  0
125126  1  0  0  0  0
  5  1  2  0  0  0  0
 10  6  1  0  0  0  0
 39 15  1  0  0  0  0
 47 43  2  0  0  0  0
 52 48  1  0  0  0  0
 61 57  2  0  0  0  0
 66 62  1  0  0  0  0
 95 71  1  0  0  0  0
123 99  1  0  0  0  0
 12  3  1  0  0  0  0
 38 17  1  0  0  0  0
 54 45  1  0  0  0  0
 68 59  1  0  0  0  0
 94 73  1  0  0  0  0
122101  1  0  0  0  0
 26 19  1  0  0  0  0
 42 27  1  0  0  0  0
 82 75  1  0  0  0  0
 98 83  1  0  0  0  0
110103  1  0  0  0  0
126111  1  0  0  0  0
 37 30  1  0  0  0  0
 93 86  1  0  0  0  0
121114  1  0  0  0  0
  1127  1  0  0  0  0
  5128  1  0  0  0  0
  9129  1  0  0  0  0
 10130  1  0  0  0  0
 12131  1  0  0  0  0
 13132  1  0  0  0  0
 14133  1  0  0  0  0
 16134  1  0  0  0  0
 20135  1  0  0  0  0
 21136  1  0  0  0  0
 24137  1  0  0  0  0
 24138  1  0  0  0  0
 25139  1  0  0  0  0
 25140  1  0  0  0  0
 25141  1  0  0  0  0
 31142  1  0  0  0  0
 32143  1  0  0  0  0
 35144  1  0  0  0  0
 35145  1  0  0  0  0
 36146  1  0  0  0  0
 36147  1  0  0  0  0
 36148  1  0  0  0  0
 40149  1  0  0  0  0
 47150  1  0  0  0  0
 51151  1  0  0  0  0
 52152  1  0  0  0  0
 54153  1  0  0  0  0
 55154  1  0  0  0  0
 56155  1  0  0  0  0
 61156  1  0  0  0  0
 65157  1  0  0  0  0
 66158  1  0  0  0  0
 68159  1  0  0  0  0
 69160  1  0  0  0  0
 70161  1  0  0  0  0
 72162  1  0  0  0  0
 76163  1  0  0  0  0
 77164  1  0  0  0  0
 80165  1  0  0  0  0
 80166  1  0  0  0  0
 81167  1  0  0  0  0
 81168  1  0  0  0  0
 81169  1  0  0  0  0
 87170  1  0  0  0  0
 88171  1  0  0  0  0
 91172  1  0  0  0  0
 91173  1  0  0  0  0
 92174  1  0  0  0  0
 92175  1  0  0  0  0
 92176  1  0  0  0  0
 96177  1  0  0  0  0
100178  1  0  0  0  0
104179  1  0  0  0  0
105180  1  0  0  0  0
108181  1  0  0  0  0
108182  1  0  0  0  0
109183  1  0  0  0  0
109184  1  0  0  0  0
109185  1  0  0  0  0
115186  1  0  0  0  0
116187  1  0  0  0  0
119188  1  0  0  0  0
119189  1  0  0  0  0
120190  1  0  0  0  0
120191  1  0  0  0  0
120192  1  0  0  0  0
124193  1  0  0  0  0
125194  1  0  0  0  0
M  END
