
  xtb     03072214303D
 energy: -323.651444958302 gnorm: 0.000599864034 xtb: 6.4.1 (unknown)
206226  0     0  0            999 V2000
    7.2492    1.8350    0.5485 C   0  0  0  0  0  0  0  0  0  0  0  0
    7.1578    0.4916    0.5978 C   0  0  0  0  0  0  0  0  0  0  0  0
    6.3181    0.0243    1.6527 C   0  0  0  0  0  0  0  0  0  0  0  0
    5.9756   -1.3029    1.9702 C   0  0  0  0  0  0  0  0  0  0  0  0
    6.5050   -2.4511    1.2635 C   0  0  0  0  0  0  0  0  0  0  0  0
    5.8348   -3.5956    0.9356 C   0  0  0  0  0  0  0  0  0  0  0  0
    6.5933   -4.6031    0.3074 C   0  0  0  0  0  0  0  0  0  0  0  0
    7.9150   -4.3119    0.1356 C   0  0  0  0  0  0  0  0  0  0  0  0
    9.0803   -5.4397   -0.5222 S   0  0  0  0  0  0  0  0  0  0  0  0
   10.4420   -4.3208   -1.0036 C   0  0  0  0  0  0  0  0  0  0  0  0
   10.0993   -3.4938   -2.2259 C   0  0  0  0  0  0  0  0  0  0  0  0
    8.3299   -2.6020    0.8094 Se  0  0  0  0  0  2  0  0  0  0  0  0
    5.0887   -1.4701    3.0311 C   0  0  0  0  0  0  0  0  0  0  0  0
    4.5424   -0.3965    3.7700 C   0  0  0  0  0  0  0  0  0  0  0  0
    4.8613    0.9331    3.4333 C   0  0  0  0  0  0  0  0  0  0  0  0
    4.2329    2.0534    4.1015 C   0  0  0  0  0  0  0  0  0  0  0  0
    2.9256    2.1430    4.4928 C   0  0  0  0  0  0  0  0  0  0  0  0
    2.5332    3.3512    5.1059 C   0  0  0  0  0  0  0  0  0  0  0  0
    3.5328    4.2690    5.2367 C   0  0  0  0  0  0  0  0  0  0  0  0
    3.4993    5.8805    5.9228 S   0  0  0  0  0  0  0  0  0  0  0  0
    1.8009    6.0136    6.5899 C   0  0  0  0  0  0  0  0  0  0  0  0
    0.7878    6.4017    5.5295 C   0  0  0  0  0  0  0  0  0  0  0  0
    5.1614    3.6437    4.5416 Se  0  0  0  0  0  2  0  0  0  0  0  0
    5.7653    1.0970    2.3872 C   0  0  0  0  0  0  0  0  0  0  0  0
    6.3122    2.6297    1.7651 S   0  0  0  0  0  0  0  0  0  0  0  0
    3.7032   -0.8503    4.8218 C   0  0  0  0  0  0  0  0  0  0  0  0
    3.5833   -2.2026    4.8882 C   0  0  0  0  0  0  0  0  0  0  0  0
    4.5371   -3.0014    3.6483 S   0  0  0  0  0  0  0  0  0  0  0  0
    2.7075   -3.0199    5.6767 C   0  0  0  0  0  0  0  0  0  0  0  0
    3.2005   -4.6370    6.0950 S   0  0  0  0  0  0  0  0  0  0  0  0
    1.5774   -5.0430    6.5685 C   0  0  0  0  0  0  0  0  0  0  0  0
    0.7413   -3.9653    6.4730 C   0  0  0  0  0  0  0  0  0  0  0  0
    1.3840   -2.8023    5.9810 C   0  0  0  0  0  0  0  0  0  0  0  0
    0.6420   -1.5200    5.7619 C   0  0  0  0  0  0  0  0  0  0  0  0
    0.8441   -0.5643    6.9429 C   0  0  0  0  0  0  0  0  0  0  0  0
   -0.8417   -1.8300    5.5379 C   0  0  0  0  0  0  0  0  0  0  0  0
   -1.4119   -2.6926    6.6592 C   0  0  0  0  0  0  0  0  0  0  0  0
   -0.7390   -4.0624    6.6834 C   0  0  0  0  0  0  0  0  0  0  0  0
    1.2062   -6.4189    6.8819 C   0  0  0  0  0  0  0  0  0  0  0  0
    0.8012   -7.2893    5.9474 C   0  0  0  0  0  0  0  0  0  0  0  0
    0.7025   -7.0426    4.5358 C   0  0  0  0  0  0  0  0  0  0  0  0
    0.2223   -7.9147    3.6004 C   0  0  0  0  0  0  0  0  0  0  0  0
    0.2490   -7.4188    2.2719 C   0  0  0  0  0  0  0  0  0  0  0  0
   -0.2079   -8.0315    1.0827 C   0  0  0  0  0  0  0  0  0  0  0  0
   -0.6499   -9.4056    1.0614 C   0  0  0  0  0  0  0  0  0  0  0  0
   -0.1340  -10.4507    1.7796 C   0  0  0  0  0  0  0  0  0  0  0  0
   -0.7427  -11.7037    1.5796 C   0  0  0  0  0  0  0  0  0  0  0  0
   -1.7833  -11.7062    0.6948 C   0  0  0  0  0  0  0  0  0  0  0  0
   -2.7552  -13.1192    0.3521 S   0  0  0  0  0  0  0  0  0  0  0  0
   -3.5884  -12.6232   -1.1965 C   0  0  0  0  0  0  0  0  0  0  0  0
   -2.6442  -12.6199   -2.3812 C   0  0  0  0  0  0  0  0  0  0  0  0
   -2.0851   -9.9851   -0.0149 Se  0  0  0  0  0  2  0  0  0  0  0  0
   -0.2102   -7.2260   -0.0538 C   0  0  0  0  0  0  0  0  0  0  0  0
    0.3308   -5.9213   -0.0937 C   0  0  0  0  0  0  0  0  0  0  0  0
    0.8742   -5.3455    1.0697 C   0  0  0  0  0  0  0  0  0  0  0  0
    1.4506   -4.0175    1.0510 C   0  0  0  0  0  0  0  0  0  0  0  0
    2.2757   -3.4984    0.0934 C   0  0  0  0  0  0  0  0  0  0  0  0
    2.5868   -2.1291    0.2211 C   0  0  0  0  0  0  0  0  0  0  0  0
    2.0000   -1.5058    1.2795 C   0  0  0  0  0  0  0  0  0  0  0  0
    2.1663    0.1968    1.6531 S   0  0  0  0  0  0  0  0  0  0  0  0
    0.3944    0.6428    1.8137 C   0  0  0  0  0  0  0  0  0  0  0  0
   -0.3337    0.5450    0.4897 C   0  0  0  0  0  0  0  0  0  0  0  0
    1.0226   -2.7193    2.3460 Se  0  0  0  0  0  2  0  0  0  0  0  0
    0.7622   -6.1015    2.2300 C   0  0  0  0  0  0  0  0  0  0  0  0
    1.2272   -5.5418    3.8023 S   0  0  0  0  0  0  0  0  0  0  0  0
    0.1450   -5.3105   -1.3560 C   0  0  0  0  0  0  0  0  0  0  0  0
   -0.5048   -6.0842   -2.2723 C   0  0  0  0  0  0  0  0  0  0  0  0
   -0.8883   -7.6616   -1.5999 S   0  0  0  0  0  0  0  0  0  0  0  0
   -1.0136   -5.5759   -3.5151 C   0  0  0  0  0  0  0  0  0  0  0  0
   -1.4269   -3.8732   -3.4098 S   0  0  0  0  0  0  0  0  0  0  0  0
   -2.0582   -3.8498   -5.0313 C   0  0  0  0  0  0  0  0  0  0  0  0
   -1.9360   -5.0984   -5.5975 C   0  0  0  0  0  0  0  0  0  0  0  0
   -1.3335   -6.0722   -4.7580 C   0  0  0  0  0  0  0  0  0  0  0  0
   -1.0378   -7.3906   -5.4176 C   0  0  0  0  0  0  0  0  0  0  0  0
   -0.1724   -8.3570   -4.6214 C   0  0  0  0  0  0  0  0  0  0  0  0
   -0.3406   -7.0477   -6.7490 C   0  0  0  0  0  0  0  0  0  0  0  0
   -1.2173   -6.2198   -7.6985 C   0  0  0  0  0  0  0  0  0  0  0  0
   -2.3649   -5.5065   -6.9658 C   0  0  0  0  0  0  0  0  0  0  0  0
   -2.6141   -2.6488   -5.5630 C   0  0  0  0  0  0  0  0  0  0  0  0
   -2.5094   -1.4763   -4.8975 C   0  0  0  0  0  0  0  0  0  0  0  0
   -3.0480   -0.1886   -5.1633 C   0  0  0  0  0  0  0  0  0  0  0  0
   -2.6059    1.0326   -3.9977 S   0  0  0  0  0  0  0  0  0  0  0  0
   -3.6365    2.2109   -4.7512 C   0  0  0  0  0  0  0  0  0  0  0  0
   -4.2644    1.6713   -5.8623 C   0  0  0  0  0  0  0  0  0  0  0  0
   -3.9272    0.3270   -6.1044 C   0  0  0  0  0  0  0  0  0  0  0  0
   -4.4592   -0.4354   -7.2827 C   0  0  0  0  0  0  0  0  0  0  0  0
   -3.3619   -0.5833   -8.3445 C   0  0  0  0  0  0  0  0  0  0  0  0
   -5.7008    0.2596   -7.8527 C   0  0  0  0  0  0  0  0  0  0  0  0
   -5.4718    1.7539   -8.0458 C   0  0  0  0  0  0  0  0  0  0  0  0
   -5.2490    2.4306   -6.6968 C   0  0  0  0  0  0  0  0  0  0  0  0
   -3.7739    3.5110   -4.1938 C   0  0  0  0  0  0  0  0  0  0  0  0
   -2.9909    3.9755   -3.1959 C   0  0  0  0  0  0  0  0  0  0  0  0
   -3.1193    5.2389   -2.5587 C   0  0  0  0  0  0  0  0  0  0  0  0
   -2.2561    5.7694   -1.6414 C   0  0  0  0  0  0  0  0  0  0  0  0
   -2.6486    7.0333   -1.1393 C   0  0  0  0  0  0  0  0  0  0  0  0
   -1.9919    7.8206   -0.1726 C   0  0  0  0  0  0  0  0  0  0  0  0
   -0.6695    7.4926    0.3210 C   0  0  0  0  0  0  0  0  0  0  0  0
   -0.1886    7.6618    1.5919 C   0  0  0  0  0  0  0  0  0  0  0  0
    1.1820    7.3903    1.7718 C   0  0  0  0  0  0  0  0  0  0  0  0
    1.8461    7.0054    0.6462 C   0  0  0  0  0  0  0  0  0  0  0  0
    3.5484    6.5990    0.5181 S   0  0  0  0  0  0  0  0  0  0  0  0
    3.6200    5.1930    1.6872 C   0  0  0  0  0  0  0  0  0  0  0  0
    2.8213    4.0097    1.1846 C   0  0  0  0  0  0  0  0  0  0  0  0
    0.7076    6.9224   -0.8420 Se  0  0  0  0  0  2  0  0  0  0  0  0
   -2.6615    8.9712    0.2378 C   0  0  0  0  0  0  0  0  0  0  0  0
   -3.9108    9.3749   -0.2867 C   0  0  0  0  0  0  0  0  0  0  0  0
   -4.5497    8.6053   -1.2775 C   0  0  0  0  0  0  0  0  0  0  0  0
   -5.8413    8.9519   -1.8359 C   0  0  0  0  0  0  0  0  0  0  0  0
   -6.2327    8.8446   -3.1395 C   0  0  0  0  0  0  0  0  0  0  0  0
   -7.5791    9.1605   -3.4114 C   0  0  0  0  0  0  0  0  0  0  0  0
   -8.3254    9.5049   -2.3224 C   0  0  0  0  0  0  0  0  0  0  0  0
  -10.0443    9.8273   -2.3892 S   0  0  0  0  0  0  0  0  0  0  0  0
  -10.3232   10.6886   -0.8035 C   0  0  0  0  0  0  0  0  0  0  0  0
   -9.7647   12.0972   -0.8088 C   0  0  0  0  0  0  0  0  0  0  0  0
   -7.2952    9.4580   -0.7454 Se  0  0  0  0  0  2  0  0  0  0  0  0
   -3.8871    7.4509   -1.6826 C   0  0  0  0  0  0  0  0  0  0  0  0
   -4.4838    6.3011   -2.8508 S   0  0  0  0  0  0  0  0  0  0  0  0
   -4.3313   10.6220    0.2632 C   0  0  0  0  0  0  0  0  0  0  0  0
   -3.4584   11.1269    1.1578 C   0  0  0  0  0  0  0  0  0  0  0  0
   -2.0662   10.1302    1.3980 S   0  0  0  0  0  0  0  0  0  0  0  0
    7.8089    2.4355   -0.1413 H   0  0  0  0  0  0  0  0  0  0  0  0
    7.6559   -0.1552   -0.1049 H   0  0  0  0  0  0  0  0  0  0  0  0
    4.7755   -3.7042    1.0951 H   0  0  0  0  0  0  0  0  0  0  0  0
    6.1662   -5.5360   -0.0181 H   0  0  0  0  0  0  0  0  0  0  0  0
   10.6647   -3.6905   -0.1369 H   0  0  0  0  0  0  0  0  0  0  0  0
   11.2883   -4.9799   -1.1935 H   0  0  0  0  0  0  0  0  0  0  0  0
   10.9417   -2.8584   -2.4910 H   0  0  0  0  0  0  0  0  0  0  0  0
    9.2361   -2.8582   -2.0275 H   0  0  0  0  0  0  0  0  0  0  0  0
    9.8667   -4.1406   -3.0687 H   0  0  0  0  0  0  0  0  0  0  0  0
    2.2141    1.3618    4.2878 H   0  0  0  0  0  0  0  0  0  0  0  0
    1.5192    3.5150    5.4271 H   0  0  0  0  0  0  0  0  0  0  0  0
    1.5623    5.0646    7.0675 H   0  0  0  0  0  0  0  0  0  0  0  0
    1.8740    6.7859    7.3554 H   0  0  0  0  0  0  0  0  0  0  0  0
    1.0287    7.3809    5.1227 H   0  0  0  0  0  0  0  0  0  0  0  0
    0.7772    5.6816    4.7139 H   0  0  0  0  0  0  0  0  0  0  0  0
   -0.2076    6.4462    5.9677 H   0  0  0  0  0  0  0  0  0  0  0  0
    3.2575   -0.1823    5.5317 H   0  0  0  0  0  0  0  0  0  0  0  0
    1.0453   -1.0399    4.8574 H   0  0  0  0  0  0  0  0  0  0  0  0
    1.8991   -0.3528    7.0940 H   0  0  0  0  0  0  0  0  0  0  0  0
    0.3224    0.3733    6.7614 H   0  0  0  0  0  0  0  0  0  0  0  0
    0.4651   -1.0011    7.8627 H   0  0  0  0  0  0  0  0  0  0  0  0
   -0.9483   -2.3648    4.5875 H   0  0  0  0  0  0  0  0  0  0  0  0
   -1.4016   -0.8952    5.4650 H   0  0  0  0  0  0  0  0  0  0  0  0
   -1.2689   -2.1924    7.6177 H   0  0  0  0  0  0  0  0  0  0  0  0
   -2.4864   -2.8214    6.5152 H   0  0  0  0  0  0  0  0  0  0  0  0
   -0.9536   -4.5798    7.6218 H   0  0  0  0  0  0  0  0  0  0  0  0
   -1.1479   -4.6803    5.8761 H   0  0  0  0  0  0  0  0  0  0  0  0
    1.2560   -6.7282    7.9180 H   0  0  0  0  0  0  0  0  0  0  0  0
    0.5131   -8.2889    6.2467 H   0  0  0  0  0  0  0  0  0  0  0  0
   -0.1810   -8.8754    3.8656 H   0  0  0  0  0  0  0  0  0  0  0  0
    0.7311  -10.3368    2.4110 H   0  0  0  0  0  0  0  0  0  0  0  0
   -0.4105  -12.5995    2.0754 H   0  0  0  0  0  0  0  0  0  0  0  0
   -4.3873  -13.3525   -1.3262 H   0  0  0  0  0  0  0  0  0  0  0  0
   -4.0268  -11.6351   -1.0240 H   0  0  0  0  0  0  0  0  0  0  0  0
   -3.1866  -12.3477   -3.2842 H   0  0  0  0  0  0  0  0  0  0  0  0
   -1.8420  -11.8971   -2.2303 H   0  0  0  0  0  0  0  0  0  0  0  0
   -2.2032  -13.6044   -2.5181 H   0  0  0  0  0  0  0  0  0  0  0  0
    2.6691   -4.1013   -0.7086 H   0  0  0  0  0  0  0  0  0  0  0  0
    3.2169   -1.6035   -0.4761 H   0  0  0  0  0  0  0  0  0  0  0  0
    0.3987    1.6634    2.1947 H   0  0  0  0  0  0  0  0  0  0  0  0
   -0.0378   -0.0285    2.5619 H   0  0  0  0  0  0  0  0  0  0  0  0
   -0.3180   -0.4800    0.1219 H   0  0  0  0  0  0  0  0  0  0  0  0
    0.1394    1.1855   -0.2511 H   0  0  0  0  0  0  0  0  0  0  0  0
   -1.3702    0.8532    0.6101 H   0  0  0  0  0  0  0  0  0  0  0  0
    0.4477   -4.3004   -1.5668 H   0  0  0  0  0  0  0  0  0  0  0  0
   -1.9919   -7.8832   -5.6446 H   0  0  0  0  0  0  0  0  0  0  0  0
   -0.7293   -8.7869   -3.7948 H   0  0  0  0  0  0  0  0  0  0  0  0
    0.7102   -7.8562   -4.2304 H   0  0  0  0  0  0  0  0  0  0  0  0
    0.1534   -9.1725   -5.2641 H   0  0  0  0  0  0  0  0  0  0  0  0
    0.5704   -6.4946   -6.5095 H   0  0  0  0  0  0  0  0  0  0  0  0
   -0.0402   -7.9727   -7.2429 H   0  0  0  0  0  0  0  0  0  0  0  0
   -0.5970   -5.4751   -8.1994 H   0  0  0  0  0  0  0  0  0  0  0  0
   -1.6451   -6.8612   -8.4709 H   0  0  0  0  0  0  0  0  0  0  0  0
   -3.2086   -6.1973   -6.8657 H   0  0  0  0  0  0  0  0  0  0  0  0
   -2.7049   -4.6514   -7.5487 H   0  0  0  0  0  0  0  0  0  0  0  0
   -3.1250   -2.7338   -6.5080 H   0  0  0  0  0  0  0  0  0  0  0  0
   -1.9374   -1.5055   -3.9753 H   0  0  0  0  0  0  0  0  0  0  0  0
   -4.7534   -1.4369   -6.9482 H   0  0  0  0  0  0  0  0  0  0  0  0
   -3.7199   -1.1866   -9.1764 H   0  0  0  0  0  0  0  0  0  0  0  0
   -3.0631    0.3893   -8.7263 H   0  0  0  0  0  0  0  0  0  0  0  0
   -2.4802   -1.0576   -7.9207 H   0  0  0  0  0  0  0  0  0  0  0  0
   -6.5377    0.1167   -7.1647 H   0  0  0  0  0  0  0  0  0  0  0  0
   -5.9659   -0.2056   -8.8041 H   0  0  0  0  0  0  0  0  0  0  0  0
   -4.6037    1.9171   -8.6859 H   0  0  0  0  0  0  0  0  0  0  0  0
   -6.3356    2.2021   -8.5401 H   0  0  0  0  0  0  0  0  0  0  0  0
   -4.9049    3.4565   -6.8435 H   0  0  0  0  0  0  0  0  0  0  0  0
   -6.1988    2.4784   -6.1525 H   0  0  0  0  0  0  0  0  0  0  0  0
   -4.5564    4.1406   -4.5958 H   0  0  0  0  0  0  0  0  0  0  0  0
   -2.1843    3.3538   -2.8268 H   0  0  0  0  0  0  0  0  0  0  0  0
   -1.3770    5.2407   -1.3134 H   0  0  0  0  0  0  0  0  0  0  0  0
   -0.8199    7.9623    2.4112 H   0  0  0  0  0  0  0  0  0  0  0  0
    1.6773    7.4942    2.7221 H   0  0  0  0  0  0  0  0  0  0  0  0
    3.2651    5.5454    2.6550 H   0  0  0  0  0  0  0  0  0  0  0  0
    4.6805    4.9539    1.7576 H   0  0  0  0  0  0  0  0  0  0  0  0
    2.9374    3.1657    1.8621 H   0  0  0  0  0  0  0  0  0  0  0  0
    3.1700    3.7092    0.1992 H   0  0  0  0  0  0  0  0  0  0  0  0
    1.7632    4.2627    1.1162 H   0  0  0  0  0  0  0  0  0  0  0  0
   -5.5427    8.5828   -3.9238 H   0  0  0  0  0  0  0  0  0  0  0  0
   -7.9948    9.1365   -4.4038 H   0  0  0  0  0  0  0  0  0  0  0  0
   -9.8710   10.0758   -0.0171 H   0  0  0  0  0  0  0  0  0  0  0  0
  -11.4054   10.6906   -0.6763 H   0  0  0  0  0  0  0  0  0  0  0  0
  -10.2155   12.6809   -1.6080 H   0  0  0  0  0  0  0  0  0  0  0  0
   -9.9738   12.5813    0.1428 H   0  0  0  0  0  0  0  0  0  0  0  0
   -8.6849   12.0806   -0.9578 H   0  0  0  0  0  0  0  0  0  0  0  0
   -5.2387   11.1267   -0.0221 H   0  0  0  0  0  0  0  0  0  0  0  0
   -3.5346   12.0433    1.7095 H   0  0  0  0  0  0  0  0  0  0  0  0
  1  2  2  0  0  0  0
  2  3  1  0  0  0  0
  3  4  2  0  0  0  0
  4  5  1  0  0  0  0
  5  6  2  0  0  0  0
  6  7  1  0  0  0  0
  7  8  2  0  0  0  0
  8  9  1  0  0  0  0
  9 10  1  0  0  0  0
 10 11  1  0  0  0  0
  8 12  1  0  0  0  0
  4 13  1  0  0  0  0
 13 14  2  0  0  0  0
 14 15  1  0  0  0  0
 15 16  1  0  0  0  0
 16 17  2  0  0  0  0
 17 18  1  0  0  0  0
 18 19  2  0  0  0  0
 19 20  1  0  0  0  0
 20 21  1  0  0  0  0
 21 22  1  0  0  0  0
 19 23  1  0  0  0  0
 15 24  2  0  0  0  0
 24 25  1  0  0  0  0
 14 26  1  0  0  0  0
 26 27  2  0  0  0  0
 27 28  1  0  0  0  0
 27 29  1  0  0  0  0
 29 30  1  0  0  0  0
 30 31  1  0  0  0  0
 31 32  2  0  0  0  0
 32 33  1  0  0  0  0
 33 34  1  0  0  0  0
 34 35  1  0  0  0  0
 34 36  1  0  0  0  0
 36 37  1  0  0  0  0
 37 38  1  0  0  0  0
 31 39  1  0  0  0  0
 39 40  2  0  0  0  0
 40 41  1  0  0  0  0
 41 42  2  0  0  0  0
 42 43  1  0  0  0  0
 43 44  2  0  0  0  0
 44 45  1  0  0  0  0
 45 46  2  0  0  0  0
 46 47  1  0  0  0  0
 47 48  2  0  0  0  0
 48 49  1  0  0  0  0
 49 50  1  0  0  0  0
 50 51  1  0  0  0  0
 48 52  1  0  0  0  0
 44 53  1  0  0  0  0
 53 54  2  0  0  0  0
 54 55  1  0  0  0  0
 55 56  1  0  0  0  0
 56 57  2  0  0  0  0
 57 58  1  0  0  0  0
 58 59  2  0  0  0  0
 59 60  1  0  0  0  0
 60 61  1  0  0  0  0
 61 62  1  0  0  0  0
 59 63  1  0  0  0  0
 55 64  2  0  0  0  0
 64 65  1  0  0  0  0
 54 66  1  0  0  0  0
 66 67  2  0  0  0  0
 67 68  1  0  0  0  0
 67 69  1  0  0  0  0
 69 70  1  0  0  0  0
 70 71  1  0  0  0  0
 71 72  2  0  0  0  0
 72 73  1  0  0  0  0
 73 74  1  0  0  0  0
 74 75  1  0  0  0  0
 74 76  1  0  0  0  0
 76 77  1  0  0  0  0
 77 78  1  0  0  0  0
 71 79  1  0  0  0  0
 79 80  2  0  0  0  0
 80 81  1  0  0  0  0
 81 82  1  0  0  0  0
 82 83  1  0  0  0  0
 83 84  2  0  0  0  0
 84 85  1  0  0  0  0
 85 86  1  0  0  0  0
 86 87  1  0  0  0  0
 86 88  1  0  0  0  0
 88 89  1  0  0  0  0
 89 90  1  0  0  0  0
 83 91  1  0  0  0  0
 91 92  2  0  0  0  0
 92 93  1  0  0  0  0
 93 94  2  0  0  0  0
 94 95  1  0  0  0  0
 95 96  2  0  0  0  0
 96 97  1  0  0  0  0
 97 98  2  0  0  0  0
 98 99  1  0  0  0  0
 99100  2  0  0  0  0
100101  1  0  0  0  0
101102  1  0  0  0  0
102103  1  0  0  0  0
100104  1  0  0  0  0
 96105  1  0  0  0  0
105106  2  0  0  0  0
106107  1  0  0  0  0
107108  1  0  0  0  0
108109  2  0  0  0  0
109110  1  0  0  0  0
110111  2  0  0  0  0
111112  1  0  0  0  0
112113  1  0  0  0  0
113114  1  0  0  0  0
111115  1  0  0  0  0
107116  2  0  0  0  0
116117  1  0  0  0  0
106118  1  0  0  0  0
118119  2  0  0  0  0
119120  1  0  0  0  0
 25  1  1  0  0  0  0
 33 29  2  0  0  0  0
 65 41  1  0  0  0  0
 73 69  2  0  0  0  0
 85 81  2  0  0  0  0
117 93  1  0  0  0  0
 24  3  1  0  0  0  0
 38 32  1  0  0  0  0
 64 43  1  0  0  0  0
 78 72  1  0  0  0  0
 90 84  1  0  0  0  0
116 95  1  0  0  0  0
 12  5  1  0  0  0  0
 28 13  1  0  0  0  0
 52 45  1  0  0  0  0
 68 53  1  0  0  0  0
104 97  1  0  0  0  0
120105  1  0  0  0  0
 23 16  1  0  0  0  0
 63 56  1  0  0  0  0
115108  1  0  0  0  0
  1121  1  0  0  0  0
  2122  1  0  0  0  0
  6123  1  0  0  0  0
  7124  1  0  0  0  0
 10125  1  0  0  0  0
 10126  1  0  0  0  0
 11127  1  0  0  0  0
 11128  1  0  0  0  0
 11129  1  0  0  0  0
 17130  1  0  0  0  0
 18131  1  0  0  0  0
 21132  1  0  0  0  0
 21133  1  0  0  0  0
 22134  1  0  0  0  0
 22135  1  0  0  0  0
 22136  1  0  0  0  0
 26137  1  0  0  0  0
 34138  1  0  0  0  0
 35139  1  0  0  0  0
 35140  1  0  0  0  0
 35141  1  0  0  0  0
 36142  1  0  0  0  0
 36143  1  0  0  0  0
 37144  1  0  0  0  0
 37145  1  0  0  0  0
 38146  1  0  0  0  0
 38147  1  0  0  0  0
 39148  1  0  0  0  0
 40149  1  0  0  0  0
 42150  1  0  0  0  0
 46151  1  0  0  0  0
 47152  1  0  0  0  0
 50153  1  0  0  0  0
 50154  1  0  0  0  0
 51155  1  0  0  0  0
 51156  1  0  0  0  0
 51157  1  0  0  0  0
 57158  1  0  0  0  0
 58159  1  0  0  0  0
 61160  1  0  0  0  0
 61161  1  0  0  0  0
 62162  1  0  0  0  0
 62163  1  0  0  0  0
 62164  1  0  0  0  0
 66165  1  0  0  0  0
 74166  1  0  0  0  0
 75167  1  0  0  0  0
 75168  1  0  0  0  0
 75169  1  0  0  0  0
 76170  1  0  0  0  0
 76171  1  0  0  0  0
 77172  1  0  0  0  0
 77173  1  0  0  0  0
 78174  1  0  0  0  0
 78175  1  0  0  0  0
 79176  1  0  0  0  0
 80177  1  0  0  0  0
 86178  1  0  0  0  0
 87179  1  0  0  0  0
 87180  1  0  0  0  0
 87181  1  0  0  0  0
 88182  1  0  0  0  0
 88183  1  0  0  0  0
 89184  1  0  0  0  0
 89185  1  0  0  0  0
 90186  1  0  0  0  0
 90187  1  0  0  0  0
 91188  1  0  0  0  0
 92189  1  0  0  0  0
 94190  1  0  0  0  0
 98191  1  0  0  0  0
 99192  1  0  0  0  0
102193  1  0  0  0  0
102194  1  0  0  0  0
103195  1  0  0  0  0
103196  1  0  0  0  0
103197  1  0  0  0  0
109198  1  0  0  0  0
110199  1  0  0  0  0
113200  1  0  0  0  0
113201  1  0  0  0  0
114202  1  0  0  0  0
114203  1  0  0  0  0
114204  1  0  0  0  0
118205  1  0  0  0  0
119206  1  0  0  0  0
M  END
