
  xtb     03072220213D
 energy: -282.340255929499 gnorm: 0.000261135245 xtb: 6.4.1 (unknown)
173190  0     0  0            999 V2000
    9.5750   -0.2386   12.7642 C   0  0  0  0  0  0  0  0  0  0  0  0
   10.1180   -0.9769   11.7759 C   0  0  0  0  0  0  0  0  0  0  0  0
    9.2053   -1.2486   10.7140 C   0  0  0  0  0  0  0  0  0  0  0  0
    9.4588   -1.9478    9.5184 C   0  0  0  0  0  0  0  0  0  0  0  0
   10.7736   -2.4335    9.1523 C   0  0  0  0  0  0  0  0  0  0  0  0
   11.0783   -3.6125    8.5339 C   0  0  0  0  0  0  0  0  0  0  0  0
   12.4336   -3.8066    8.2007 C   0  0  0  0  0  0  0  0  0  0  0  0
   13.2626   -2.7689    8.5150 C   0  0  0  0  0  0  0  0  0  0  0  0
   14.9638   -2.7337    8.1049 S   0  0  0  0  0  0  0  0  0  0  0  0
   15.5723   -1.3542    9.1363 C   0  0  0  0  0  0  0  0  0  0  0  0
   15.6612   -1.7262   10.6023 C   0  0  0  0  0  0  0  0  0  0  0  0
   12.3152   -1.3598    9.3296 Se  0  0  0  0  0  2  0  0  0  0  0  0
    8.3745   -2.1055    8.6611 C   0  0  0  0  0  0  0  0  0  0  0  0
    7.0940   -1.5672    8.9242 C   0  0  0  0  0  0  0  0  0  0  0  0
    6.8540   -0.8079   10.0876 C   0  0  0  0  0  0  0  0  0  0  0  0
    5.6048   -0.1146   10.3122 C   0  0  0  0  0  0  0  0  0  0  0  0
    4.9914    0.1470   11.5074 C   0  0  0  0  0  0  0  0  0  0  0  0
    3.8464    0.9640   11.4580 C   0  0  0  0  0  0  0  0  0  0  0  0
    3.5114    1.4178   10.2128 C   0  0  0  0  0  0  0  0  0  0  0  0
    2.1530    2.4645    9.8768 S   0  0  0  0  0  0  0  0  0  0  0  0
    2.3525    2.7105    8.0741 C   0  0  0  0  0  0  0  0  0  0  0  0
    1.3814    3.7613    7.5799 C   0  0  0  0  0  0  0  0  0  0  0  0
    4.6849    0.7525    8.9042 Se  0  0  0  0  0  2  0  0  0  0  0  0
    7.9280   -0.6994   10.9713 C   0  0  0  0  0  0  0  0  0  0  0  0
    7.9185    0.1677   12.4854 S   0  0  0  0  0  0  0  0  0  0  0  0
    6.1835   -1.8608    7.8839 C   0  0  0  0  0  0  0  0  0  0  0  0
    6.7234   -2.5441    6.8315 C   0  0  0  0  0  0  0  0  0  0  0  0
    8.4152   -2.9053    7.1098 S   0  0  0  0  0  0  0  0  0  0  0  0
    6.0186   -2.8448    5.6280 C   0  0  0  0  0  0  0  0  0  0  0  0
    4.4884   -2.0386    5.4205 S   0  0  0  0  0  0  0  0  0  0  0  0
    4.2844   -2.7361    3.8399 C   0  0  0  0  0  0  0  0  0  0  0  0
    5.3455   -3.5565    3.5121 C   0  0  0  0  0  0  0  0  0  0  0  0
    6.3260   -3.6264    4.5331 C   0  0  0  0  0  0  0  0  0  0  0  0
    7.5589   -4.4632    4.4432 C   0  0  0  0  0  0  0  0  0  0  0  0
    5.4346   -4.2665    2.2027 C   0  0  0  0  0  0  0  0  0  0  0  0
    3.1093   -2.3731    3.1226 C   0  0  0  0  0  0  0  0  0  0  0  0
    2.1489   -1.5202    3.5910 C   0  0  0  0  0  0  0  0  0  0  0  0
    1.0793   -1.2932    2.6979 C   0  0  0  0  0  0  0  0  0  0  0  0
   -0.0471   -0.4615    2.8849 C   0  0  0  0  0  0  0  0  0  0  0  0
   -0.3320    0.1823    4.1472 C   0  0  0  0  0  0  0  0  0  0  0  0
   -0.9789    1.3700    4.3593 C   0  0  0  0  0  0  0  0  0  0  0  0
   -1.2216    1.7213    5.7001 C   0  0  0  0  0  0  0  0  0  0  0  0
   -0.7890    0.8144    6.6270 C   0  0  0  0  0  0  0  0  0  0  0  0
   -0.9659    1.0421    8.3543 S   0  0  0  0  0  0  0  0  0  0  0  0
    0.0212   -0.3296    9.0469 C   0  0  0  0  0  0  0  0  0  0  0  0
   -0.7562   -1.6284    9.1083 C   0  0  0  0  0  0  0  0  0  0  0  0
    0.0280   -0.6609    5.7998 Se  0  0  0  0  0  2  0  0  0  0  0  0
   -0.8933   -0.3361    1.7841 C   0  0  0  0  0  0  0  0  0  0  0  0
   -0.6942   -1.0178    0.5584 C   0  0  0  0  0  0  0  0  0  0  0  0
    0.4133   -1.8759    0.3906 C   0  0  0  0  0  0  0  0  0  0  0  0
    0.6458   -2.5918   -0.8466 C   0  0  0  0  0  0  0  0  0  0  0  0
    0.4791   -2.1283   -2.1216 C   0  0  0  0  0  0  0  0  0  0  0  0
    0.7110   -3.0560   -3.1584 C   0  0  0  0  0  0  0  0  0  0  0  0
    1.0746   -4.3007   -2.7375 C   0  0  0  0  0  0  0  0  0  0  0  0
    1.4115   -5.7349   -3.6828 S   0  0  0  0  0  0  0  0  0  0  0  0
    1.9486   -5.0341   -5.2850 C   0  0  0  0  0  0  0  0  0  0  0  0
    3.2482   -4.2642   -5.1649 C   0  0  0  0  0  0  0  0  0  0  0  0
    1.1943   -4.4052   -0.8676 Se  0  0  0  0  0  2  0  0  0  0  0  0
    1.2660   -1.9896    1.4816 C   0  0  0  0  0  0  0  0  0  0  0  0
    2.7281   -2.9388    1.5088 S   0  0  0  0  0  0  0  0  0  0  0  0
   -1.7274   -0.7467   -0.3700 C   0  0  0  0  0  0  0  0  0  0  0  0
   -2.6791    0.1178    0.0860 C   0  0  0  0  0  0  0  0  0  0  0  0
   -2.3506    0.6202    1.7318 S   0  0  0  0  0  0  0  0  0  0  0  0
   -3.7493    0.6701   -0.6807 C   0  0  0  0  0  0  0  0  0  0  0  0
   -3.6609    0.5244   -2.4161 S   0  0  0  0  0  0  0  0  0  0  0  0
   -5.0920    1.4942   -2.6063 C   0  0  0  0  0  0  0  0  0  0  0  0
   -5.6207    1.8579   -1.3928 C   0  0  0  0  0  0  0  0  0  0  0  0
   -4.8538    1.3954   -0.2923 C   0  0  0  0  0  0  0  0  0  0  0  0
   -5.2071    1.6780    1.1296 C   0  0  0  0  0  0  0  0  0  0  0  0
   -6.9004    2.6150   -1.2471 C   0  0  0  0  0  0  0  0  0  0  0  0
   -5.5246    1.8598   -3.9314 C   0  0  0  0  0  0  0  0  0  0  0  0
   -5.8089    0.6386   -5.1351 S   0  0  0  0  0  0  0  0  0  0  0  0
   -6.1681    1.8526   -6.3348 C   0  0  0  0  0  0  0  0  0  0  0  0
   -6.0708    3.1229   -5.8095 C   0  0  0  0  0  0  0  0  0  0  0  0
   -5.6931    3.1233   -4.4429 C   0  0  0  0  0  0  0  0  0  0  0  0
   -5.4249    4.3709   -3.6651 C   0  0  0  0  0  0  0  0  0  0  0  0
   -6.3284    4.3738   -6.5823 C   0  0  0  0  0  0  0  0  0  0  0  0
   -6.4780    1.4225   -7.6601 C   0  0  0  0  0  0  0  0  0  0  0  0
   -6.7710    0.1515   -8.0590 C   0  0  0  0  0  0  0  0  0  0  0  0
   -7.0055    0.0191   -9.4507 C   0  0  0  0  0  0  0  0  0  0  0  0
   -7.3478   -1.1423  -10.1737 C   0  0  0  0  0  0  0  0  0  0  0  0
   -7.3809   -2.4412   -9.5425 C   0  0  0  0  0  0  0  0  0  0  0  0
   -6.5221   -2.9287   -8.5957 C   0  0  0  0  0  0  0  0  0  0  0  0
   -6.7891   -4.2284   -8.1250 C   0  0  0  0  0  0  0  0  0  0  0  0
   -7.8901   -4.8259   -8.6698 C   0  0  0  0  0  0  0  0  0  0  0  0
   -8.4739   -6.4004   -8.1802 S   0  0  0  0  0  0  0  0  0  0  0  0
   -9.6963   -6.7714   -9.4859 C   0  0  0  0  0  0  0  0  0  0  0  0
   -9.0428   -7.1491  -10.7998 C   0  0  0  0  0  0  0  0  0  0  0  0
   -8.7270   -3.7032   -9.9317 Se  0  0  0  0  0  2  0  0  0  0  0  0
   -7.6565   -0.9545  -11.5196 C   0  0  0  0  0  0  0  0  0  0  0  0
   -7.5673    0.2896  -12.1822 C   0  0  0  0  0  0  0  0  0  0  0  0
   -7.1236    1.4304  -11.4838 C   0  0  0  0  0  0  0  0  0  0  0  0
   -6.9061    2.6933  -12.1515 C   0  0  0  0  0  0  0  0  0  0  0  0
   -6.4108    2.8893  -13.4117 C   0  0  0  0  0  0  0  0  0  0  0  0
   -6.3142    4.2259  -13.8431 C   0  0  0  0  0  0  0  0  0  0  0  0
   -6.7333    5.1575  -12.9365 C   0  0  0  0  0  0  0  0  0  0  0  0
   -6.6386    6.8817  -13.2197 S   0  0  0  0  0  0  0  0  0  0  0  0
   -7.5549    7.5525  -11.7896 C   0  0  0  0  0  0  0  0  0  0  0  0
   -9.0542    7.3916  -11.9382 C   0  0  0  0  0  0  0  0  0  0  0  0
   -7.2955    4.3453  -11.3308 Se  0  0  0  0  0  2  0  0  0  0  0  0
   -6.8986    1.2592  -10.1204 C   0  0  0  0  0  0  0  0  0  0  0  0
   -6.4574    2.5318   -9.0189 S   0  0  0  0  0  0  0  0  0  0  0  0
   -8.0037    0.1936  -13.5373 C   0  0  0  0  0  0  0  0  0  0  0  0
   -8.3638   -1.0561  -13.8893 C   0  0  0  0  0  0  0  0  0  0  0  0
   -8.1946   -2.2069  -12.6079 S   0  0  0  0  0  0  0  0  0  0  0  0
   10.0393    0.0951   13.6714 H   0  0  0  0  0  0  0  0  0  0  0  0
   11.1301   -1.3438   11.8038 H   0  0  0  0  0  0  0  0  0  0  0  0
   10.3372   -4.3733    8.3558 H   0  0  0  0  0  0  0  0  0  0  0  0
   12.7963   -4.7057    7.7335 H   0  0  0  0  0  0  0  0  0  0  0  0
   16.5537   -1.1166    8.7271 H   0  0  0  0  0  0  0  0  0  0  0  0
   14.9004   -0.5058    8.9726 H   0  0  0  0  0  0  0  0  0  0  0  0
   16.0463   -0.8846   11.1741 H   0  0  0  0  0  0  0  0  0  0  0  0
   14.6769   -1.9865   10.9920 H   0  0  0  0  0  0  0  0  0  0  0  0
   16.3238   -2.5777   10.7384 H   0  0  0  0  0  0  0  0  0  0  0  0
    5.3389   -0.2754   12.4348 H   0  0  0  0  0  0  0  0  0  0  0  0
    3.2801    1.2270   12.3345 H   0  0  0  0  0  0  0  0  0  0  0  0
    3.3891    3.0164    7.9043 H   0  0  0  0  0  0  0  0  0  0  0  0
    2.1769    1.7455    7.5888 H   0  0  0  0  0  0  0  0  0  0  0  0
    1.5870    4.7199    8.0503 H   0  0  0  0  0  0  0  0  0  0  0  0
    0.3601    3.4712    7.8145 H   0  0  0  0  0  0  0  0  0  0  0  0
    1.4753    3.8693    6.5016 H   0  0  0  0  0  0  0  0  0  0  0  0
    5.1361   -1.6109    7.9105 H   0  0  0  0  0  0  0  0  0  0  0  0
    8.3573   -3.9153    3.9421 H   0  0  0  0  0  0  0  0  0  0  0  0
    7.9101   -4.7365    5.4346 H   0  0  0  0  0  0  0  0  0  0  0  0
    7.3631   -5.3762    3.8862 H   0  0  0  0  0  0  0  0  0  0  0  0
    6.3716   -4.8058    2.1109 H   0  0  0  0  0  0  0  0  0  0  0  0
    4.6100   -4.9708    2.0920 H   0  0  0  0  0  0  0  0  0  0  0  0
    5.3670   -3.5526    1.3824 H   0  0  0  0  0  0  0  0  0  0  0  0
    2.2568   -1.0334    4.5460 H   0  0  0  0  0  0  0  0  0  0  0  0
   -1.2457    2.0305    3.5524 H   0  0  0  0  0  0  0  0  0  0  0  0
   -1.7088    2.6390    5.9812 H   0  0  0  0  0  0  0  0  0  0  0  0
    0.3034    0.0130   10.0423 H   0  0  0  0  0  0  0  0  0  0  0  0
    0.9216   -0.4270    8.4328 H   0  0  0  0  0  0  0  0  0  0  0  0
   -0.1364   -2.4068    9.5482 H   0  0  0  0  0  0  0  0  0  0  0  0
   -1.0530   -1.9486    8.1087 H   0  0  0  0  0  0  0  0  0  0  0  0
   -1.6518   -1.5073    9.7132 H   0  0  0  0  0  0  0  0  0  0  0  0
    0.2227   -1.1035   -2.3330 H   0  0  0  0  0  0  0  0  0  0  0  0
    0.5954   -2.7874   -4.1943 H   0  0  0  0  0  0  0  0  0  0  0  0
    1.1382   -4.4193   -5.6742 H   0  0  0  0  0  0  0  0  0  0  0  0
    2.0655   -5.9088   -5.9243 H   0  0  0  0  0  0  0  0  0  0  0  0
    3.5476   -3.8896   -6.1418 H   0  0  0  0  0  0  0  0  0  0  0  0
    3.1347   -3.4197   -4.4880 H   0  0  0  0  0  0  0  0  0  0  0  0
    4.0350   -4.9097   -4.7815 H   0  0  0  0  0  0  0  0  0  0  0  0
   -1.7843   -1.1921   -1.3460 H   0  0  0  0  0  0  0  0  0  0  0  0
   -6.2523    1.9600    1.2155 H   0  0  0  0  0  0  0  0  0  0  0  0
   -5.0259    0.8058    1.7543 H   0  0  0  0  0  0  0  0  0  0  0  0
   -4.5973    2.4951    1.5166 H   0  0  0  0  0  0  0  0  0  0  0  0
   -6.7306    3.5782   -0.7673 H   0  0  0  0  0  0  0  0  0  0  0  0
   -7.3536    2.7802   -2.2202 H   0  0  0  0  0  0  0  0  0  0  0  0
   -7.6003    2.0488   -0.6331 H   0  0  0  0  0  0  0  0  0  0  0  0
   -4.7644    5.0266   -4.2303 H   0  0  0  0  0  0  0  0  0  0  0  0
   -6.3493    4.9109   -3.4604 H   0  0  0  0  0  0  0  0  0  0  0  0
   -4.9481    4.1296   -2.7194 H   0  0  0  0  0  0  0  0  0  0  0  0
   -5.5068    4.5748   -7.2707 H   0  0  0  0  0  0  0  0  0  0  0  0
   -6.4337    5.2212   -5.9117 H   0  0  0  0  0  0  0  0  0  0  0  0
   -7.2387    4.2819   -7.1728 H   0  0  0  0  0  0  0  0  0  0  0  0
   -6.8572   -0.6611   -7.3603 H   0  0  0  0  0  0  0  0  0  0  0  0
   -5.6562   -2.3764   -8.2708 H   0  0  0  0  0  0  0  0  0  0  0  0
   -6.1718   -4.7221   -7.3945 H   0  0  0  0  0  0  0  0  0  0  0  0
  -10.3349   -5.8884   -9.5895 H   0  0  0  0  0  0  0  0  0  0  0  0
  -10.2864   -7.5950   -9.0852 H   0  0  0  0  0  0  0  0  0  0  0  0
   -8.4438   -6.3227  -11.1829 H   0  0  0  0  0  0  0  0  0  0  0  0
   -9.8076   -7.3886  -11.5356 H   0  0  0  0  0  0  0  0  0  0  0  0
   -8.3973   -8.0143  -10.6680 H   0  0  0  0  0  0  0  0  0  0  0  0
   -6.0690    2.0720  -14.0243 H   0  0  0  0  0  0  0  0  0  0  0  0
   -5.9333    4.4999  -14.8119 H   0  0  0  0  0  0  0  0  0  0  0  0
   -7.2713    8.6037  -11.7484 H   0  0  0  0  0  0  0  0  0  0  0  0
   -7.1782    7.0419  -10.8976 H   0  0  0  0  0  0  0  0  0  0  0  0
   -9.5595    7.8313  -11.0810 H   0  0  0  0  0  0  0  0  0  0  0  0
   -9.3229    6.3363  -11.9930 H   0  0  0  0  0  0  0  0  0  0  0  0
   -9.4008    7.8853  -12.8430 H   0  0  0  0  0  0  0  0  0  0  0  0
   -8.0767    1.0376  -14.1982 H   0  0  0  0  0  0  0  0  0  0  0  0
   -8.7320   -1.3969  -14.8369 H   0  0  0  0  0  0  0  0  0  0  0  0
  1  2  2  0  0  0  0
  2  3  1  0  0  0  0
  3  4  2  0  0  0  0
  4  5  1  0  0  0  0
  5  6  2  0  0  0  0
  6  7  1  0  0  0  0
  7  8  2  0  0  0  0
  8  9  1  0  0  0  0
  9 10  1  0  0  0  0
 10 11  1  0  0  0  0
  8 12  1  0  0  0  0
  4 13  1  0  0  0  0
 13 14  2  0  0  0  0
 14 15  1  0  0  0  0
 15 16  1  0  0  0  0
 16 17  2  0  0  0  0
 17 18  1  0  0  0  0
 18 19  2  0  0  0  0
 19 20  1  0  0  0  0
 20 21  1  0  0  0  0
 21 22  1  0  0  0  0
 19 23  1  0  0  0  0
 15 24  2  0  0  0  0
 24 25  1  0  0  0  0
 14 26  1  0  0  0  0
 26 27  2  0  0  0  0
 27 28  1  0  0  0  0
 27 29  1  0  0  0  0
 29 30  1  0  0  0  0
 30 31  1  0  0  0  0
 31 32  2  0  0  0  0
 32 33  1  0  0  0  0
 33 34  1  0  0  0  0
 32 35  1  0  0  0  0
 31 36  1  0  0  0  0
 36 37  2  0  0  0  0
 37 38  1  0  0  0  0
 38 39  2  0  0  0  0
 39 40  1  0  0  0  0
 40 41  2  0  0  0  0
 41 42  1  0  0  0  0
 42 43  2  0  0  0  0
 43 44  1  0  0  0  0
 44 45  1  0  0  0  0
 45 46  1  0  0  0  0
 43 47  1  0  0  0  0
 39 48  1  0  0  0  0
 48 49  2  0  0  0  0
 49 50  1  0  0  0  0
 50 51  1  0  0  0  0
 51 52  2  0  0  0  0
 52 53  1  0  0  0  0
 53 54  2  0  0  0  0
 54 55  1  0  0  0  0
 55 56  1  0  0  0  0
 56 57  1  0  0  0  0
 54 58  1  0  0  0  0
 50 59  2  0  0  0  0
 59 60  1  0  0  0  0
 49 61  1  0  0  0  0
 61 62  2  0  0  0  0
 62 63  1  0  0  0  0
 62 64  1  0  0  0  0
 64 65  1  0  0  0  0
 65 66  1  0  0  0  0
 66 67  2  0  0  0  0
 67 68  1  0  0  0  0
 68 69  1  0  0  0  0
 67 70  1  0  0  0  0
 66 71  1  0  0  0  0
 71 72  1  0  0  0  0
 72 73  1  0  0  0  0
 73 74  2  0  0  0  0
 74 75  1  0  0  0  0
 75 76  1  0  0  0  0
 74 77  1  0  0  0  0
 73 78  1  0  0  0  0
 78 79  2  0  0  0  0
 79 80  1  0  0  0  0
 80 81  2  0  0  0  0
 81 82  1  0  0  0  0
 82 83  2  0  0  0  0
 83 84  1  0  0  0  0
 84 85  2  0  0  0  0
 85 86  1  0  0  0  0
 86 87  1  0  0  0  0
 87 88  1  0  0  0  0
 85 89  1  0  0  0  0
 81 90  1  0  0  0  0
 90 91  2  0  0  0  0
 91 92  1  0  0  0  0
 92 93  1  0  0  0  0
 93 94  2  0  0  0  0
 94 95  1  0  0  0  0
 95 96  2  0  0  0  0
 96 97  1  0  0  0  0
 97 98  1  0  0  0  0
 98 99  1  0  0  0  0
 96100  1  0  0  0  0
 92101  2  0  0  0  0
101102  1  0  0  0  0
 91103  1  0  0  0  0
103104  2  0  0  0  0
104105  1  0  0  0  0
 25  1  1  0  0  0  0
 33 29  2  0  0  0  0
 60 36  1  0  0  0  0
 68 64  2  0  0  0  0
 75 71  2  0  0  0  0
102 78  1  0  0  0  0
 24  3  1  0  0  0  0
 59 38  1  0  0  0  0
101 80  1  0  0  0  0
 12  5  1  0  0  0  0
 28 13  1  0  0  0  0
 47 40  1  0  0  0  0
 63 48  1  0  0  0  0
 89 82  1  0  0  0  0
105 90  1  0  0  0  0
 23 16  1  0  0  0  0
 58 51  1  0  0  0  0
100 93  1  0  0  0  0
  1106  1  0  0  0  0
  2107  1  0  0  0  0
  6108  1  0  0  0  0
  7109  1  0  0  0  0
 10110  1  0  0  0  0
 10111  1  0  0  0  0
 11112  1  0  0  0  0
 11113  1  0  0  0  0
 11114  1  0  0  0  0
 17115  1  0  0  0  0
 18116  1  0  0  0  0
 21117  1  0  0  0  0
 21118  1  0  0  0  0
 22119  1  0  0  0  0
 22120  1  0  0  0  0
 22121  1  0  0  0  0
 26122  1  0  0  0  0
 34123  1  0  0  0  0
 34124  1  0  0  0  0
 34125  1  0  0  0  0
 35126  1  0  0  0  0
 35127  1  0  0  0  0
 35128  1  0  0  0  0
 37129  1  0  0  0  0
 41130  1  0  0  0  0
 42131  1  0  0  0  0
 45132  1  0  0  0  0
 45133  1  0  0  0  0
 46134  1  0  0  0  0
 46135  1  0  0  0  0
 46136  1  0  0  0  0
 52137  1  0  0  0  0
 53138  1  0  0  0  0
 56139  1  0  0  0  0
 56140  1  0  0  0  0
 57141  1  0  0  0  0
 57142  1  0  0  0  0
 57143  1  0  0  0  0
 61144  1  0  0  0  0
 69145  1  0  0  0  0
 69146  1  0  0  0  0
 69147  1  0  0  0  0
 70148  1  0  0  0  0
 70149  1  0  0  0  0
 70150  1  0  0  0  0
 76151  1  0  0  0  0
 76152  1  0  0  0  0
 76153  1  0  0  0  0
 77154  1  0  0  0  0
 77155  1  0  0  0  0
 77156  1  0  0  0  0
 79157  1  0  0  0  0
 83158  1  0  0  0  0
 84159  1  0  0  0  0
 87160  1  0  0  0  0
 87161  1  0  0  0  0
 88162  1  0  0  0  0
 88163  1  0  0  0  0
 88164  1  0  0  0  0
 94165  1  0  0  0  0
 95166  1  0  0  0  0
 98167  1  0  0  0  0
 98168  1  0  0  0  0
 99169  1  0  0  0  0
 99170  1  0  0  0  0
 99171  1  0  0  0  0
103172  1  0  0  0  0
104173  1  0  0  0  0
M  END
