290

C         -5.60770       -0.71110        9.36270
C         -4.66540        0.10650        8.85010
C         -4.65520        0.11090        7.42540
C         -3.83680        0.85810        6.56460
C         -2.80690        1.76310        7.04980
C         -2.72980        3.10010        6.81200
C         -1.60650        3.75860        7.35930
C         -0.73120        2.95210        8.01580
S          0.73110        3.51330        8.79810
C          1.88250        2.18830        8.28090
C          2.09330        2.18390        6.78100
Se        -1.33780        1.16430        8.06260
C         -4.04710        0.69100        5.20510
C         -4.99870       -0.20740        4.67080
C         -5.82490       -0.95150        5.53010
C         -6.76750       -1.91370        5.00330
C         -7.68390       -1.72930        4.00640
C         -8.46010       -2.85360        3.66820
C         -8.16960       -3.98260        4.38150
S         -8.96510       -5.51970        4.14600
C         -8.11720       -6.51300        5.42820
C         -8.67200       -7.92170        5.45600
Se        -6.78270       -3.68680        5.61440
C         -5.63580       -0.75570        6.89410
S         -6.54860       -1.52420        8.16170
C         -4.89710       -0.30600        3.26190
C         -3.91840        0.47690        2.72840
S         -3.10320        1.43980        3.94680
C         -3.50700        0.52010        1.36590
C         -2.39690        1.10200        0.82760
C         -2.26060        0.88590       -0.56710
C         -1.22740        1.32880       -1.42150
C         -0.15780        2.19710       -0.97200
C          1.14010        2.20120       -1.40570
C          1.93180        3.28840       -0.98730
C          1.28950        4.20760       -0.21160
S          2.03760        5.66960        0.39650
C          0.73980        6.90980        0.02230
C         -0.25650        7.07560        1.15030
Se        -0.47410        3.66690        0.16750
C         -1.31050        0.90840       -2.74810
C         -2.38220        0.13590       -3.25730
C         -3.42680       -0.28220       -2.41210
C         -4.54320       -1.06850       -2.88970
C         -5.12710       -2.13830       -2.27110
C         -6.25020       -2.69020       -2.91640
C         -6.62090       -2.06460       -4.07180
S         -7.93050       -2.61290       -5.09200
C         -8.26590       -1.11620       -6.08550
C         -8.95410       -0.03600       -5.27680
Se        -5.45530       -0.64110       -4.48370
C         -3.31450        0.08910       -1.07630
S         -4.45200       -0.33790        0.17050
C         -2.18400       -0.23590       -4.60910
C         -1.01060        0.21070       -5.13790
S         -0.12480        1.21020       -3.99640
C         -0.34120       -0.34200       -6.26940
C          1.01060       -0.36470       -6.45000
C          1.45410       -1.46200       -7.23050
C          2.74760       -2.00970       -7.22720
C          3.84250       -1.29580       -6.54460
C          3.73900       -1.02260       -5.18130
C          4.70300       -0.27450       -4.53880
C          5.78800        0.22930       -5.24340
S          6.96100        1.29970       -4.44620
C          5.83140        2.68870       -4.04020
C          5.26420        3.33970       -5.28550
C          5.91880       -0.10540       -6.58550
F          6.97330        0.34080       -7.28750
C          4.96260       -0.86150       -7.23950
C          2.86280       -3.32110       -7.64550
C          1.77870       -4.07370       -8.17300
C          0.51160       -3.47730       -8.29770
C         -0.68370       -4.20350       -8.75600
C         -1.46250       -3.67540       -9.78070
C         -2.59880       -4.32340      -10.22590
C         -2.99100       -5.53510       -9.66850
S         -4.41460       -6.46830      -10.12050
C         -4.96780       -5.71410      -11.68820
C         -4.03620       -6.03380      -12.84190
C         -2.21300       -6.04270       -8.62600
C         -1.09350       -5.39300       -8.15710
F         -2.56150       -7.21390       -8.06020
C          0.37490       -2.20420       -7.76520
S         -1.16100       -1.50510       -7.30210
C          2.03620       -5.46960       -8.12160
C          3.16010       -5.78080       -7.40410
S          4.18870       -4.35860       -7.17150
C          3.19140       -6.75090       -6.34120
C          2.02010       -7.06450       -5.70250
C          2.14990       -7.16790       -4.29770
C          1.10780       -6.89530       -3.39600
C         -0.24690       -6.59870       -3.90360
C         -1.09720       -7.54290       -4.46900
C         -2.31350       -7.15950       -4.99830
C         -2.72600       -5.82570       -4.99780
S         -4.30060       -5.46040       -5.70380
C         -4.10700       -3.75590       -6.35440
C         -5.14820       -3.51830       -7.42850
C         -1.87330       -4.89730       -4.40810
F         -2.20230       -3.58570       -4.32900
C         -0.65400       -5.26760       -3.88100
C          1.48310       -6.55110       -2.10950
C          2.83430       -6.48590       -1.68350
C          3.87520       -6.77450       -2.58490
C          5.28970       -6.53930       -2.26100
C          5.72670       -5.31140       -1.77170
C          7.06210       -5.07680       -1.50840
C          8.01370       -6.06710       -1.72700
S          9.74400       -5.89590       -1.46480
C          9.90830       -4.37020       -0.47490
C          9.43930       -4.56270        0.95340
C          7.56370       -7.28680       -2.23920
C          6.23630       -7.53020       -2.51030
F          8.45840       -8.26600       -2.47760
C          3.50230       -7.08340       -3.88360
S          4.57230       -6.93540       -5.26840
C          2.94900       -5.82310       -0.43310
C          1.76500       -5.34200        0.04240
S          0.39740       -5.86830       -0.92370
C          1.63340       -4.20770        0.91400
C          2.49520       -3.15600        0.82830
C          2.07070       -2.00400        1.53000
C          2.70530       -0.75260        1.55350
C          4.03090       -0.56650        0.95470
C          4.32490        0.51510        0.12840
C          5.58730        0.68320       -0.40830
C          6.60840       -0.22170       -0.13620
S          8.25720       -0.11560       -0.74600
C          8.47450        1.66200       -1.09140
C          8.38630        2.50930        0.16300
C          6.29130       -1.31170        0.67570
F          7.24680       -2.22560        0.94730
C          5.04190       -1.49070        1.22110
C          2.01890        0.26420        2.19540
C          0.80920        0.05820        2.90730
C          0.21240       -1.21490        2.93730
C         -0.91610       -1.54420        3.81910
C         -0.83110       -1.24430        5.17960
C         -1.74540       -1.76300        6.07130
C         -2.78970       -2.57020        5.63700
S         -3.82820       -3.34650        6.84780
C         -3.71380       -5.10130        6.34310
C         -2.28910       -5.61430        6.37520
C         -2.94180       -2.75160        4.26690
C         -2.01130       -2.27450        3.36480
F         -4.00560       -3.43340        3.79370
C          0.83080       -2.20620        2.18220
S          0.25340       -3.84000        1.92460
C          0.34480        1.26170        3.50220
C          1.14840        2.33440        3.26230
S          2.55600        1.91430        2.30540
C          1.01260        3.69460        3.66790
C          1.94340        4.66840        3.47130
C          1.55740        5.93480        3.97070
C          2.27180        7.13920        3.87370
C          3.55960        7.14940        3.16850
C          4.57200        6.25680        3.51570
C          5.70180        6.13890        2.73470
C          5.86110        6.90550        1.58520
S          7.29320        6.62360        0.57850
C          6.54250        6.42800       -1.08130
C          5.55450        5.27890       -1.12050
C          4.88720        7.85670        1.30130
F          5.01560        8.67390        0.23480
C          3.74770        7.98040        2.07010
C          1.65390        8.26900        4.38460
C          0.38730        8.23150        5.01940
C         -0.32210        7.02460        5.12100
C         -1.61860        6.95830        5.80840
C         -1.76060        7.46680        7.09970
C         -2.96210        7.35960        7.76960
C         -4.06430        6.75160        7.17670
S         -5.59730        6.70500        8.07020
C         -6.02460        4.92420        8.02700
C         -5.18290        4.12640        9.00320
C         -3.91710        6.27700        5.87740
C         -2.71690        6.35850        5.20030
F         -4.96210        5.71310        5.23430
C          0.27140        5.89990        4.56310
S         -0.41290        4.29180        4.48980
C         -0.02030        9.53260        5.44160
C          0.89040       10.48640        5.16120
S          2.30440        9.88740        4.36300
H         -5.82820       -0.89550       10.39590
H         -3.99460        0.69780        9.44990
H         -3.47680        3.61430        6.23310
H         -1.43920        4.81560        7.25710
H          2.80770        2.39420        8.81710
H          1.46380        1.24080        8.63270
H          2.48530        3.14290        6.44840
H          1.15090        2.00110        6.26490
H          2.79780        1.40210        6.50330
H         -7.83440       -0.76800        3.54250
H         -9.22710       -2.83010        2.91340
H         -8.27120       -6.00390        6.38460
H         -7.04990       -6.50790        5.18400
H         -8.53010       -8.40470        4.49200
H         -8.16180       -8.50550        6.21910
H         -9.73590       -7.90570        5.68050
H         -5.49470       -0.97550        2.66920
H         -1.68400        1.63370        1.43720
H          1.53740        1.41970       -2.03100
H          2.95800        3.41890       -1.28670
H          1.28470        7.83450       -0.16430
H          0.25650        6.58470       -0.89940
H         -1.03050        7.78220        0.85690
H         -0.73330        6.12140        1.38590
H          0.23430        7.44460        2.04710
H         -4.73550       -2.55750       -1.36000
H         -6.78550       -3.54000       -2.53010
H         -7.30660       -0.77470       -6.48840
H         -8.89540       -1.46190       -6.90470
H         -9.89320       -0.40580       -4.87190
H         -8.32270        0.28520       -4.44890
H         -9.15860        0.82590       -5.90840
H         -2.82690       -0.91080       -5.14770
H          1.67360        0.29940       -5.92510
H          2.89660       -1.40530       -4.62460
H          4.61460       -0.06660       -3.48250
H          5.03950        2.31200       -3.39200
H          6.45560        3.38900       -3.48550
H          4.66610        4.20740       -5.01260
H          4.62960        2.64180       -5.82940
H          6.06810        3.66190       -5.94320
H          5.08560       -1.07660       -8.28950
H         -1.16950       -2.74440      -10.24220
H         -3.17770       -3.87130      -11.01430
H         -5.94990       -6.15870      -11.84920
H         -5.09470       -4.64290      -11.53650
H         -4.42160       -5.59670      -13.76100
H         -3.96040       -7.11050      -12.97430
H         -3.03820       -5.64020      -12.66120
H         -0.56840       -5.80380       -7.30920
H          1.32930       -6.21110       -8.44370
H          1.05940       -7.01000       -6.18060
H         -0.80160       -8.58060       -4.49860
H         -2.96650       -7.89070       -5.44750
H         -4.23810       -3.05880       -5.52600
H         -3.09890       -3.66790       -6.75860
H         -5.03010       -2.51410       -7.83220
H         -6.14910       -3.62070       -7.01550
H         -5.03420       -4.23890       -8.23400
H         -0.02190       -4.50110       -3.45910
H          5.01600       -4.51050       -1.63110
H          7.35850       -4.10810       -1.14050
H         10.97770       -4.16210       -0.50810
H          9.38320       -3.55990       -0.97780
H         10.01570       -5.34690        1.43870
H          8.38740       -4.83620        0.98340
H          9.56490       -3.63520        1.50660
H          5.94480       -8.49260       -2.90100
H          3.88720       -5.65570        0.06310
H          3.36990       -3.17600        0.20470
H          3.54970        1.22630       -0.11190
H          5.77670        1.52760       -1.05180
H          7.75350        1.95430       -1.85280
H          9.47100        1.71190       -1.52910
H          8.56700        3.55480       -0.08000
H          9.13390        2.19050        0.88570
H          7.40500        2.42470        0.62730
H          4.87120       -2.32940        1.87780
H         -0.00350       -0.65630        5.54770
H         -1.64260       -1.58260        7.13270
H         -4.16540       -5.20790        5.35650
H         -4.33960       -5.61400        7.07450
H         -1.85530       -5.47230        7.36260
H         -1.67180       -5.09080        5.64690
H         -2.27710       -6.67590        6.13690
H         -2.15390       -2.47260        2.31390
H         -0.56320        1.33370        4.07310
H          2.87400        4.48630        2.96540
H          4.46360        5.64490        4.39830
H          6.47280        5.42780        2.98840
H          6.08010        7.36920       -1.36980
H          7.39750        6.24020       -1.73100
H          6.03710        4.35160       -0.81770
H          4.71620        5.46460       -0.45050
H          5.16680        5.16550       -2.13170
H          3.00380        8.70870        1.78740
H         -0.91020        7.91270        7.59300
H         -3.06410        7.74090        8.77350
H         -7.07860        4.89630        8.30180
H         -5.91820        4.56380        7.00700
H         -4.12450        4.21420        8.76420
H         -5.33900        4.48360       10.01860
H         -5.46170        3.07480        8.95380
H         -2.65780        5.97260        4.19460
H         -0.96370        9.73160        5.91650
H          0.82790       11.53690        5.36760
