
  xtb     03072213273D
 energy: -182.186771238319 gnorm: 0.000210418815 xtb: 6.4.1 (unknown)
116130  0     0  0            999 V2000
    2.6676   10.2140   -5.1947 C   0  0  0  0  0  0  0  0  0  0  0  0
    2.5250    9.0420   -6.4611 S   0  0  0  0  0  0  0  0  0  0  0  0
    2.0877    7.7757   -5.3243 C   0  0  0  0  0  0  0  0  0  0  0  0
    2.0705    8.2862   -4.0564 C   0  0  0  0  0  0  0  0  0  0  0  0
    2.3984    9.6624   -3.9888 C   0  0  0  0  0  0  0  0  0  0  0  0
    2.3445   10.1438   -2.5753 C   0  0  0  0  0  0  0  0  0  0  0  0
    2.3693    8.8300   -1.7693 C   0  0  0  0  0  0  0  0  0  0  0  0
    1.7916    7.7414   -2.6958 C   0  0  0  0  0  0  0  0  0  0  0  0
    1.8095    6.4527   -5.7713 C   0  0  0  0  0  0  0  0  0  0  0  0
    1.1873    5.2489   -4.6600 S   0  0  0  0  0  0  0  0  0  0  0  0
    1.1341    4.0173   -5.9093 C   0  0  0  0  0  0  0  0  0  0  0  0
    1.5788    4.5412   -7.0937 C   0  0  0  0  0  0  0  0  0  0  0  0
    1.9522    5.8989   -7.0151 C   0  0  0  0  0  0  0  0  0  0  0  0
    2.4586    6.3898   -8.3308 C   0  0  0  0  0  0  0  0  0  0  0  0
    2.7577    5.0794   -9.0828 C   0  0  0  0  0  0  0  0  0  0  0  0
    1.8309    4.0116   -8.4693 C   0  0  0  0  0  0  0  0  0  0  0  0
    0.7023    2.6979   -5.5700 C   0  0  0  0  0  0  0  0  0  0  0  0
    0.9141    2.1213   -3.9281 S   0  0  0  0  0  0  0  0  0  0  0  0
    0.2105    0.5603   -4.3062 C   0  0  0  0  0  0  0  0  0  0  0  0
   -0.1580    0.5291   -5.6221 C   0  0  0  0  0  0  0  0  0  0  0  0
    0.1094    1.7246   -6.3271 C   0  0  0  0  0  0  0  0  0  0  0  0
   -0.4348    1.6400   -7.7179 C   0  0  0  0  0  0  0  0  0  0  0  0
   -1.4303    0.4699   -7.6124 C   0  0  0  0  0  0  0  0  0  0  0  0
   -0.8797   -0.4413   -6.5006 C   0  0  0  0  0  0  0  0  0  0  0  0
    0.0932   -0.4243   -3.2730 C   0  0  0  0  0  0  0  0  0  0  0  0
   -0.3085    0.0844   -1.6429 S   0  0  0  0  0  0  0  0  0  0  0  0
   -0.2086   -1.5504   -1.0352 C   0  0  0  0  0  0  0  0  0  0  0  0
    0.1163   -2.4088   -2.0543 C   0  0  0  0  0  0  0  0  0  0  0  0
    0.2736   -1.7813   -3.3073 C   0  0  0  0  0  0  0  0  0  0  0  0
    0.6661   -2.7868   -4.3425 C   0  0  0  0  0  0  0  0  0  0  0  0
    0.2821   -4.1234   -3.6790 C   0  0  0  0  0  0  0  0  0  0  0  0
    0.3511   -3.8801   -2.1604 C   0  0  0  0  0  0  0  0  0  0  0  0
   -0.4730   -1.8819    0.3257 C   0  0  0  0  0  0  0  0  0  0  0  0
   -0.0705   -3.0184    0.9633 C   0  0  0  0  0  0  0  0  0  0  0  0
   -0.5656   -3.1466    2.2831 C   0  0  0  0  0  0  0  0  0  0  0  0
   -0.3627   -4.2137    3.1838 C   0  0  0  0  0  0  0  0  0  0  0  0
    0.3712   -5.4065    2.8240 C   0  0  0  0  0  0  0  0  0  0  0  0
    1.1057   -6.2141    3.6478 C   0  0  0  0  0  0  0  0  0  0  0  0
    1.6656   -7.3666    3.0633 C   0  0  0  0  0  0  0  0  0  0  0  0
    1.3868   -7.5406    1.7394 C   0  0  0  0  0  0  0  0  0  0  0  0
    1.9603   -8.8983    0.7936 S   0  0  0  0  0  0  0  0  0  0  0  0
    1.9161   -8.2284   -0.9103 C   0  0  0  0  0  0  0  0  0  0  0  0
    0.5618   -8.3946   -1.5701 C   0  0  0  0  0  0  0  0  0  0  0  0
    0.2927   -6.1564    1.0933 Se  0  0  0  0  0  2  0  0  0  0  0  0
   -0.9698   -4.0787    4.4318 C   0  0  0  0  0  0  0  0  0  0  0  0
   -1.7570   -2.9620    4.8028 C   0  0  0  0  0  0  0  0  0  0  0  0
   -1.9352   -1.8863    3.9073 C   0  0  0  0  0  0  0  0  0  0  0  0
   -2.7061   -0.7176    4.2756 C   0  0  0  0  0  0  0  0  0  0  0  0
   -2.7169   -0.0890    5.4909 C   0  0  0  0  0  0  0  0  0  0  0  0
   -3.6108    0.9922    5.6243 C   0  0  0  0  0  0  0  0  0  0  0  0
   -4.3472    1.2617    4.5085 C   0  0  0  0  0  0  0  0  0  0  0  0
   -5.5797    2.4846    4.2793 S   0  0  0  0  0  0  0  0  0  0  0  0
   -4.9879    3.8353    5.3641 C   0  0  0  0  0  0  0  0  0  0  0  0
   -3.6501    4.3844    4.9122 C   0  0  0  0  0  0  0  0  0  0  0  0
   -3.9176    0.1163    3.0854 Se  0  0  0  0  0  2  0  0  0  0  0  0
   -1.3444   -2.0269    2.6566 C   0  0  0  0  0  0  0  0  0  0  0  0
   -1.4502   -0.8630    1.3617 S   0  0  0  0  0  0  0  0  0  0  0  0
   -2.3528   -3.1347    6.0774 C   0  0  0  0  0  0  0  0  0  0  0  0
   -2.0306   -4.3101    6.6853 C   0  0  0  0  0  0  0  0  0  0  0  0
   -0.9561   -5.2793    5.6984 S   0  0  0  0  0  0  0  0  0  0  0  0
   -2.4618   -4.7778    7.9607 C   0  0  0  0  0  0  0  0  0  0  0  0
   -3.5606   -3.8102    8.9313 S   0  0  0  0  0  0  0  0  0  0  0  0
   -3.5783   -4.9924   10.1943 C   0  0  0  0  0  0  0  0  0  0  0  0
   -2.7914   -6.0493    9.8861 C   0  0  0  0  0  0  0  0  0  0  0  0
   -2.1550   -5.9316    8.6254 C   0  0  0  0  0  0  0  0  0  0  0  0
   -1.3033   -7.1257    8.3515 C   0  0  0  0  0  0  0  0  0  0  0  0
   -1.1825   -7.7841    9.7404 C   0  0  0  0  0  0  0  0  0  0  0  0
   -2.4236   -7.3412   10.5400 C   0  0  0  0  0  0  0  0  0  0  0  0
    2.9444   11.2184   -5.4446 H   0  0  0  0  0  0  0  0  0  0  0  0
    1.4111   10.6879   -2.4070 H   0  0  0  0  0  0  0  0  0  0  0  0
    3.1714   10.8056   -2.3187 H   0  0  0  0  0  0  0  0  0  0  0  0
    1.8140    8.9105   -0.8362 H   0  0  0  0  0  0  0  0  0  0  0  0
    3.4033    8.5795   -1.5270 H   0  0  0  0  0  0  0  0  0  0  0  0
    0.7135    7.6277   -2.5523 H   0  0  0  0  0  0  0  0  0  0  0  0
    2.2504    6.7669   -2.5272 H   0  0  0  0  0  0  0  0  0  0  0  0
    1.6831    6.9712   -8.8369 H   0  0  0  0  0  0  0  0  0  0  0  0
    3.3392    7.0247   -8.2349 H   0  0  0  0  0  0  0  0  0  0  0  0
    2.6121    5.1795  -10.1573 H   0  0  0  0  0  0  0  0  0  0  0  0
    3.7964    4.7965   -8.9064 H   0  0  0  0  0  0  0  0  0  0  0  0
    2.2898    3.0236   -8.4585 H   0  0  0  0  0  0  0  0  0  0  0  0
    0.8944    3.9482   -9.0284 H   0  0  0  0  0  0  0  0  0  0  0  0
   -0.9150    2.5643   -8.0358 H   0  0  0  0  0  0  0  0  0  0  0  0
    0.3617    1.4031   -8.4274 H   0  0  0  0  0  0  0  0  0  0  0  0
   -2.4049    0.8548   -7.3088 H   0  0  0  0  0  0  0  0  0  0  0  0
   -1.5511   -0.0572   -8.5578 H   0  0  0  0  0  0  0  0  0  0  0  0
   -0.1743   -1.1650   -6.9200 H   0  0  0  0  0  0  0  0  0  0  0  0
   -1.6649   -0.9854   -5.9766 H   0  0  0  0  0  0  0  0  0  0  0  0
    0.1630   -2.6464   -5.2962 H   0  0  0  0  0  0  0  0  0  0  0  0
    1.7442   -2.7307   -4.5176 H   0  0  0  0  0  0  0  0  0  0  0  0
   -0.7429   -4.3763   -3.9540 H   0  0  0  0  0  0  0  0  0  0  0  0
    0.9292   -4.9402   -3.9953 H   0  0  0  0  0  0  0  0  0  0  0  0
    1.3438   -4.1300   -1.7732 H   0  0  0  0  0  0  0  0  0  0  0  0
   -0.3831   -4.4696   -1.6062 H   0  0  0  0  0  0  0  0  0  0  0  0
    0.6166   -3.7061    0.5056 H   0  0  0  0  0  0  0  0  0  0  0  0
    1.3041   -5.9567    4.6740 H   0  0  0  0  0  0  0  0  0  0  0  0
    2.2851   -8.0549    3.6120 H   0  0  0  0  0  0  0  0  0  0  0  0
    2.2085   -7.1778   -0.8480 H   0  0  0  0  0  0  0  0  0  0  0  0
    2.6840   -8.7864   -1.4458 H   0  0  0  0  0  0  0  0  0  0  0  0
    0.2782   -9.4439   -1.5961 H   0  0  0  0  0  0  0  0  0  0  0  0
    0.5986   -8.0135   -2.5887 H   0  0  0  0  0  0  0  0  0  0  0  0
   -0.2039   -7.8416   -1.0236 H   0  0  0  0  0  0  0  0  0  0  0  0
   -2.0575   -0.3773    6.2925 H   0  0  0  0  0  0  0  0  0  0  0  0
   -3.7010    1.5461    6.5431 H   0  0  0  0  0  0  0  0  0  0  0  0
   -4.9553    3.4605    6.3862 H   0  0  0  0  0  0  0  0  0  0  0  0
   -5.7710    4.5892    5.2893 H   0  0  0  0  0  0  0  0  0  0  0  0
   -3.3555    5.2136    5.5524 H   0  0  0  0  0  0  0  0  0  0  0  0
   -3.7146    4.7396    3.8864 H   0  0  0  0  0  0  0  0  0  0  0  0
   -2.8818    3.6153    4.9630 H   0  0  0  0  0  0  0  0  0  0  0  0
   -3.0327   -2.4303    6.5204 H   0  0  0  0  0  0  0  0  0  0  0  0
   -4.1707   -4.8109   11.0686 H   0  0  0  0  0  0  0  0  0  0  0  0
   -1.8065   -7.7866    7.6404 H   0  0  0  0  0  0  0  0  0  0  0  0
   -0.3320   -6.8661    7.9304 H   0  0  0  0  0  0  0  0  0  0  0  0
   -1.1026   -8.8679    9.6737 H   0  0  0  0  0  0  0  0  0  0  0  0
   -0.2858   -7.4085   10.2357 H   0  0  0  0  0  0  0  0  0  0  0  0
   -3.2404   -8.0588   10.4234 H   0  0  0  0  0  0  0  0  0  0  0  0
   -2.2170   -7.2360   11.6047 H   0  0  0  0  0  0  0  0  0  0  0  0
  1  2  1  0  0  0  0
  2  3  1  0  0  0  0
  3  4  2  0  0  0  0
  4  5  1  0  0  0  0
  5  6  1  0  0  0  0
  6  7  1  0  0  0  0
  7  8  1  0  0  0  0
  3  9  1  0  0  0  0
  9 10  1  0  0  0  0
 10 11  1  0  0  0  0
 11 12  2  0  0  0  0
 12 13  1  0  0  0  0
 13 14  1  0  0  0  0
 14 15  1  0  0  0  0
 15 16  1  0  0  0  0
 11 17  1  0  0  0  0
 17 18  1  0  0  0  0
 18 19  1  0  0  0  0
 19 20  2  0  0  0  0
 20 21  1  0  0  0  0
 21 22  1  0  0  0  0
 22 23  1  0  0  0  0
 23 24  1  0  0  0  0
 19 25  1  0  0  0  0
 25 26  1  0  0  0  0
 26 27  1  0  0  0  0
 27 28  2  0  0  0  0
 28 29  1  0  0  0  0
 29 30  1  0  0  0  0
 30 31  1  0  0  0  0
 31 32  1  0  0  0  0
 27 33  1  0  0  0  0
 33 34  2  0  0  0  0
 34 35  1  0  0  0  0
 35 36  2  0  0  0  0
 36 37  1  0  0  0  0
 37 38  2  0  0  0  0
 38 39  1  0  0  0  0
 39 40  2  0  0  0  0
 40 41  1  0  0  0  0
 41 42  1  0  0  0  0
 42 43  1  0  0  0  0
 40 44  1  0  0  0  0
 36 45  1  0  0  0  0
 45 46  2  0  0  0  0
 46 47  1  0  0  0  0
 47 48  1  0  0  0  0
 48 49  2  0  0  0  0
 49 50  1  0  0  0  0
 50 51  2  0  0  0  0
 51 52  1  0  0  0  0
 52 53  1  0  0  0  0
 53 54  1  0  0  0  0
 51 55  1  0  0  0  0
 47 56  2  0  0  0  0
 56 57  1  0  0  0  0
 46 58  1  0  0  0  0
 58 59  2  0  0  0  0
 59 60  1  0  0  0  0
 59 61  1  0  0  0  0
 61 62  1  0  0  0  0
 62 63  1  0  0  0  0
 63 64  2  0  0  0  0
 64 65  1  0  0  0  0
 65 66  1  0  0  0  0
 66 67  1  0  0  0  0
 67 68  1  0  0  0  0
  5  1  2  0  0  0  0
 13  9  2  0  0  0  0
 21 17  2  0  0  0  0
 29 25  2  0  0  0  0
 57 33  1  0  0  0  0
 65 61  2  0  0  0  0
  8  4  1  0  0  0  0
 16 12  1  0  0  0  0
 24 20  1  0  0  0  0
 32 28  1  0  0  0  0
 56 35  1  0  0  0  0
 68 64  1  0  0  0  0
 44 37  1  0  0  0  0
 60 45  1  0  0  0  0
 55 48  1  0  0  0  0
  1 69  1  0  0  0  0
  6 70  1  0  0  0  0
  6 71  1  0  0  0  0
  7 72  1  0  0  0  0
  7 73  1  0  0  0  0
  8 74  1  0  0  0  0
  8 75  1  0  0  0  0
 14 76  1  0  0  0  0
 14 77  1  0  0  0  0
 15 78  1  0  0  0  0
 15 79  1  0  0  0  0
 16 80  1  0  0  0  0
 16 81  1  0  0  0  0
 22 82  1  0  0  0  0
 22 83  1  0  0  0  0
 23 84  1  0  0  0  0
 23 85  1  0  0  0  0
 24 86  1  0  0  0  0
 24 87  1  0  0  0  0
 30 88  1  0  0  0  0
 30 89  1  0  0  0  0
 31 90  1  0  0  0  0
 31 91  1  0  0  0  0
 32 92  1  0  0  0  0
 32 93  1  0  0  0  0
 34 94  1  0  0  0  0
 38 95  1  0  0  0  0
 39 96  1  0  0  0  0
 42 97  1  0  0  0  0
 42 98  1  0  0  0  0
 43 99  1  0  0  0  0
 43100  1  0  0  0  0
 43101  1  0  0  0  0
 49102  1  0  0  0  0
 50103  1  0  0  0  0
 53104  1  0  0  0  0
 53105  1  0  0  0  0
 54106  1  0  0  0  0
 54107  1  0  0  0  0
 54108  1  0  0  0  0
 58109  1  0  0  0  0
 63110  1  0  0  0  0
 66111  1  0  0  0  0
 66112  1  0  0  0  0
 67113  1  0  0  0  0
 67114  1  0  0  0  0
 68115  1  0  0  0  0
 68116  1  0  0  0  0
M  END
