278

C          4.45520       -7.99430        8.33700
C          5.61740       -7.79110        7.68770
C          5.45230       -7.63160        6.27940
C          6.44800       -7.36760        5.32010
C          7.83370       -7.12860        5.66330
C          8.93480       -7.56080        4.97780
C         10.18120       -7.12430        5.46560
C         10.12310       -6.30560        6.55670
S         11.53630       -5.71930        7.40190
C         10.84640       -4.31250        8.34150
C         10.51830       -3.13290        7.44960
Se         8.34380       -6.03330        7.11250
C          6.02170       -7.32850        3.99530
C          4.67960       -7.54620        3.60010
C          3.65990       -7.69180        4.56920
C          2.26110       -7.70190        4.20020
C          1.69120       -7.10620        3.09910
C          0.30050       -7.25110        2.96000
C         -0.31520       -7.93300        3.96660
S         -2.03150       -8.30440        4.00120
C         -2.62790       -7.16640        5.31290
C         -2.29390       -7.64300        6.70920
Se         0.92960       -8.53280        5.24400
C          4.09850       -7.76180        5.89290
S          3.07910       -8.00590        7.28610
C          4.54840       -7.50860        2.19140
C          5.68520       -7.13580        1.53650
S          7.03450       -6.93310        2.62750
C          5.74260       -6.74960        0.16450
C          6.62190       -5.90650       -0.44790
C          6.17180       -5.43210       -1.70720
C          6.74990       -4.40990       -2.49660
C          8.08590       -3.92100       -2.24770
C          9.14840       -4.65730       -1.78670
C         10.35660       -3.95750       -1.61100
C         10.30570       -2.63540       -1.93570
S         11.64500       -1.49870       -1.83950
C         12.50630       -1.92360       -3.40500
C         11.75260       -1.42060       -4.61850
Se         8.59680       -2.13180       -2.53750
C          5.91830       -3.86380       -3.47010
C          4.64550       -4.38980       -3.79140
C          4.12300       -5.50340       -3.10100
C          2.78520       -5.99650       -3.36020
C          1.84140       -6.35490       -2.43510
C          0.56900       -6.68370       -2.93820
C          0.44640       -6.62460       -4.29760
S         -1.02290       -7.01170       -5.16050
C         -0.79830       -6.04580       -6.69720
C         -0.88300       -4.55340       -6.45630
Se         2.08550       -6.16700       -5.10710
C          4.89790       -5.95720       -2.03810
S          4.36260       -7.10790       -0.84840
C          3.92710       -3.52550       -4.64850
C          4.57320       -2.35940       -4.93360
S          6.20930       -2.35450       -4.30410
C          3.92000       -1.17720       -5.38210
C          4.36690        0.10810       -5.40250
C          3.33960        1.07710       -5.57250
C          3.43730        2.48530       -5.48100
C          4.70560        3.14660       -5.25200
C          4.93390        4.21690       -4.42830
C          6.27840        4.60750       -4.27690
C          7.17860        3.87390       -4.99220
S          8.91250        4.09330       -4.96790
C          9.45160        2.33940       -4.95130
C          9.02320        1.62370       -3.68730
Se         6.31460        2.58810       -6.06250
C          2.23120        3.18970       -5.52830
C          0.97130        2.55390       -5.61450
C          0.86730        1.15030       -5.58200
C         -0.37220        0.48360       -5.23280
C         -1.22890        0.91650       -4.25150
C         -2.26180        0.02690       -3.90080
C         -2.27340       -1.14480       -4.59550
S         -3.38800       -2.48280       -4.35990
C         -2.54390       -3.31910       -2.95880
C         -2.75290       -2.58220       -1.65320
Se        -0.87040       -1.21660       -5.84980
C          2.06780        0.45830       -5.64880
S          2.18390       -1.27400       -5.61910
C         -0.09670        3.47780       -5.65730
C          0.29380        4.77670       -5.53130
S          2.03110        4.92750       -5.41570
C         -0.66300        5.81990       -5.26910
C         -0.73100        6.62570       -4.17490
C         -2.05580        7.05200       -3.87380
C         -2.48940        7.57030       -2.63660
C         -1.51890        8.16050       -1.71060
C         -0.60240        9.09630       -2.19600
C          0.29700        9.70700       -1.35100
C          0.34130        9.39770        0.00830
S          1.56420       10.22040        0.98280
C          0.74180       10.51790        2.59150
C         -0.53190       11.32450        2.43920
C         -0.54510        8.42880        0.46890
F         -0.52170        8.02500        1.75760
C         -1.47240        7.83090       -0.36050
C         -3.83480        7.37980       -2.34860
C         -4.76820        6.95260       -3.32460
C         -4.36360        6.67250       -4.64290
C         -5.36460        6.36930       -5.66850
C         -6.47210        7.21080       -5.79890
C         -7.41330        6.99290       -6.78000
C         -7.30490        5.91830       -7.66200
S         -8.59350        5.71930       -8.85560
C         -7.72910        5.15130      -10.36670
C         -6.65700        6.12640      -10.80940
C         -6.22160        5.06260       -7.49040
C         -5.25730        5.28020       -6.52720
F         -6.08040        3.96460       -8.26870
C         -2.99080        6.60130       -4.83710
S         -2.18890        5.75090       -6.13220
C         -5.97910        6.49140       -2.74570
C         -5.95470        6.47060       -1.38130
S         -4.55890        7.34750       -0.75300
C         -6.49330        5.40410       -0.57920
C         -6.56080        4.14460       -1.10800
C         -6.42860        3.11270       -0.15260
C         -6.09960        1.77080       -0.41730
C         -5.90770        1.28980       -1.79160
C         -6.44920        0.08130       -2.23100
C         -6.28470       -0.33010       -3.53450
C         -5.57880        0.43210       -4.47160
S         -5.50310       -0.25830       -6.08820
C         -4.92400        1.05150       -7.23010
C         -3.41980        1.06060       -7.41030
C         -5.00580        1.61130       -4.00530
F         -4.25140        2.40860       -4.80330
C         -5.15350        2.03010       -2.69790
C         -5.82490        0.98320        0.68960
C         -5.93950        1.45660        2.01970
C         -6.28440        2.79740        2.27880
C         -6.40390        3.26360        3.66460
C         -7.19290        2.54460        4.56010
C         -7.31410        2.92970        5.88030
C         -6.63340        4.04310        6.35980
S         -6.67840        4.63170        8.01980
C         -7.41090        3.25000        8.96360
C         -6.48020        2.05600        9.06830
C         -5.86440        4.76720        5.44640
C         -5.74520        4.40130        4.12400
F         -5.20180        5.85850        5.87580
C         -6.43800        3.61890        1.17200
S         -6.52350        5.36940        1.17060
C         -5.43570        0.51520        2.95560
C         -4.91060       -0.60320        2.38000
S         -5.11290       -0.60920        0.64050
C         -4.09420       -1.58670        3.02550
C         -4.04760       -1.91500        4.34660
C         -2.94170       -2.73760        4.68970
C         -2.55050       -3.19260        5.96330
C         -3.33520       -2.90370        7.14810
C         -3.85080       -1.69780        7.52460
C         -4.58800       -1.68380        8.72820
C         -4.69770       -2.89620        9.34030
S         -5.50280       -3.32090       10.83380
C         -6.65780       -1.92510       11.08040
C         -7.75680       -1.89520       10.03640
Se        -3.80630       -4.24920        8.39340
C         -1.35360       -3.90000        6.02820
C         -0.52560       -4.14220        4.90700
C         -0.94280       -3.74140        3.62750
C         -0.17360       -3.93950        2.41340
C         -0.68690       -4.31740        1.20330
C          0.20220       -4.26870        0.11100
C          1.45130       -3.81430        0.41460
S          2.75940       -3.47600       -0.70540
C          1.83480       -2.77720       -2.12130
C          1.03100       -1.54550       -1.76470
Se         1.64350       -3.44960        2.24670
C         -2.15120       -3.05280        3.55990
S         -2.81150       -2.35060        2.10970
C          0.67670       -4.81040        5.27870
C          0.74500       -5.07700        6.59850
S         -0.63030       -4.52070        7.48760
H          4.29890       -8.14820        9.38630
H          6.57290       -7.78380        8.18390
H          8.85970       -8.22170        4.13110
H         11.11600       -7.40640        5.01330
H          9.96200       -4.68050        8.87180
H         11.61890       -4.06020        9.06710
H         11.40750       -2.79820        6.92070
H         10.13610       -2.31070        8.05090
H          9.76010       -3.40420        6.71550
H          2.25040       -6.49000        2.41460
H         -0.24620       -6.83500        2.13180
H         -3.70560       -7.12950        5.15660
H         -2.20110       -6.18760        5.09950
H         -2.67660       -6.93020        7.44150
H         -1.21370       -7.72440        6.84390
H         -2.74150       -8.61610        6.89680
H          3.64800       -7.75320        1.66050
H          7.50730       -5.54710        0.04510
H          9.07670       -5.71740       -1.61080
H         11.25630       -4.42880       -1.25200
H         13.48250       -1.44920       -3.31730
H         12.62780       -3.00610       -3.42230
H         10.74950       -1.84810       -4.65180
H         12.27810       -1.70520       -5.52770
H         11.66670       -0.33670       -4.58800
H          2.02570       -6.30680       -1.37630
H         -0.26050       -6.94140       -2.30180
H         -1.59550       -6.38840       -7.35560
H          0.16850       -6.33510       -7.12090
H         -0.09390       -4.22810       -5.77510
H         -1.84810       -4.28570       -6.02830
H         -0.75870       -4.01910       -7.39720
H          2.91110       -3.69280       -4.96380
H          5.40260        0.33560       -5.21650
H          4.14830        4.68000       -3.85600
H          6.58400        5.39650       -3.61190
H          9.03790        1.86550       -5.84640
H         10.53610        2.38740       -5.03890
H          9.36640        0.58850       -3.70540
H          7.93660        1.61800       -3.59740
H          9.44010        2.11280       -2.81020
H         -1.08630        1.85300       -3.73840
H         -2.97700        0.24180       -3.12520
H         -1.48780       -3.39780       -3.22270
H         -2.98590       -4.31410       -2.93170
H         -3.81450       -2.47290       -1.44440
H         -2.30720       -1.59080       -1.69450
H         -2.29330       -3.12760       -0.83250
H         -1.12700        3.18590       -5.75080
H          0.10260        6.78650       -3.51410
H         -0.62160        9.36450       -3.24160
H          0.98820       10.44410       -1.72870
H          0.56500        9.56380        3.08270
H          1.49390       11.07260        3.15280
H         -0.33300       12.25940        1.91910
H         -1.28030       10.76830        1.87780
H         -0.94010       11.55010        3.42220
H         -2.12220        7.08040        0.05970
H         -6.57340        8.05900       -5.13890
H         -8.25600        7.65780       -6.88730
H         -8.53230        5.08980      -11.10100
H         -7.32940        4.15460      -10.19450
H         -5.85790        6.18720      -10.07290
H         -7.07750        7.12050      -10.94640
H         -6.22870        5.79450      -11.75300
H         -4.45340        4.56820       -6.43310
H         -6.76190        6.03760       -3.32690
H         -6.58910        3.96740       -2.16610
H         -7.02400       -0.52570       -1.54870
H         -6.71020       -1.26340       -3.86840
H         -5.30610        2.00360       -6.87540
H         -5.42120        0.80570       -8.16860
H         -3.14650        1.80660       -8.15400
H         -2.91710        1.30150       -6.47720
H         -3.07280        0.08490       -7.74750
H         -4.63900        2.92950       -2.39430
H         -7.73570        1.67890        4.21060
H         -7.95140        2.35490        6.53250
H         -7.59140        3.68450        9.94670
H         -8.37120        2.99130        8.51920
H         -6.94660        1.28060        9.67420
H         -6.25790        1.64550        8.08520
H         -5.54370        2.35170        9.53620
H         -5.11660        4.98880        3.47440
H         -5.37240        0.71090        4.01050
H         -4.77940       -1.58080        5.05830
H         -3.65870       -0.79430        6.96950
H         -5.00470       -0.77420        9.12480
H         -6.07470       -1.00490       11.09770
H         -7.06710       -2.10080       12.07490
H         -8.44560       -1.07880       10.24660
H         -7.34170       -1.75610        9.04030
H         -8.31290       -2.82950       10.04930
H         -1.70150       -4.66540        1.09640
H         -0.09060       -4.55570       -0.88460
H          2.61930       -2.53430       -2.83590
H          1.21180       -3.56900       -2.53740
H          0.53970       -1.16500       -2.66010
H          0.27010       -1.77640       -1.02160
H          1.68140       -0.76840       -1.36920
H          1.45030       -5.07110        4.57830
H          1.53360       -5.57140        7.13140
