161

C          0.75840        5.92930       11.67800
S          0.57760        4.35750       11.00520
C          0.00520        5.02670        9.49230
C         -0.06620        6.38920        9.56190
C          0.39020        6.90160       10.80660
C          0.41920        8.38450       11.01200
N         -0.95400        8.85160       11.20420
C          1.02290        9.06910        9.76760
C          0.63200        8.42080        8.42760
C         -0.53210        7.43120        8.58390
O         -0.93060        6.97140        7.31050
C         -2.25810        6.51070        7.26990
C         -0.23890        4.16620        8.36690
C          0.18310        4.36600        7.09280
C         -0.23860        3.35990        6.18420
C         -0.03870        3.32060        4.78850
C          0.58070        4.41560        4.07900
C          0.50050        5.75500        4.35340
C          1.24630        6.60530        3.51560
C          1.95820        5.97610        2.53360
S          2.90700        6.83300        1.33810
C          3.75040        5.46640        0.46860
C          4.90340        4.89710        1.27040
Se         1.68780        4.11130        2.58060
C         -0.48850        2.17000        4.14350
C         -1.15190        1.11320        4.80470
C         -1.43030        1.19160        6.18350
C         -2.21820        0.19430        6.87360
C         -2.09720       -0.22360        8.16870
C         -3.07770       -1.12350        8.63250
C         -4.04130       -1.45100        7.72600
S         -5.30470       -2.62420        8.02020
C         -6.53980       -2.14320        6.76160
C         -7.21710       -0.82940        7.09340
Se        -3.72560       -0.61360        6.06900
C         -0.94050        2.32090        6.83950
S         -1.13380        2.67000        8.53790
C         -1.45840        0.05000        3.91340
C         -1.12180        0.29760        2.62290
S         -0.34500        1.85240        2.43650
C         -1.30350       -0.57100        1.48970
S          0.09850       -1.09630        0.59030
C         -0.86990       -2.10640       -0.45390
C         -2.19190       -2.00600       -0.10690
C         -2.44000       -1.12870        0.97920
C         -3.88360       -0.89520        1.31100
N         -4.09940        0.05790        2.37750
C         -4.53880       -2.27560        1.55330
C         -4.20600       -3.30890        0.46210
C         -3.35630       -2.74340       -0.69560
O         -4.08540       -1.84560       -1.51950
C         -4.81340       -2.45850       -2.54990
C         -0.24570       -2.81780       -1.53100
S         -1.08760       -3.03150       -3.04820
C          0.30430       -3.79780       -3.77460
C          1.34290       -3.84810       -2.89400
C          1.02600       -3.32460       -1.61680
C          2.05770       -3.41210       -0.53490
N          3.08020       -2.39650       -0.79230
C          2.71170       -4.81200       -0.53330
C          2.83680       -5.46800       -1.91620
C          2.71720       -4.43580       -3.04550
O          2.97800       -5.06250       -4.28310
C          3.59890       -4.22620       -5.22390
C          0.27070       -4.27280       -5.13990
S          0.50980       -3.13240       -6.43620
C          0.57080       -4.41420       -7.60820
C          0.36900       -5.63790       -7.00860
C          0.17500       -5.55070       -5.60700
C         -0.07600       -6.81200       -4.83450
N          0.05790       -6.66140       -3.39610
C          0.93850       -7.82460       -5.37130
C          0.57340       -8.17310       -6.80850
C          0.42870       -6.95020       -7.74330
O         -0.75490       -7.04220       -8.53020
C         -0.74670       -8.07400       -9.48220
C          0.81100       -4.11440       -8.99070
S          0.14310       -5.11440      -10.24940
C          0.84840       -4.13230      -11.46360
C          1.55420       -3.09030      -10.94610
C          1.53870       -3.07690       -9.52970
C          2.22450       -2.00720       -8.73090
N          1.19610       -1.16610       -8.13400
C          3.22870       -1.24930       -9.61520
C          2.59760       -0.83900      -10.94110
C          2.31370       -2.09330      -11.77610
O          3.50660       -2.73750      -12.20550
C          4.12590       -2.15150      -13.31820
H          1.13740        6.03340       12.67560
H          1.05810        8.61740       11.88430
H         -1.38260        8.36730       11.98570
H         -0.96110        9.84530       11.40830
H          0.69970       10.11120        9.77970
H          2.10900        9.05940        9.86620
H          0.34170        9.18260        7.70470
H          1.47730        7.87290        8.00790
H         -1.37160        7.96500        9.05830
H         -2.44070        6.17140        6.25140
H         -2.42130        5.67670        7.96070
H         -2.96050        7.31570        7.51880
H          0.80280        5.19740        6.81950
H         -0.12010        6.15270        5.13810
H          1.25460        7.67500        3.63440
H          2.99310        4.70670        0.25200
H          4.09700        5.90530       -0.46660
H          5.63560        5.67170        1.48560
H          4.54580        4.48400        2.21400
H          5.38630        4.10120        0.70750
H         -1.28470        0.09270        8.80010
H         -3.07670       -1.51900        9.63340
H         -6.01960       -2.09970        5.79880
H         -7.25330       -2.96640        6.74580
H         -6.49060       -0.01750        7.11500
H         -7.96810       -0.59920        6.34040
H         -7.70020       -0.88720        8.06600
H         -1.85060       -0.90370        4.22620
H         -4.32800       -0.46420        0.40500
H         -5.08080        0.30670        2.42670
H         -3.83130       -0.33070        3.27760
H         -5.61970       -2.13300        1.61870
H         -4.19580       -2.64250        2.52570
H         -5.12600       -3.71910        0.04310
H         -3.64390       -4.13820        0.89520
H         -2.99900       -3.58340       -1.31000
H         -5.27440       -1.65140       -3.11600
H         -4.15470       -3.03520       -3.21050
H         -5.59800       -3.12030       -2.16320
H          1.57330       -3.26100        0.44640
H          2.64450       -1.48180       -0.85470
H          3.74040       -2.36880       -0.02210
H          3.70180       -4.69970       -0.08820
H          2.12840       -5.46360        0.11850
H          2.04290       -6.19750       -2.08160
H          3.79400       -5.98030       -2.00850
H          3.44860       -3.63280       -2.86670
H          3.65610       -4.79280       -6.15260
H          4.61250       -3.95160       -4.90140
H          3.02590       -3.30880       -5.39640
H         -1.09230       -7.16270       -5.11430
H         -0.11420       -7.55620       -2.94890
H         -0.62490       -5.99940       -3.04550
H          0.92300       -8.73280       -4.76460
H          1.93260       -7.38220       -5.30060
H         -0.39380       -8.68350       -6.79340
H          1.31160       -8.86330       -7.22090
H          1.29400       -6.91440       -8.43080
H          0.13520       -8.00690      -10.13090
H         -1.64380       -7.93760      -10.08310
H         -0.76940       -9.06570       -9.01780
H          0.70900       -4.38030      -12.49690
H          2.76690       -2.46680       -7.89330
H          1.60480       -0.42880       -7.57240
H          0.60450       -0.75120       -8.84420
H          3.59000       -0.37060       -9.07470
H          4.07970       -1.89950       -9.82490
H          1.65820       -0.30600      -10.77690
H          3.26680       -0.17290      -11.48840
H          1.71700       -1.82440      -12.66520
H          3.43280       -2.07790      -14.16640
H          4.51900       -1.15160      -13.09940
H          4.95360       -2.80630      -13.58480
