
  xtb     03052207343D
 energy: -300.557439969171 gnorm: 0.000386819675 xtb: 6.4.1 (unknown)
167187  0     0  0            999 V2000
    5.3675   -2.1542   13.6087 C   0  0  0  0  0  0  0  0  0  0  0  0
    5.6553   -2.7029   12.4169 C   0  0  0  0  0  0  0  0  0  0  0  0
    6.6525   -3.6518   12.2469 O   0  0  0  0  0  0  0  0  0  0  0  0
    7.3122   -3.9773   13.3974 C   0  0  0  0  0  0  0  0  0  0  0  0
    6.9903   -3.3854   14.6565 C   0  0  0  0  0  0  0  0  0  0  0  0
    7.7642   -3.8490   15.6676 C   0  0  0  0  0  0  0  0  0  0  0  0
    8.9008   -5.0164   15.1031 S   0  0  0  0  0  0  0  0  0  0  0  0
    8.3224   -4.8748   13.4835 C   0  0  0  0  0  0  0  0  0  0  0  0
    5.9982   -2.4507   14.7863 O   0  0  0  0  0  0  0  0  0  0  0  0
    4.9880   -2.3865   11.1838 C   0  0  0  0  0  0  0  0  0  0  0  0
    3.9622   -1.5221   10.9400 C   0  0  0  0  0  0  0  0  0  0  0  0
    3.5748   -1.4760    9.5771 C   0  0  0  0  0  0  0  0  0  0  0  0
    2.5483   -0.7079    8.9816 C   0  0  0  0  0  0  0  0  0  0  0  0
    1.7809    0.2559    9.7365 C   0  0  0  0  0  0  0  0  0  0  0  0
    2.2204    1.0932   10.7253 C   0  0  0  0  0  0  0  0  0  0  0  0
    1.2466    1.9182   11.3185 C   0  0  0  0  0  0  0  0  0  0  0  0
   -0.0184    1.7689   10.8225 C   0  0  0  0  0  0  0  0  0  0  0  0
   -1.3776    2.7285   11.3612 S   0  0  0  0  0  0  0  0  0  0  0  0
   -2.7744    1.9392   10.4892 C   0  0  0  0  0  0  0  0  0  0  0  0
   -3.1926    0.6325   11.1322 C   0  0  0  0  0  0  0  0  0  0  0  0
   -0.0657    0.4913    9.4385 Se  0  0  0  0  0  2  0  0  0  0  0  0
    2.3291   -0.9219    7.6232 C   0  0  0  0  0  0  0  0  0  0  0  0
    3.0878   -1.8304    6.8522 C   0  0  0  0  0  0  0  0  0  0  0  0
    4.1043   -2.6011    7.4453 C   0  0  0  0  0  0  0  0  0  0  0  0
    4.8245   -3.5778    6.6516 C   0  0  0  0  0  0  0  0  0  0  0  0
    4.2616   -4.5044    5.8214 C   0  0  0  0  0  0  0  0  0  0  0  0
    5.1615   -5.2792    5.0624 C   0  0  0  0  0  0  0  0  0  0  0  0
    6.4781   -4.9788    5.2503 C   0  0  0  0  0  0  0  0  0  0  0  0
    7.7927   -5.8183    4.4555 S   0  0  0  0  0  0  0  0  0  0  0  0
    8.9830   -4.4455    4.2448 C   0  0  0  0  0  0  0  0  0  0  0  0
    8.4846   -3.4041    3.2645 C   0  0  0  0  0  0  0  0  0  0  0  0
    6.7034   -3.6384    6.5666 Se  0  0  0  0  0  2  0  0  0  0  0  0
    4.3359   -2.3803    8.7947 C   0  0  0  0  0  0  0  0  0  0  0  0
    5.5303   -3.2150    9.7466 S   0  0  0  0  0  0  0  0  0  0  0  0
    2.7314   -1.7968    5.4855 C   0  0  0  0  0  0  0  0  0  0  0  0
    1.7302   -0.9165    5.1994 C   0  0  0  0  0  0  0  0  0  0  0  0
    1.1603   -0.0852    6.6295 S   0  0  0  0  0  0  0  0  0  0  0  0
    1.2165   -0.6887    3.8867 C   0  0  0  0  0  0  0  0  0  0  0  0
    1.8826   -1.0140    2.7416 C   0  0  0  0  0  0  0  0  0  0  0  0
    1.1424   -0.7994    1.5573 C   0  0  0  0  0  0  0  0  0  0  0  0
    1.5288   -1.1285    0.2388 C   0  0  0  0  0  0  0  0  0  0  0  0
    2.7725   -1.8054   -0.0568 C   0  0  0  0  0  0  0  0  0  0  0  0
    3.5492   -1.6683   -1.1753 C   0  0  0  0  0  0  0  0  0  0  0  0
    4.6882   -2.4918   -1.2546 C   0  0  0  0  0  0  0  0  0  0  0  0
    4.8642   -3.3460   -0.2034 C   0  0  0  0  0  0  0  0  0  0  0  0
    6.2595   -4.3816   -0.0100 S   0  0  0  0  0  0  0  0  0  0  0  0
    5.7422   -5.4579    1.3721 C   0  0  0  0  0  0  0  0  0  0  0  0
    4.7255   -6.4963    0.9460 C   0  0  0  0  0  0  0  0  0  0  0  0
    3.4993   -3.1376    1.0719 Se  0  0  0  0  0  2  0  0  0  0  0  0
    0.6117   -0.7956   -0.7559 C   0  0  0  0  0  0  0  0  0  0  0  0
   -0.6390   -0.1910   -0.4795 C   0  0  0  0  0  0  0  0  0  0  0  0
   -1.0416    0.0975    0.8420 C   0  0  0  0  0  0  0  0  0  0  0  0
   -2.3381    0.6614    1.1519 C   0  0  0  0  0  0  0  0  0  0  0  0
   -2.6306    1.5687    2.1332 C   0  0  0  0  0  0  0  0  0  0  0  0
   -3.9853    1.9321    2.2641 C   0  0  0  0  0  0  0  0  0  0  0  0
   -4.8392    1.3074    1.4017 C   0  0  0  0  0  0  0  0  0  0  0  0
   -6.5434    1.6793    1.2626 S   0  0  0  0  0  0  0  0  0  0  0  0
   -7.1776    0.1618    0.4644 C   0  0  0  0  0  0  0  0  0  0  0  0
   -7.1764   -1.0229    1.4079 C   0  0  0  0  0  0  0  0  0  0  0  0
   -3.9148    0.1386    0.2521 Se  0  0  0  0  0  2  0  0  0  0  0  0
   -0.1175   -0.2162    1.8344 C   0  0  0  0  0  0  0  0  0  0  0  0
   -0.3603   -0.0179    3.5533 S   0  0  0  0  0  0  0  0  0  0  0  0
   -1.3755    0.0411   -1.6623 C   0  0  0  0  0  0  0  0  0  0  0  0
   -0.7677   -0.4017   -2.7988 C   0  0  0  0  0  0  0  0  0  0  0  0
    0.7990   -1.1014   -2.4683 S   0  0  0  0  0  0  0  0  0  0  0  0
   -1.3302   -0.3030   -4.1034 C   0  0  0  0  0  0  0  0  0  0  0  0
   -0.7853   -0.5105   -5.3333 C   0  0  0  0  0  0  0  0  0  0  0  0
   -1.6797   -0.2470   -6.4056 C   0  0  0  0  0  0  0  0  0  0  0  0
   -1.4279   -0.2985   -7.7925 C   0  0  0  0  0  0  0  0  0  0  0  0
   -0.1376   -0.6347   -8.3520 C   0  0  0  0  0  0  0  0  0  0  0  0
    0.0945   -1.3394   -9.5014 C   0  0  0  0  0  0  0  0  0  0  0  0
    1.4394   -1.4580   -9.8990 C   0  0  0  0  0  0  0  0  0  0  0  0
    2.3416   -0.8312   -9.0886 C   0  0  0  0  0  0  0  0  0  0  0  0
    4.0725   -0.9154   -9.3151 S   0  0  0  0  0  0  0  0  0  0  0  0
    4.6354    0.5282   -8.3466 C   0  0  0  0  0  0  0  0  0  0  0  0
    4.2932    1.8395   -9.0233 C   0  0  0  0  0  0  0  0  0  0  0  0
    1.4883   -0.0161   -7.6208 Se  0  0  0  0  0  2  0  0  0  0  0  0
   -2.4963    0.0450   -8.6227 C   0  0  0  0  0  0  0  0  0  0  0  0
   -3.7867    0.3778   -8.1453 C   0  0  0  0  0  0  0  0  0  0  0  0
   -4.0508    0.4067   -6.7582 C   0  0  0  0  0  0  0  0  0  0  0  0
   -5.3395    0.7745   -6.2195 C   0  0  0  0  0  0  0  0  0  0  0  0
   -6.5847    0.5415   -6.7416 C   0  0  0  0  0  0  0  0  0  0  0  0
   -7.6751    1.0610   -6.0198 C   0  0  0  0  0  0  0  0  0  0  0  0
   -7.3441    1.7307   -4.8747 C   0  0  0  0  0  0  0  0  0  0  0  0
   -8.5166    2.4425   -3.7911 S   0  0  0  0  0  0  0  0  0  0  0  0
   -7.4917    2.8681   -2.3379 C   0  0  0  0  0  0  0  0  0  0  0  0
   -6.7814    4.1970   -2.4900 C   0  0  0  0  0  0  0  0  0  0  0  0
   -5.4844    1.7526   -4.6134 Se  0  0  0  0  0  2  0  0  0  0  0  0
   -2.9632    0.1230   -5.9381 C   0  0  0  0  0  0  0  0  0  0  0  0
   -3.0147    0.1737   -4.2028 S   0  0  0  0  0  0  0  0  0  0  0  0
   -4.6471    0.7755   -9.1950 C   0  0  0  0  0  0  0  0  0  0  0  0
   -4.0428    0.8148  -10.4142 C   0  0  0  0  0  0  0  0  0  0  0  0
   -2.3973    0.2386  -10.3548 S   0  0  0  0  0  0  0  0  0  0  0  0
   -4.5993    1.2328  -11.6743 C   0  0  0  0  0  0  0  0  0  0  0  0
   -5.6154    2.1206  -11.8073 C   0  0  0  0  0  0  0  0  0  0  0  0
   -6.2336    2.3967  -13.0168 O   0  0  0  0  0  0  0  0  0  0  0  0
   -5.6571    1.7842  -14.0954 C   0  0  0  0  0  0  0  0  0  0  0  0
   -4.5362    0.9122  -13.9636 C   0  0  0  0  0  0  0  0  0  0  0  0
   -4.1079    0.4224  -15.1520 C   0  0  0  0  0  0  0  0  0  0  0  0
   -5.0669    1.0178  -16.4559 S   0  0  0  0  0  0  0  0  0  0  0  0
   -6.0546    1.9371  -15.3820 C   0  0  0  0  0  0  0  0  0  0  0  0
   -3.9944    0.6085  -12.7494 O   0  0  0  0  0  0  0  0  0  0  0  0
   -6.1843    2.8948  -10.7109 C   0  0  0  0  0  0  0  0  0  0  0  0
   -7.4943    3.1667  -10.6309 C   0  0  0  0  0  0  0  0  0  0  0  0
   -8.0971    3.8304   -9.5989 O   0  0  0  0  0  0  0  0  0  0  0  0
   -7.2494    4.0973   -8.5556 C   0  0  0  0  0  0  0  0  0  0  0  0
   -5.8464    3.8457   -8.6430 C   0  0  0  0  0  0  0  0  0  0  0  0
   -5.1857    4.1560   -7.5024 C   0  0  0  0  0  0  0  0  0  0  0  0
   -6.2610    4.7851   -6.3108 S   0  0  0  0  0  0  0  0  0  0  0  0
   -7.6202    4.5977   -7.3523 C   0  0  0  0  0  0  0  0  0  0  0  0
   -5.2634    3.3411   -9.7740 O   0  0  0  0  0  0  0  0  0  0  0  0
    4.5951   -1.4183   13.7403 H   0  0  0  0  0  0  0  0  0  0  0  0
    7.7315   -3.5742   16.7009 H   0  0  0  0  0  0  0  0  0  0  0  0
    8.7550   -5.4553   12.6961 H   0  0  0  0  0  0  0  0  0  0  0  0
    3.4746   -0.9595   11.7129 H   0  0  0  0  0  0  0  0  0  0  0  0
    3.2598    1.1566   11.0007 H   0  0  0  0  0  0  0  0  0  0  0  0
    1.4750    2.6217   12.1004 H   0  0  0  0  0  0  0  0  0  0  0  0
   -2.4670    1.7998    9.4480 H   0  0  0  0  0  0  0  0  0  0  0  0
   -3.5768    2.6751   10.5310 H   0  0  0  0  0  0  0  0  0  0  0  0
   -3.4786    0.7936   12.1688 H   0  0  0  0  0  0  0  0  0  0  0  0
   -2.3749   -0.0882   11.1047 H   0  0  0  0  0  0  0  0  0  0  0  0
   -4.0393    0.2121   10.5941 H   0  0  0  0  0  0  0  0  0  0  0  0
    3.1946   -4.6395    5.7577 H   0  0  0  0  0  0  0  0  0  0  0  0
    4.8388   -6.0420    4.3750 H   0  0  0  0  0  0  0  0  0  0  0  0
    9.8983   -4.9206    3.8944 H   0  0  0  0  0  0  0  0  0  0  0  0
    9.1542   -4.0180    5.2374 H   0  0  0  0  0  0  0  0  0  0  0  0
    8.3106   -3.8461    2.2861 H   0  0  0  0  0  0  0  0  0  0  0  0
    9.2231   -2.6119    3.1622 H   0  0  0  0  0  0  0  0  0  0  0  0
    7.5528   -2.9626    3.6179 H   0  0  0  0  0  0  0  0  0  0  0  0
    3.2080   -2.4063    4.7398 H   0  0  0  0  0  0  0  0  0  0  0  0
    2.9055   -1.3452    2.7621 H   0  0  0  0  0  0  0  0  0  0  0  0
    3.3311   -0.9414   -1.9389 H   0  0  0  0  0  0  0  0  0  0  0  0
    5.3767   -2.4531   -2.0808 H   0  0  0  0  0  0  0  0  0  0  0  0
    5.3531   -4.8035    2.1592 H   0  0  0  0  0  0  0  0  0  0  0  0
    6.6602   -5.9274    1.7244 H   0  0  0  0  0  0  0  0  0  0  0  0
    3.8093   -6.0216    0.5941 H   0  0  0  0  0  0  0  0  0  0  0  0
    5.1260   -7.1132    0.1451 H   0  0  0  0  0  0  0  0  0  0  0  0
    4.4790   -7.1372    1.7898 H   0  0  0  0  0  0  0  0  0  0  0  0
   -1.8679    2.0125    2.7503 H   0  0  0  0  0  0  0  0  0  0  0  0
   -4.3275    2.6501    2.9891 H   0  0  0  0  0  0  0  0  0  0  0  0
   -6.5573   -0.0234   -0.4188 H   0  0  0  0  0  0  0  0  0  0  0  0
   -8.1878    0.4160    0.1453 H   0  0  0  0  0  0  0  0  0  0  0  0
   -6.1617   -1.2561    1.7302 H   0  0  0  0  0  0  0  0  0  0  0  0
   -7.5868   -1.8957    0.9045 H   0  0  0  0  0  0  0  0  0  0  0  0
   -7.7786   -0.8084    2.2879 H   0  0  0  0  0  0  0  0  0  0  0  0
   -2.3176    0.5607   -1.7023 H   0  0  0  0  0  0  0  0  0  0  0  0
    0.2301   -0.8505   -5.4532 H   0  0  0  0  0  0  0  0  0  0  0  0
   -0.7012   -1.8034  -10.0589 H   0  0  0  0  0  0  0  0  0  0  0  0
    1.7411   -1.9949  -10.7814 H   0  0  0  0  0  0  0  0  0  0  0  0
    4.1783    0.4505   -7.3549 H   0  0  0  0  0  0  0  0  0  0  0  0
    5.7130    0.3967   -8.2548 H   0  0  0  0  0  0  0  0  0  0  0  0
    4.7395    1.8826  -10.0140 H   0  0  0  0  0  0  0  0  0  0  0  0
    3.2137    1.9498   -9.1242 H   0  0  0  0  0  0  0  0  0  0  0  0
    4.6701    2.6707   -8.4309 H   0  0  0  0  0  0  0  0  0  0  0  0
   -6.7370   -0.0700   -7.6151 H   0  0  0  0  0  0  0  0  0  0  0  0
   -8.6967    0.9253   -6.3310 H   0  0  0  0  0  0  0  0  0  0  0  0
   -6.7827    2.0472   -2.1970 H   0  0  0  0  0  0  0  0  0  0  0  0
   -8.1881    2.8900   -1.5001 H   0  0  0  0  0  0  0  0  0  0  0  0
   -6.0959    4.1759   -3.3383 H   0  0  0  0  0  0  0  0  0  0  0  0
   -6.2124    4.4073   -1.5870 H   0  0  0  0  0  0  0  0  0  0  0  0
   -7.4995    4.9972   -2.6493 H   0  0  0  0  0  0  0  0  0  0  0  0
   -5.6763    1.0339   -9.0464 H   0  0  0  0  0  0  0  0  0  0  0  0
   -3.2924   -0.2456  -15.3333 H   0  0  0  0  0  0  0  0  0  0  0  0
   -6.8622    2.5303  -15.7562 H   0  0  0  0  0  0  0  0  0  0  0  0
   -8.1945    2.8420  -11.3802 H   0  0  0  0  0  0  0  0  0  0  0  0
   -4.1378    4.0697   -7.3032 H   0  0  0  0  0  0  0  0  0  0  0  0
   -8.6005    4.8695   -7.0217 H   0  0  0  0  0  0  0  0  0  0  0  0
  1  2  2  0  0  0  0
  2  3  1  0  0  0  0
  3  4  1  0  0  0  0
  4  5  1  0  0  0  0
  5  6  2  0  0  0  0
  6  7  1  0  0  0  0
  7  8  1  0  0  0  0
  5  9  1  0  0  0  0
  2 10  1  0  0  0  0
 10 11  2  0  0  0  0
 11 12  1  0  0  0  0
 12 13  2  0  0  0  0
 13 14  1  0  0  0  0
 14 15  2  0  0  0  0
 15 16  1  0  0  0  0
 16 17  2  0  0  0  0
 17 18  1  0  0  0  0
 18 19  1  0  0  0  0
 19 20  1  0  0  0  0
 17 21  1  0  0  0  0
 13 22  1  0  0  0  0
 22 23  2  0  0  0  0
 23 24  1  0  0  0  0
 24 25  1  0  0  0  0
 25 26  2  0  0  0  0
 26 27  1  0  0  0  0
 27 28  2  0  0  0  0
 28 29  1  0  0  0  0
 29 30  1  0  0  0  0
 30 31  1  0  0  0  0
 28 32  1  0  0  0  0
 24 33  2  0  0  0  0
 33 34  1  0  0  0  0
 23 35  1  0  0  0  0
 35 36  2  0  0  0  0
 36 37  1  0  0  0  0
 36 38  1  0  0  0  0
 38 39  2  0  0  0  0
 39 40  1  0  0  0  0
 40 41  2  0  0  0  0
 41 42  1  0  0  0  0
 42 43  2  0  0  0  0
 43 44  1  0  0  0  0
 44 45  2  0  0  0  0
 45 46  1  0  0  0  0
 46 47  1  0  0  0  0
 47 48  1  0  0  0  0
 45 49  1  0  0  0  0
 41 50  1  0  0  0  0
 50 51  2  0  0  0  0
 51 52  1  0  0  0  0
 52 53  1  0  0  0  0
 53 54  2  0  0  0  0
 54 55  1  0  0  0  0
 55 56  2  0  0  0  0
 56 57  1  0  0  0  0
 57 58  1  0  0  0  0
 58 59  1  0  0  0  0
 56 60  1  0  0  0  0
 52 61  2  0  0  0  0
 61 62  1  0  0  0  0
 51 63  1  0  0  0  0
 63 64  2  0  0  0  0
 64 65  1  0  0  0  0
 64 66  1  0  0  0  0
 66 67  2  0  0  0  0
 67 68  1  0  0  0  0
 68 69  2  0  0  0  0
 69 70  1  0  0  0  0
 70 71  2  0  0  0  0
 71 72  1  0  0  0  0
 72 73  2  0  0  0  0
 73 74  1  0  0  0  0
 74 75  1  0  0  0  0
 75 76  1  0  0  0  0
 73 77  1  0  0  0  0
 69 78  1  0  0  0  0
 78 79  2  0  0  0  0
 79 80  1  0  0  0  0
 80 81  1  0  0  0  0
 81 82  2  0  0  0  0
 82 83  1  0  0  0  0
 83 84  2  0  0  0  0
 84 85  1  0  0  0  0
 85 86  1  0  0  0  0
 86 87  1  0  0  0  0
 84 88  1  0  0  0  0
 80 89  2  0  0  0  0
 89 90  1  0  0  0  0
 79 91  1  0  0  0  0
 91 92  2  0  0  0  0
 92 93  1  0  0  0  0
 92 94  1  0  0  0  0
 94 95  2  0  0  0  0
 95 96  1  0  0  0  0
 96 97  1  0  0  0  0
 97 98  1  0  0  0  0
 98 99  2  0  0  0  0
 99100  1  0  0  0  0
100101  1  0  0  0  0
 98102  1  0  0  0  0
 95103  1  0  0  0  0
103104  2  0  0  0  0
104105  1  0  0  0  0
105106  1  0  0  0  0
106107  1  0  0  0  0
107108  2  0  0  0  0
108109  1  0  0  0  0
109110  1  0  0  0  0
107111  1  0  0  0  0
  9  1  1  0  0  0  0
 34 10  1  0  0  0  0
 62 38  1  0  0  0  0
 90 66  1  0  0  0  0
102 94  1  0  0  0  0
111103  1  0  0  0  0
  8  4  2  0  0  0  0
 33 12  1  0  0  0  0
 61 40  1  0  0  0  0
 89 68  1  0  0  0  0
101 97  2  0  0  0  0
110106  2  0  0  0  0
 21 14  1  0  0  0  0
 37 22  1  0  0  0  0
 49 42  1  0  0  0  0
 65 50  1  0  0  0  0
 77 70  1  0  0  0  0
 93 78  1  0  0  0  0
 32 25  1  0  0  0  0
 60 53  1  0  0  0  0
 88 81  1  0  0  0  0
  1112  1  0  0  0  0
  6113  1  0  0  0  0
  8114  1  0  0  0  0
 11115  1  0  0  0  0
 15116  1  0  0  0  0
 16117  1  0  0  0  0
 19118  1  0  0  0  0
 19119  1  0  0  0  0
 20120  1  0  0  0  0
 20121  1  0  0  0  0
 20122  1  0  0  0  0
 26123  1  0  0  0  0
 27124  1  0  0  0  0
 30125  1  0  0  0  0
 30126  1  0  0  0  0
 31127  1  0  0  0  0
 31128  1  0  0  0  0
 31129  1  0  0  0  0
 35130  1  0  0  0  0
 39131  1  0  0  0  0
 43132  1  0  0  0  0
 44133  1  0  0  0  0
 47134  1  0  0  0  0
 47135  1  0  0  0  0
 48136  1  0  0  0  0
 48137  1  0  0  0  0
 48138  1  0  0  0  0
 54139  1  0  0  0  0
 55140  1  0  0  0  0
 58141  1  0  0  0  0
 58142  1  0  0  0  0
 59143  1  0  0  0  0
 59144  1  0  0  0  0
 59145  1  0  0  0  0
 63146  1  0  0  0  0
 67147  1  0  0  0  0
 71148  1  0  0  0  0
 72149  1  0  0  0  0
 75150  1  0  0  0  0
 75151  1  0  0  0  0
 76152  1  0  0  0  0
 76153  1  0  0  0  0
 76154  1  0  0  0  0
 82155  1  0  0  0  0
 83156  1  0  0  0  0
 86157  1  0  0  0  0
 86158  1  0  0  0  0
 87159  1  0  0  0  0
 87160  1  0  0  0  0
 87161  1  0  0  0  0
 91162  1  0  0  0  0
 99163  1  0  0  0  0
101164  1  0  0  0  0
104165  1  0  0  0  0
108166  1  0  0  0  0
110167  1  0  0  0  0
M  END
