290

C         -1.95400       -9.76680       10.77040
C         -1.13330       -8.69890       10.82860
C         -1.50130       -7.65910        9.92410
C         -0.84240       -6.43570        9.69250
C          0.40820       -6.07930       10.33050
C          0.77310       -4.84510       10.79000
C          2.08810       -4.72910       11.28160
C          2.83490       -5.86910       11.21510
S          4.45710       -6.00730       11.85320
C          5.09580       -7.43400       10.90680
C          5.33790       -7.09210        9.45110
Se         1.83560       -7.30110       10.50590
C         -1.44850       -5.57640        8.77960
C         -2.64200       -5.89450        8.09170
C         -3.25380       -7.15200        8.25730
C         -4.37120       -7.56880        7.44030
C         -5.44530       -8.33400        7.79500
C         -6.35760       -8.64010        6.76620
C         -6.03060       -8.15640        5.53220
S         -6.96460       -8.45600        4.08560
C         -6.26160       -7.22990        2.92610
C         -6.69360       -5.81220        3.23880
Se        -4.41050       -7.20480        5.58760
C         -2.67200       -7.99260        9.20410
S         -3.23700       -9.58710        9.62720
C         -3.06330       -4.83580        7.25020
C         -2.20100       -3.78260        7.21760
S         -0.82880       -4.02150        8.27820
C         -2.31250       -2.62730        6.38850
C         -1.32650       -1.76720        6.00990
C         -1.73880       -0.82310        5.03380
C         -0.93070        0.11290        4.35820
C          0.40790        0.43020        4.86280
C          0.57570        0.61030        6.23630
C          1.79030        0.97660        6.77640
C          2.89220        1.18640        5.95610
S          4.48320        1.68100        6.51500
C          4.17610        2.16170        8.25730
C          5.39540        2.89430        8.78400
C          2.72010        0.98560        4.58630
F          3.78370        1.15720        3.77380
C          1.51250        0.62000        4.03450
C         -1.51700        0.74440        3.26720
C         -2.90550        0.65110        3.00100
C         -3.73730       -0.20010        3.74600
C         -5.17760       -0.25220        3.47100
C         -5.92420        0.92620        3.42870
C         -7.27020        0.89660        3.14000
C         -7.93480       -0.30260        2.88050
S         -9.67610       -0.18210        2.58940
C        -10.08270       -1.51530        1.40090
C         -9.34700       -1.35480        0.08740
C         -7.18240       -1.47050        2.95080
C         -5.83040       -1.45560        3.23310
F         -7.75150       -2.67950        2.73580
C         -3.10390       -0.98770        4.69130
S         -3.84180       -2.27510        5.60430
C         -3.27410        1.37430        1.84580
C         -2.22100        1.93950        1.19010
S         -0.71490        1.69610        2.04380
C         -2.30060        2.48250       -0.12540
C         -1.32670        2.75010       -1.04150
C         -1.82740        3.01200       -2.34730
C         -1.10090        3.12060       -3.55890
C          0.33790        3.26320       -3.54720
C          1.06320        3.98870       -2.63920
C          2.45250        4.04740       -2.85290
C          2.89700        3.35460       -3.94050
S          4.56880        3.25600       -4.43630
C          4.35600        3.31630       -6.26150
C          5.66130        3.71750       -6.91520
Se         1.47960        2.47450       -4.82800
C         -1.85150        3.02940       -4.72940
C         -3.26610        2.94960       -4.75230
C         -3.99390        2.89600       -3.55030
C         -5.40770        2.57740       -3.50460
C         -6.06160        1.60020       -4.20430
C         -7.41570        1.39970       -3.87230
C         -7.89630        2.21450       -2.88640
S         -9.54380        2.15820       -2.30240
C         -9.50110        3.35420       -0.91960
C         -8.86320        2.78480        0.33130
Se        -6.56850        3.40580       -2.27570
C         -3.23870        2.93480       -2.38380
S         -3.90750        2.62590       -0.80990
C         -3.77230        2.68670       -6.04530
C         -2.80700        2.42390       -6.97390
S         -1.19860        2.79710       -6.33620
C         -2.92590        1.41060       -7.97850
C         -1.94150        0.84610       -8.73500
C         -2.03940       -0.57500       -8.81380
C         -0.96550       -1.43930       -9.06480
C          0.29610       -0.95090       -9.66170
C          0.57120       -1.07000      -11.01690
C          1.79290       -0.66090      -11.51660
C          2.76280       -0.11660      -10.68320
S          4.32300        0.36380      -11.37850
C          5.47610       -0.56440      -10.29940
C          5.24430       -2.05970      -10.37060
C          2.45180        0.04160       -9.33690
F          3.33330        0.62020       -8.49120
C          1.24530       -0.38060       -8.81950
C         -0.99150       -2.66630       -8.42750
C         -2.02570       -3.06760       -7.54160
C         -3.17300       -2.26860       -7.41810
C         -4.10340       -2.36580       -6.27330
C         -3.57820       -2.12730       -5.00460
C         -4.39880       -1.95600       -3.90830
C         -5.78140       -2.01070       -4.04200
S         -6.92550       -1.71980       -2.73390
C         -5.94690       -0.81740       -1.47930
C         -5.33840       -1.73560       -0.43740
C         -6.29130       -2.29710       -5.31000
C         -5.48230       -2.46060       -6.41620
F         -7.62590       -2.37860       -5.47460
C         -3.16310       -1.06240       -8.10010
S         -4.23280        0.24750       -7.65700
C         -1.55830       -3.99800       -6.57540
C         -0.21070       -4.22090       -6.64880
S          0.46310       -3.60510       -8.16500
C          0.66310       -4.28660       -5.51920
C          1.91600       -3.73950       -5.51620
C          2.26860       -3.13570       -4.28530
C          3.26990       -2.17090       -4.10520
C          4.31110       -1.92490       -5.10850
C          4.56410       -0.63840       -5.57730
C          5.61350       -0.38590       -6.43650
C          6.45160       -1.41250       -6.85660
S          7.86620       -1.19810       -7.88720
C          8.25760        0.57890       -7.72020
C          8.68990        0.94940       -6.31480
C          6.14090       -2.70740       -6.43920
F          6.89920       -3.73560       -6.87230
C          5.09590       -2.97400       -5.58290
C          3.17190       -1.39150       -2.96260
C          2.18990       -1.58120       -1.95850
C          1.24310       -2.61360       -2.10380
C          0.20200       -2.85810       -1.09790
C          0.01370       -4.13110       -0.56770
C         -0.93810       -4.37190        0.40590
C         -1.74590       -3.34300        0.87360
S         -2.99980       -3.47900        2.10350
C         -2.73720       -5.10580        2.88500
C         -1.49360       -5.15490        3.74950
C         -1.57540       -2.08430        0.29730
C         -0.62430       -1.82550       -0.66100
F         -2.38240       -1.07630        0.68820
C          1.28290       -3.33250       -3.28770
S         -0.01530       -4.34720       -3.88880
C          2.27950       -0.58960       -0.94400
C          3.25500        0.33460       -1.17480
S          4.18180       -0.02100       -2.61760
C          3.58450        1.54200       -0.49010
C          4.49440        2.45190       -0.93680
C          4.61650        3.59140       -0.10910
C          5.43070        4.71160       -0.33330
C          6.28590        4.77300       -1.52600
C          7.16810        3.73490       -1.82270
C          7.92910        3.76520       -2.97030
C          7.83200        4.82280       -3.87140
S          8.80650        4.73610       -5.34380
C          9.29140        6.48320       -5.64180
C         10.59320        6.50900       -6.41760
C          6.94270        5.84760       -3.56810
F          6.76750        6.88300       -4.42060
C          6.19310        5.84210       -2.40910
C          5.34660        5.72980        0.60210
C          4.54250        5.63990        1.76440
C          3.73920        4.51040        1.99350
C          2.96290        4.38950        3.23430
C          3.58820        4.57970        4.46670
C          2.86940        4.50140        5.63730
C          1.50330        4.21650        5.63830
S          0.74380        4.11400        7.23270
C         -1.04270        4.45290        7.00880
C         -1.87860        3.19090        6.92440
C          0.90080        4.00470        4.40500
C          1.60660        4.09390        3.22040
F         -0.41900        3.72250        4.31650
C          3.75880        3.52450        1.01670
S          2.81250        2.05800        0.99300
C          4.65350        6.81830        2.56320
C          5.50220        7.72890        2.04590
S          6.22890        7.23420        0.55490
H         -1.90190      -10.67080       11.34480
H         -0.30380       -8.63550       11.51220
H          0.08990       -4.01280       10.80250
H          2.48460       -3.80930       11.67520
H          4.37130       -8.24700       11.01860
H          6.02150       -7.70850       11.41120
H          6.04130       -6.26690        9.36720
H          4.40670       -6.80430        8.96380
H          5.74590       -7.95640        8.93130
H         -5.61990       -8.63890        8.81280
H         -7.25590       -9.20790        6.93540
H         -5.17280       -7.34400        2.96420
H         -6.61930       -7.54470        1.94640
H         -6.27360       -5.12720        2.50580
H         -7.77660       -5.72660        3.20900
H         -6.35270       -5.51010        4.22990
H         -3.98630       -4.82730        6.69520
H         -0.31560       -1.85760        6.36680
H         -0.27000        0.48930        6.89540
H          1.86780        1.10870        7.84240
H          3.29530        2.80410        8.27230
H          3.99080        1.25470        8.83290
H          5.22860        3.19270        9.81680
H          6.27330        2.25390        8.74250
H          5.59200        3.78410        8.19040
H          1.44860        0.47580        2.96850
H         -5.44240        1.86980        3.63550
H         -7.84230        1.81060        3.11140
H         -9.88050       -2.47580        1.86910
H        -11.15900       -1.40490        1.26770
H         -9.63440       -2.14900       -0.59780
H         -9.58070       -0.40020       -0.37890
H         -8.27310       -1.41330        0.24400
H         -5.29300       -2.39000        3.24430
H         -4.27740        1.39430        1.45970
H         -0.27980        2.67300       -0.80530
H          0.58950        4.55500       -1.85470
H          3.11450        4.62800       -2.23430
H          3.57160        4.04760       -6.46250
H          4.02160        2.32940       -6.58890
H          5.92120        4.73820       -6.64630
H          6.47160        3.06910       -6.58940
H          5.56630        3.65520       -7.99730
H         -5.55920        0.96780       -4.91870
H         -8.02330        0.64400       -4.33860
H         -8.96770        4.23930       -1.28090
H        -10.54510        3.61280       -0.74570
H         -9.42470        1.92720        0.69320
H         -8.85010        3.54500        1.10940
H         -7.83550        2.47500        0.13710
H         -4.81930        2.57070       -6.25800
H         -1.06360        1.38190       -9.05200
H         -0.16620       -1.50040      -11.67700
H          2.01900       -0.76760      -12.56590
H          5.37090       -0.19040       -9.28400
H          6.46220       -0.30100      -10.67990
H          5.31010       -2.40790      -11.39880
H          4.26230       -2.32030       -9.97750
H          6.00140       -2.57220       -9.78060
H          1.04980       -0.25360       -7.76470
H         -2.50920       -2.03440       -4.87930
H         -3.94900       -1.75690       -2.94940
H         -5.19910       -0.22180       -2.00060
H         -6.66720       -0.13720       -1.02300
H         -6.11140       -2.32480        0.05060
H         -4.82120       -1.14960        0.31920
H         -4.62720       -2.42640       -0.88520
H         -5.93440       -2.63810       -7.37930
H         -2.15860       -4.33040       -5.74700
H          2.49320       -3.60410       -6.41380
H          3.92110        0.17650       -5.27810
H          5.77610        0.62260       -6.77710
H          9.07430        0.72160       -8.42760
H          7.40160        1.15990       -8.06100
H          7.89430        0.76250       -5.59600
H          8.95080        2.00560       -6.27480
H          9.55950        0.36450       -6.02410
H          4.92140       -3.98920       -5.26170
H          0.63490       -4.94460       -0.91060
H         -1.04750       -5.37140        0.79460
H         -2.73800       -5.86990        2.10840
H         -3.63000       -5.23140        3.50240
H         -0.58820       -5.07930        3.15140
H         -1.47440       -6.09420        4.30180
H         -1.50090       -4.33650        4.46520
H         -0.54930       -0.83190       -1.07550
H          1.63130       -0.54560       -0.08700
H          5.04250        2.32650       -1.85300
H          7.27140        2.91050       -1.13410
H          8.61340        2.96190       -3.19440
H          8.49200        6.97210       -6.19690
H          9.40390        6.95290       -4.66580
H         10.47540        6.01150       -7.37770
H         10.89460        7.53940       -6.59330
H         11.37980        6.00370       -5.86150
H          5.51160        6.65920       -2.22980
H          4.64900        4.77240        4.50280
H          3.35660        4.66640        6.58560
H         -1.30800        5.03210        7.89410
H         -1.15530        5.08150        6.12930
H         -1.73130        2.58070        7.81290
H         -1.61570        2.60450        6.04830
H         -2.93160        3.45770        6.85630
H          1.07730        3.93630        2.29420
H          4.10150        6.96930        3.47310
H          5.75790        8.69180        2.44310
