
  xtb     03072222053D
 energy: -339.212028309953 gnorm: 0.000452632318 xtb: 6.4.1 (unknown)
206226  0     0  0            999 V2000
    3.1756   -4.0226   10.1479 C   0  0  0  0  0  0  0  0  0  0  0  0
    3.1276   -2.3384   10.3911 S   0  0  0  0  0  0  0  0  0  0  0  0
    2.9339   -2.0058    8.6859 C   0  0  0  0  0  0  0  0  0  0  0  0
    2.9844   -3.1991    7.9645 C   0  0  0  0  0  0  0  0  0  0  0  0
    3.0961   -4.3513    8.8143 C   0  0  0  0  0  0  0  0  0  0  0  0
    3.1445   -5.6467    8.2447 C   0  0  0  0  0  0  0  0  0  0  0  0
    3.0919   -5.8111    6.8968 C   0  0  0  0  0  0  0  0  0  0  0  0
    3.1995   -7.1564    6.2562 C   0  0  0  0  0  0  0  0  0  0  0  0
    2.9897   -4.6577    6.0488 C   0  0  0  0  0  0  0  0  0  0  0  0
    2.9045   -4.9549    4.7226 O   0  0  0  0  0  0  0  0  0  0  0  0
    2.8719   -3.8976    3.7976 C   0  0  0  0  0  0  0  0  0  0  0  0
    2.9819   -3.3890    6.5627 C   0  0  0  0  0  0  0  0  0  0  0  0
    2.7862   -0.6206    8.3575 C   0  0  0  0  0  0  0  0  0  0  0  0
    2.0657    0.0223    7.4083 C   0  0  0  0  0  0  0  0  0  0  0  0
    1.1633   -0.4993    6.4381 C   0  0  0  0  0  0  0  0  0  0  0  0
    0.6268   -1.7451    6.2931 C   0  0  0  0  0  0  0  0  0  0  0  0
   -0.1343   -1.9116    5.1132 C   0  0  0  0  0  0  0  0  0  0  0  0
   -0.6550   -3.1173    4.5947 C   0  0  0  0  0  0  0  0  0  0  0  0
   -0.5566   -4.3567    5.3334 C   0  0  0  0  0  0  0  0  0  0  0  0
   -0.7389   -4.5415    6.6769 C   0  0  0  0  0  0  0  0  0  0  0  0
   -0.5945   -5.8608    7.1439 C   0  0  0  0  0  0  0  0  0  0  0  0
   -0.2868   -6.7805    6.1823 C   0  0  0  0  0  0  0  0  0  0  0  0
   -0.0633   -8.4852    6.5195 S   0  0  0  0  0  0  0  0  0  0  0  0
   -0.4644   -9.2530    4.9059 C   0  0  0  0  0  0  0  0  0  0  0  0
    0.7324   -9.3340    3.9792 C   0  0  0  0  0  0  0  0  0  0  0  0
   -0.0989   -5.9720    4.4945 Se  0  0  0  0  0  2  0  0  0  0  0  0
   -1.2210   -3.0401    3.3295 C   0  0  0  0  0  0  0  0  0  0  0  0
   -1.3748   -1.8320    2.6040 C   0  0  0  0  0  0  0  0  0  0  0  0
   -0.8731   -0.6186    3.1331 C   0  0  0  0  0  0  0  0  0  0  0  0
   -1.0518    0.6482    2.4619 C   0  0  0  0  0  0  0  0  0  0  0  0
   -1.1280    0.9237    1.1224 C   0  0  0  0  0  0  0  0  0  0  0  0
   -1.4743    2.2429    0.7739 C   0  0  0  0  0  0  0  0  0  0  0  0
   -1.6845    3.0820    1.8308 C   0  0  0  0  0  0  0  0  0  0  0  0
   -2.1583    4.7565    1.6540 S   0  0  0  0  0  0  0  0  0  0  0  0
   -2.4667    5.2476    3.3843 C   0  0  0  0  0  0  0  0  0  0  0  0
   -3.8093    4.7614    3.8890 C   0  0  0  0  0  0  0  0  0  0  0  0
   -1.3592    2.2161    3.4674 Se  0  0  0  0  0  2  0  0  0  0  0  0
   -0.2371   -0.7144    4.3682 C   0  0  0  0  0  0  0  0  0  0  0  0
    0.6022    0.5847    5.1680 S   0  0  0  0  0  0  0  0  0  0  0  0
   -2.0642   -2.0457    1.3932 C   0  0  0  0  0  0  0  0  0  0  0  0
   -2.3955   -3.3534    1.1445 C   0  0  0  0  0  0  0  0  0  0  0  0
   -1.8941   -4.3962    2.4606 S   0  0  0  0  0  0  0  0  0  0  0  0
   -2.9969   -3.8264   -0.0441 C   0  0  0  0  0  0  0  0  0  0  0  0
   -3.0714   -2.7285   -1.3868 S   0  0  0  0  0  0  0  0  0  0  0  0
   -3.7674   -3.9174   -2.4481 C   0  0  0  0  0  0  0  0  0  0  0  0
   -3.9816   -5.1158   -1.7499 C   0  0  0  0  0  0  0  0  0  0  0  0
   -3.5293   -5.0709   -0.3979 C   0  0  0  0  0  0  0  0  0  0  0  0
   -3.6541   -6.2241    0.4020 C   0  0  0  0  0  0  0  0  0  0  0  0
   -4.2025   -7.3672   -0.1020 C   0  0  0  0  0  0  0  0  0  0  0  0
   -4.3414   -8.6062    0.7227 C   0  0  0  0  0  0  0  0  0  0  0  0
   -4.6721   -7.3964   -1.4514 C   0  0  0  0  0  0  0  0  0  0  0  0
   -5.2141   -8.5864   -1.8354 O   0  0  0  0  0  0  0  0  0  0  0  0
   -5.7269   -8.7018   -3.1384 C   0  0  0  0  0  0  0  0  0  0  0  0
   -4.5654   -6.2916   -2.2568 C   0  0  0  0  0  0  0  0  0  0  0  0
   -3.8960   -3.6422   -3.8213 C   0  0  0  0  0  0  0  0  0  0  0  0
   -3.6173   -2.4100   -4.3396 C   0  0  0  0  0  0  0  0  0  0  0  0
   -3.4075   -2.0728   -5.6844 C   0  0  0  0  0  0  0  0  0  0  0  0
   -3.3552   -3.2514   -6.9658 S   0  0  0  0  0  0  0  0  0  0  0  0
   -2.7093   -2.1087   -8.1008 C   0  0  0  0  0  0  0  0  0  0  0  0
   -2.6650   -0.8326   -7.5423 C   0  0  0  0  0  0  0  0  0  0  0  0
   -3.0315   -0.8090   -6.1669 C   0  0  0  0  0  0  0  0  0  0  0  0
   -2.9234    0.4007   -5.4545 C   0  0  0  0  0  0  0  0  0  0  0  0
   -2.5179    1.5472   -6.0758 C   0  0  0  0  0  0  0  0  0  0  0  0
   -2.3926    2.8385   -5.3354 C   0  0  0  0  0  0  0  0  0  0  0  0
   -2.2359    1.5316   -7.4785 C   0  0  0  0  0  0  0  0  0  0  0  0
   -1.8950    2.7442   -8.0077 O   0  0  0  0  0  0  0  0  0  0  0  0
   -1.7795    2.8460   -9.4059 C   0  0  0  0  0  0  0  0  0  0  0  0
   -2.3139    0.3701   -8.1967 C   0  0  0  0  0  0  0  0  0  0  0  0
   -2.0453   -2.5273   -9.3180 C   0  0  0  0  0  0  0  0  0  0  0  0
   -0.7568   -2.2063   -9.5157 C   0  0  0  0  0  0  0  0  0  0  0  0
   -0.0018   -1.5668   -8.4448 C   0  0  0  0  0  0  0  0  0  0  0  0
    0.4859   -0.3085   -8.3491 C   0  0  0  0  0  0  0  0  0  0  0  0
    0.8393    0.0769   -7.0226 C   0  0  0  0  0  0  0  0  0  0  0  0
    1.1571    1.3678   -6.5590 C   0  0  0  0  0  0  0  0  0  0  0  0
    1.3182    2.4792   -7.4666 C   0  0  0  0  0  0  0  0  0  0  0  0
    1.9110    2.4810   -8.7015 C   0  0  0  0  0  0  0  0  0  0  0  0
    1.8468    3.6912   -9.4159 C   0  0  0  0  0  0  0  0  0  0  0  0
    1.1900    4.7031   -8.7705 C   0  0  0  0  0  0  0  0  0  0  0  0
    0.9700    6.3008   -9.4531 S   0  0  0  0  0  0  0  0  0  0  0  0
    0.0515    7.1593   -8.1269 C   0  0  0  0  0  0  0  0  0  0  0  0
   -1.4226    6.8053   -8.1078 C   0  0  0  0  0  0  0  0  0  0  0  0
    0.5870    4.1636   -7.0812 Se  0  0  0  0  0  2  0  0  0  0  0  0
    1.2051    1.5236   -5.1754 C   0  0  0  0  0  0  0  0  0  0  0  0
    1.0326    0.4646   -4.2569 C   0  0  0  0  0  0  0  0  0  0  0  0
    0.7947   -0.8471   -4.7222 C   0  0  0  0  0  0  0  0  0  0  0  0
    0.6607   -1.9604   -3.8126 C   0  0  0  0  0  0  0  0  0  0  0  0
    1.2906   -2.1281   -2.6053 C   0  0  0  0  0  0  0  0  0  0  0  0
    0.9765   -3.3003   -1.8951 C   0  0  0  0  0  0  0  0  0  0  0  0
    0.0903   -4.1311   -2.5174 C   0  0  0  0  0  0  0  0  0  0  0  0
   -0.4638   -5.6484   -1.8376 S   0  0  0  0  0  0  0  0  0  0  0  0
   -0.3587   -6.7454   -3.3024 C   0  0  0  0  0  0  0  0  0  0  0  0
   -1.6261   -6.7361   -4.1305 C   0  0  0  0  0  0  0  0  0  0  0  0
   -0.4872   -3.4108   -4.1584 Se  0  0  0  0  0  2  0  0  0  0  0  0
    0.6510   -0.9771   -6.1022 C   0  0  0  0  0  0  0  0  0  0  0  0
    0.1178   -2.4206   -6.9096 S   0  0  0  0  0  0  0  0  0  0  0  0
    1.0502    0.9294   -2.9175 C   0  0  0  0  0  0  0  0  0  0  0  0
    1.2619    2.2690   -2.7987 C   0  0  0  0  0  0  0  0  0  0  0  0
    1.4481    3.0447   -4.3548 S   0  0  0  0  0  0  0  0  0  0  0  0
    1.3212    3.0022   -1.5712 C   0  0  0  0  0  0  0  0  0  0  0  0
    1.7161    2.5118   -0.3629 C   0  0  0  0  0  0  0  0  0  0  0  0
    1.5735    3.4322    0.7061 C   0  0  0  0  0  0  0  0  0  0  0  0
    1.8168    3.2316    2.0830 C   0  0  0  0  0  0  0  0  0  0  0  0
    2.3661    2.0023    2.6068 C   0  0  0  0  0  0  0  0  0  0  0  0
    2.2238    0.7197    2.1502 C   0  0  0  0  0  0  0  0  0  0  0  0
    2.9743   -0.2703    2.8098 C   0  0  0  0  0  0  0  0  0  0  0  0
    3.7607    0.1856    3.8306 C   0  0  0  0  0  0  0  0  0  0  0  0
    4.7740   -0.8524    4.8100 S   0  0  0  0  0  0  0  0  0  0  0  0
    5.4895    0.3113    6.0171 C   0  0  0  0  0  0  0  0  0  0  0  0
    6.6635    1.0815    5.4482 C   0  0  0  0  0  0  0  0  0  0  0  0
    3.5641    2.0380    4.0637 Se  0  0  0  0  0  2  0  0  0  0  0  0
    1.5362    4.3202    2.9103 C   0  0  0  0  0  0  0  0  0  0  0  0
    1.0787    5.5714    2.4438 C   0  0  0  0  0  0  0  0  0  0  0  0
    0.8607    5.7772    1.0704 C   0  0  0  0  0  0  0  0  0  0  0  0
    0.3772    7.0268    0.5216 C   0  0  0  0  0  0  0  0  0  0  0  0
    0.7986    7.6413   -0.6230 C   0  0  0  0  0  0  0  0  0  0  0  0
    0.1232    8.8265   -0.9772 C   0  0  0  0  0  0  0  0  0  0  0  0
   -0.8852    9.1915   -0.1340 C   0  0  0  0  0  0  0  0  0  0  0  0
   -1.9363   10.5625   -0.4098 S   0  0  0  0  0  0  0  0  0  0  0  0
   -2.6931   10.7804    1.2382 C   0  0  0  0  0  0  0  0  0  0  0  0
   -1.7212   11.3633    2.2439 C   0  0  0  0  0  0  0  0  0  0  0  0
   -1.0734    7.9586    1.2746 Se  0  0  0  0  0  2  0  0  0  0  0  0
    1.1013    4.6843    0.2438 C   0  0  0  0  0  0  0  0  0  0  0  0
    0.8080    4.6683   -1.4734 S   0  0  0  0  0  0  0  0  0  0  0  0
    0.9059    6.5020    3.5114 C   0  0  0  0  0  0  0  0  0  0  0  0
    1.1798    5.9752    4.7209 C   0  0  0  0  0  0  0  0  0  0  0  0
    1.6758    4.3185    4.6504 S   0  0  0  0  0  0  0  0  0  0  0  0
    3.2582   -4.6840   10.9871 H   0  0  0  0  0  0  0  0  0  0  0  0
    3.2395   -6.5001    8.8993 H   0  0  0  0  0  0  0  0  0  0  0  0
    2.4653   -7.2515    5.4595 H   0  0  0  0  0  0  0  0  0  0  0  0
    3.0486   -7.9462    6.9866 H   0  0  0  0  0  0  0  0  0  0  0  0
    4.1847   -7.2712    5.8041 H   0  0  0  0  0  0  0  0  0  0  0  0
    3.7897   -3.3026    3.8433 H   0  0  0  0  0  0  0  0  0  0  0  0
    2.0098   -3.2434    3.9647 H   0  0  0  0  0  0  0  0  0  0  0  0
    2.7844   -4.3669    2.8179 H   0  0  0  0  0  0  0  0  0  0  0  0
    2.9778   -2.5243    5.9240 H   0  0  0  0  0  0  0  0  0  0  0  0
    3.3014    0.0274    9.0599 H   0  0  0  0  0  0  0  0  0  0  0  0
    2.1659    1.1014    7.3725 H   0  0  0  0  0  0  0  0  0  0  0  0
    0.7896   -2.5317    7.0011 H   0  0  0  0  0  0  0  0  0  0  0  0
   -1.0524   -3.7425    7.3280 H   0  0  0  0  0  0  0  0  0  0  0  0
   -0.7419   -6.1355    8.1740 H   0  0  0  0  0  0  0  0  0  0  0  0
   -0.8321  -10.2476    5.1575 H   0  0  0  0  0  0  0  0  0  0  0  0
   -1.2738   -8.6666    4.4668 H   0  0  0  0  0  0  0  0  0  0  0  0
    1.5504   -9.8663    4.4589 H   0  0  0  0  0  0  0  0  0  0  0  0
    1.0766   -8.3348    3.7063 H   0  0  0  0  0  0  0  0  0  0  0  0
    0.4557   -9.8598    3.0676 H   0  0  0  0  0  0  0  0  0  0  0  0
   -0.9090    0.1888    0.3655 H   0  0  0  0  0  0  0  0  0  0  0  0
   -1.5813    2.5658   -0.2478 H   0  0  0  0  0  0  0  0  0  0  0  0
   -2.4135    6.3387    3.3786 H   0  0  0  0  0  0  0  0  0  0  0  0
   -1.6393    4.8542    3.9831 H   0  0  0  0  0  0  0  0  0  0  0  0
   -4.6122    5.1510    3.2676 H   0  0  0  0  0  0  0  0  0  0  0  0
   -3.9612    5.0943    4.9135 H   0  0  0  0  0  0  0  0  0  0  0  0
   -3.8522    3.6720    3.8699 H   0  0  0  0  0  0  0  0  0  0  0  0
   -2.3527   -1.2622    0.7179 H   0  0  0  0  0  0  0  0  0  0  0  0
   -3.3113   -6.2011    1.4244 H   0  0  0  0  0  0  0  0  0  0  0  0
   -5.3882   -8.8997    0.7843 H   0  0  0  0  0  0  0  0  0  0  0  0
   -3.9530   -8.4467    1.7247 H   0  0  0  0  0  0  0  0  0  0  0  0
   -3.8020   -9.4284    0.2548 H   0  0  0  0  0  0  0  0  0  0  0  0
   -4.9476   -8.5551   -3.8940 H   0  0  0  0  0  0  0  0  0  0  0  0
   -6.5402   -7.9903   -3.3152 H   0  0  0  0  0  0  0  0  0  0  0  0
   -6.1140   -9.7167   -3.2146 H   0  0  0  0  0  0  0  0  0  0  0  0
   -4.9279   -6.2930   -3.2722 H   0  0  0  0  0  0  0  0  0  0  0  0
   -4.1573   -4.4580   -4.4815 H   0  0  0  0  0  0  0  0  0  0  0  0
   -3.4467   -1.6034   -3.6368 H   0  0  0  0  0  0  0  0  0  0  0  0
   -3.1693    0.4249   -4.4036 H   0  0  0  0  0  0  0  0  0  0  0  0
   -3.0251    3.5987   -5.7915 H   0  0  0  0  0  0  0  0  0  0  0  0
   -1.3651    3.2046   -5.3859 H   0  0  0  0  0  0  0  0  0  0  0  0
   -2.6708    2.7177   -4.2920 H   0  0  0  0  0  0  0  0  0  0  0  0
   -1.5860    3.8965   -9.6174 H   0  0  0  0  0  0  0  0  0  0  0  0
   -0.9450    2.2504   -9.7884 H   0  0  0  0  0  0  0  0  0  0  0  0
   -2.7043    2.5382   -9.9032 H   0  0  0  0  0  0  0  0  0  0  0  0
   -2.1182    0.3338   -9.2558 H   0  0  0  0  0  0  0  0  0  0  0  0
   -2.5937   -3.1176  -10.0392 H   0  0  0  0  0  0  0  0  0  0  0  0
   -0.2522   -2.4376  -10.4431 H   0  0  0  0  0  0  0  0  0  0  0  0
    0.5050    0.3716   -9.1812 H   0  0  0  0  0  0  0  0  0  0  0  0
    2.4366    1.6214   -9.0847 H   0  0  0  0  0  0  0  0  0  0  0  0
    2.2809    3.8180  -10.3929 H   0  0  0  0  0  0  0  0  0  0  0  0
    0.5397    6.9056   -7.1809 H   0  0  0  0  0  0  0  0  0  0  0  0
    0.1990    8.2191   -8.3340 H   0  0  0  0  0  0  0  0  0  0  0  0
   -1.9252    7.3806   -7.3332 H   0  0  0  0  0  0  0  0  0  0  0  0
   -1.5632    5.7454   -7.8911 H   0  0  0  0  0  0  0  0  0  0  0  0
   -1.8811    7.0326   -9.0677 H   0  0  0  0  0  0  0  0  0  0  0  0
    2.0497   -1.4491   -2.2550 H   0  0  0  0  0  0  0  0  0  0  0  0
    1.4207   -3.5459   -0.9454 H   0  0  0  0  0  0  0  0  0  0  0  0
   -0.1646   -7.7357   -2.8911 H   0  0  0  0  0  0  0  0  0  0  0  0
    0.5048   -6.4156   -3.8814 H   0  0  0  0  0  0  0  0  0  0  0  0
   -2.4738   -7.0368   -3.5192 H   0  0  0  0  0  0  0  0  0  0  0  0
   -1.8192   -5.7356   -4.5241 H   0  0  0  0  0  0  0  0  0  0  0  0
   -1.5253   -7.4228   -4.9690 H   0  0  0  0  0  0  0  0  0  0  0  0
    0.8417    0.3079   -2.0673 H   0  0  0  0  0  0  0  0  0  0  0  0
    2.1307    1.5281   -0.2586 H   0  0  0  0  0  0  0  0  0  0  0  0
    1.5265    0.4570    1.3749 H   0  0  0  0  0  0  0  0  0  0  0  0
    2.9268   -1.3101    2.5346 H   0  0  0  0  0  0  0  0  0  0  0  0
    5.7910   -0.3157    6.8561 H   0  0  0  0  0  0  0  0  0  0  0  0
    4.6806    0.9748    6.3361 H   0  0  0  0  0  0  0  0  0  0  0  0
    6.3488    1.6844    4.5950 H   0  0  0  0  0  0  0  0  0  0  0  0
    7.4449    0.3990    5.1216 H   0  0  0  0  0  0  0  0  0  0  0  0
    7.0705    1.7458    6.2074 H   0  0  0  0  0  0  0  0  0  0  0  0
    1.6316    7.2725   -1.1979 H   0  0  0  0  0  0  0  0  0  0  0  0
    0.3821    9.4074   -1.8454 H   0  0  0  0  0  0  0  0  0  0  0  0
   -3.0654    9.8003    1.5540 H   0  0  0  0  0  0  0  0  0  0  0  0
   -3.5382   11.4470    1.0697 H   0  0  0  0  0  0  0  0  0  0  0  0
   -0.8705   10.6958    2.3845 H   0  0  0  0  0  0  0  0  0  0  0  0
   -1.3521   12.3268    1.9002 H   0  0  0  0  0  0  0  0  0  0  0  0
   -2.2166   11.4975    3.2035 H   0  0  0  0  0  0  0  0  0  0  0  0
    0.6039    7.5262    3.3682 H   0  0  0  0  0  0  0  0  0  0  0  0
    1.1288    6.4538    5.6791 H   0  0  0  0  0  0  0  0  0  0  0  0
  1  2  1  0  0  0  0
  2  3  1  0  0  0  0
  3  4  2  0  0  0  0
  4  5  1  0  0  0  0
  5  6  1  0  0  0  0
  6  7  2  0  0  0  0
  7  8  1  0  0  0  0
  7  9  1  0  0  0  0
  9 10  1  0  0  0  0
 10 11  1  0  0  0  0
  9 12  2  0  0  0  0
  3 13  1  0  0  0  0
 13 14  2  0  0  0  0
 14 15  1  0  0  0  0
 15 16  2  0  0  0  0
 16 17  1  0  0  0  0
 17 18  2  0  0  0  0
 18 19  1  0  0  0  0
 19 20  2  0  0  0  0
 20 21  1  0  0  0  0
 21 22  2  0  0  0  0
 22 23  1  0  0  0  0
 23 24  1  0  0  0  0
 24 25  1  0  0  0  0
 22 26  1  0  0  0  0
 18 27  1  0  0  0  0
 27 28  2  0  0  0  0
 28 29  1  0  0  0  0
 29 30  1  0  0  0  0
 30 31  2  0  0  0  0
 31 32  1  0  0  0  0
 32 33  2  0  0  0  0
 33 34  1  0  0  0  0
 34 35  1  0  0  0  0
 35 36  1  0  0  0  0
 33 37  1  0  0  0  0
 29 38  2  0  0  0  0
 38 39  1  0  0  0  0
 28 40  1  0  0  0  0
 40 41  2  0  0  0  0
 41 42  1  0  0  0  0
 41 43  1  0  0  0  0
 43 44  1  0  0  0  0
 44 45  1  0  0  0  0
 45 46  2  0  0  0  0
 46 47  1  0  0  0  0
 47 48  1  0  0  0  0
 48 49  2  0  0  0  0
 49 50  1  0  0  0  0
 49 51  1  0  0  0  0
 51 52  1  0  0  0  0
 52 53  1  0  0  0  0
 51 54  2  0  0  0  0
 45 55  1  0  0  0  0
 55 56  2  0  0  0  0
 56 57  1  0  0  0  0
 57 58  1  0  0  0  0
 58 59  1  0  0  0  0
 59 60  2  0  0  0  0
 60 61  1  0  0  0  0
 61 62  1  0  0  0  0
 62 63  2  0  0  0  0
 63 64  1  0  0  0  0
 63 65  1  0  0  0  0
 65 66  1  0  0  0  0
 66 67  1  0  0  0  0
 65 68  2  0  0  0  0
 59 69  1  0  0  0  0
 69 70  2  0  0  0  0
 70 71  1  0  0  0  0
 71 72  2  0  0  0  0
 72 73  1  0  0  0  0
 73 74  2  0  0  0  0
 74 75  1  0  0  0  0
 75 76  2  0  0  0  0
 76 77  1  0  0  0  0
 77 78  2  0  0  0  0
 78 79  1  0  0  0  0
 79 80  1  0  0  0  0
 80 81  1  0  0  0  0
 78 82  1  0  0  0  0
 74 83  1  0  0  0  0
 83 84  2  0  0  0  0
 84 85  1  0  0  0  0
 85 86  1  0  0  0  0
 86 87  2  0  0  0  0
 87 88  1  0  0  0  0
 88 89  2  0  0  0  0
 89 90  1  0  0  0  0
 90 91  1  0  0  0  0
 91 92  1  0  0  0  0
 89 93  1  0  0  0  0
 85 94  2  0  0  0  0
 94 95  1  0  0  0  0
 84 96  1  0  0  0  0
 96 97  2  0  0  0  0
 97 98  1  0  0  0  0
 97 99  1  0  0  0  0
 99100  2  0  0  0  0
100101  1  0  0  0  0
101102  2  0  0  0  0
102103  1  0  0  0  0
103104  2  0  0  0  0
104105  1  0  0  0  0
105106  2  0  0  0  0
106107  1  0  0  0  0
107108  1  0  0  0  0
108109  1  0  0  0  0
106110  1  0  0  0  0
102111  1  0  0  0  0
111112  2  0  0  0  0
112113  1  0  0  0  0
113114  1  0  0  0  0
114115  2  0  0  0  0
115116  1  0  0  0  0
116117  2  0  0  0  0
117118  1  0  0  0  0
118119  1  0  0  0  0
119120  1  0  0  0  0
117121  1  0  0  0  0
113122  2  0  0  0  0
122123  1  0  0  0  0
112124  1  0  0  0  0
124125  2  0  0  0  0
125126  1  0  0  0  0
  5  1  2  0  0  0  0
 39 15  1  0  0  0  0
 47 43  2  0  0  0  0
 61 57  2  0  0  0  0
 95 71  1  0  0  0  0
123 99  1  0  0  0  0
 12  4  1  0  0  0  0
 38 17  1  0  0  0  0
 54 46  1  0  0  0  0
 68 60  1  0  0  0  0
 94 73  1  0  0  0  0
122101  1  0  0  0  0
 26 19  1  0  0  0  0
 42 27  1  0  0  0  0
 82 75  1  0  0  0  0
 98 83  1  0  0  0  0
110103  1  0  0  0  0
126111  1  0  0  0  0
 37 30  1  0  0  0  0
 93 86  1  0  0  0  0
121114  1  0  0  0  0
  1127  1  0  0  0  0
  6128  1  0  0  0  0
  8129  1  0  0  0  0
  8130  1  0  0  0  0
  8131  1  0  0  0  0
 11132  1  0  0  0  0
 11133  1  0  0  0  0
 11134  1  0  0  0  0
 12135  1  0  0  0  0
 13136  1  0  0  0  0
 14137  1  0  0  0  0
 16138  1  0  0  0  0
 20139  1  0  0  0  0
 21140  1  0  0  0  0
 24141  1  0  0  0  0
 24142  1  0  0  0  0
 25143  1  0  0  0  0
 25144  1  0  0  0  0
 25145  1  0  0  0  0
 31146  1  0  0  0  0
 32147  1  0  0  0  0
 35148  1  0  0  0  0
 35149  1  0  0  0  0
 36150  1  0  0  0  0
 36151  1  0  0  0  0
 36152  1  0  0  0  0
 40153  1  0  0  0  0
 48154  1  0  0  0  0
 50155  1  0  0  0  0
 50156  1  0  0  0  0
 50157  1  0  0  0  0
 53158  1  0  0  0  0
 53159  1  0  0  0  0
 53160  1  0  0  0  0
 54161  1  0  0  0  0
 55162  1  0  0  0  0
 56163  1  0  0  0  0
 62164  1  0  0  0  0
 64165  1  0  0  0  0
 64166  1  0  0  0  0
 64167  1  0  0  0  0
 67168  1  0  0  0  0
 67169  1  0  0  0  0
 67170  1  0  0  0  0
 68171  1  0  0  0  0
 69172  1  0  0  0  0
 70173  1  0  0  0  0
 72174  1  0  0  0  0
 76175  1  0  0  0  0
 77176  1  0  0  0  0
 80177  1  0  0  0  0
 80178  1  0  0  0  0
 81179  1  0  0  0  0
 81180  1  0  0  0  0
 81181  1  0  0  0  0
 87182  1  0  0  0  0
 88183  1  0  0  0  0
 91184  1  0  0  0  0
 91185  1  0  0  0  0
 92186  1  0  0  0  0
 92187  1  0  0  0  0
 92188  1  0  0  0  0
 96189  1  0  0  0  0
100190  1  0  0  0  0
104191  1  0  0  0  0
105192  1  0  0  0  0
108193  1  0  0  0  0
108194  1  0  0  0  0
109195  1  0  0  0  0
109196  1  0  0  0  0
109197  1  0  0  0  0
115198  1  0  0  0  0
116199  1  0  0  0  0
119200  1  0  0  0  0
119201  1  0  0  0  0
120202  1  0  0  0  0
120203  1  0  0  0  0
120204  1  0  0  0  0
124205  1  0  0  0  0
125206  1  0  0  0  0
M  END
