188

C          8.48390       -4.66250       10.07840
C          8.60880       -5.33360       11.27430
C          8.00300       -4.87490       12.47610
N          8.20290       -5.69360       13.54970
C          8.90820       -6.70870       13.24590
S          9.43690       -6.83160       11.58210
C          7.23580       -3.70410       12.50470
C          7.16750       -3.00450       11.30400
C          7.74680       -3.48510       10.09900
N          7.49560       -2.70630        9.00420
C          6.80980       -1.67500        9.30740
S          6.34870       -1.50160       10.97990
C          6.54760       -3.32450       13.74040
C          5.23670       -3.07200       13.85650
C          4.30590       -3.15300       12.76000
C          4.41000       -3.92970       11.64950
C          3.49870       -3.59160       10.62120
C          3.57590       -4.00120        9.27630
C          4.59700       -4.92520        8.83110
C          5.01620       -6.08110        9.43020
C          6.10960       -6.72650        8.82300
C          6.61630       -6.08690        7.72560
S          8.04020       -6.63320        6.86530
C          8.08400       -5.48120        5.44990
C          7.06520       -5.83880        4.38600
Se         5.65700       -4.52270        7.33250
C          2.71230       -3.36060        8.39930
C          1.75220       -2.40330        8.80540
C          1.68160       -1.98240       10.15220
C          0.77280       -0.95660       10.61250
C          0.20780       -0.86630       11.85640
C         -0.61590        0.25070       12.09160
C         -0.72640        1.12260       11.04730
S         -1.62850        2.61850       11.10610
C         -1.96210        2.90620        9.33100
C         -2.97570        1.92930        8.77250
Se         0.29860        0.55150        9.57700
C          2.59790       -2.57700       11.02130
S          2.92700       -2.07450       12.66170
C          0.99390       -1.94160        7.70350
C          1.38160       -2.46220        6.50280
S          2.67960       -3.62050        6.67700
C          0.87670       -2.09840        5.22050
C          0.03040       -1.06420        4.94450
C         -0.23680       -0.90140        3.56530
C         -1.05910        0.06710        2.95490
C         -1.64790        1.13750        3.72910
C         -1.03910        1.85670        4.72000
C         -1.83300        2.83150        5.35330
C         -3.11560        2.91960        4.89150
S         -4.26820        4.09510        5.48660
C         -5.84900        3.37420        4.92410
C         -6.23560        2.14890        5.72680
Se        -3.42260        1.71300        3.47210
C         -1.21650       -0.04210        1.57880
C         -0.55520       -1.01290        0.78800
C          0.27190       -1.98070        1.39900
C          0.92360       -3.01980        0.63490
C          0.42700       -3.70620       -0.43970
C          1.27730       -4.67660       -1.00300
C          2.49800       -4.79480       -0.40130
S          3.75880       -5.86520       -0.96700
C          4.83850       -5.96200        0.50410
C          4.21560       -6.77350        1.62140
Se         2.67400       -3.59160        1.04000
C          0.41390       -1.88100        2.78000
S          1.37060       -2.94770        3.77280
C         -0.79560       -0.81100       -0.59320
C         -1.63210        0.23340       -0.86010
S         -2.16560        1.03940        0.59850
C         -2.05770        0.70540       -2.13790
C         -1.54600        0.37590       -3.35880
C         -2.17230        1.04430       -4.43910
C         -1.88630        0.91790       -5.81570
C         -0.97090       -0.07930       -6.31630
C         -0.77480       -1.34670       -5.83410
C          0.17670       -2.13030       -6.51240
C          0.78790       -1.51120       -7.56620
S          2.05770       -2.24630       -8.51640
C          2.05930       -1.18240      -10.00210
C          0.84320       -1.41420      -10.87530
Se         0.14760        0.24870       -7.79830
C         -2.55570        1.80160       -6.65920
C         -3.54900        2.70380       -6.21490
C         -3.91760        2.75120       -4.85360
C         -5.02160        3.55440       -4.37960
C         -5.14720        4.19420       -3.17710
C         -6.38620        4.81430       -2.92850
C         -7.31360        4.67870       -3.92200
S         -8.88870        5.43750       -3.88740
C         -9.75390        4.55790       -5.23470
C        -10.12970        3.14160       -4.84950
Se        -6.61950        3.70740       -5.37660
C         -3.17500        1.94140       -3.99590
S         -3.35590        1.86990       -2.26380
C         -4.04620        3.49810       -7.27950
C         -3.47970        3.21600       -8.48500
S         -2.29090        1.94040       -8.37290
C         -3.76870        3.78930       -9.77330
C         -5.01180        4.30420      -10.13330
C         -5.31200        4.71460      -11.45660
N         -6.60040        5.12200      -11.63980
C         -7.28080        5.04730      -10.56850
S         -6.44140        4.44960       -9.15420
C         -4.37070        4.61630      -12.49030
C         -3.09230        4.23350      -12.09970
C         -2.79510        3.80070      -10.78520
N         -1.50670        3.39770      -10.60470
C         -0.81350        3.51860      -11.66500
S         -1.64780        4.13810      -13.06920
C         -4.79550        4.84140      -13.86240
C         -4.50700        4.04300      -14.89560
C         -3.73040        2.81440      -14.84200
C         -2.81530        2.51100      -15.84250
C         -1.95610        1.38780      -15.79290
N         -1.11010        1.29120      -16.85980
C         -1.26930        2.24790      -17.68380
S         -2.48570        3.43510      -17.27840
C         -1.97750        0.48320      -14.71700
C         -2.92480        0.76260      -13.73200
C         -3.80370        1.87770      -13.79910
N         -4.68260        1.96470      -12.75930
C         -4.50880        1.03740      -11.90590
S         -3.24010       -0.10460      -12.25360
C         -1.03590       -0.61980      -14.74500
C         -0.94090       -1.62550      -13.88180
H          8.92250       -5.02350        9.16410
H          9.18300       -7.47060       13.94890
H          6.50680       -0.93420        8.59250
H          7.17080       -3.31410       14.62340
H          4.83760       -2.75300       14.80920
H          5.15700       -4.69260       11.54040
H          4.50960       -6.49980       10.28430
H          6.52360       -7.64900        9.19260
H          9.10050       -5.55260        5.06410
H          7.91840       -4.47610        5.85160
H          7.14140       -5.14190        3.55390
H          6.05340       -5.78280        4.79020
H          7.24050       -6.84820        4.01960
H          0.33140       -1.63690       12.59840
H         -1.13450        0.40560       13.02170
H         -2.32890        3.93060        9.27870
H         -1.00260        2.83990        8.80810
H         -3.90740        1.99140        9.32980
H         -2.59990        0.90760        8.83640
H         -3.17270        2.16120        7.72830
H          0.16370       -1.26210        7.78460
H         -0.39880       -0.44050        5.70620
H         -0.00370        1.71100        4.97920
H         -1.46230        3.46520        6.14060
H         -6.57740        4.17530        5.04470
H         -5.73740        3.14520        3.85970
H         -6.31250        2.39540        6.78330
H         -7.19590        1.77090        5.38290
H         -5.49190        1.36100        5.60600
H         -0.58110       -3.56500       -0.79200
H          0.98810       -5.29290       -1.83670
H          5.04880       -4.93420        0.81730
H          5.75750       -6.42180        0.14200
H          3.98680       -7.77930        1.27710
H          3.29370       -6.30600        1.96790
H          4.90430       -6.83510        2.46080
H         -0.34220       -1.40320       -1.36570
H         -0.70510       -0.28120       -3.47930
H         -1.36540       -1.74910       -5.02810
H          0.40110       -3.14600       -6.23540
H          2.11980       -0.14570       -9.65590
H          2.97970       -1.44040      -10.52510
H          0.90200       -0.79560      -11.76860
H          0.78590       -2.45820      -11.17380
H         -0.07040       -1.15480      -10.33980
H         -4.33770        4.25510       -2.47000
H         -6.59550        5.35400       -2.02130
H        -10.63790        5.16230       -5.43550
H         -9.09600        4.58010       -6.10970
H         -9.23860        2.55430       -4.62830
H        -10.76950        3.14450       -3.97020
H        -10.66080        2.66430       -5.67030
H         -4.74080        4.30910       -7.14400
H         -8.31230        5.33110      -10.49430
H          0.22580        3.26330      -11.72920
H         -5.44690        5.69110      -14.00990
H         -4.83530        4.32760      -15.88750
H         -0.70220        2.35290      -18.58800
H         -5.09280        0.93400      -11.01220
H         -0.36880       -0.57540      -15.59540
H         -1.58410       -1.73400      -13.02620
H         -0.20080       -2.39530      -14.01720
