290

C         -3.05650       -8.68790        8.68480
C         -3.08160       -7.49170        8.06440
C         -2.95810       -7.59650        6.64640
C         -2.95430       -6.56210        5.69870
C         -3.10860       -5.15140        6.07840
C         -4.17470       -4.72300        6.86290
C         -4.31250       -3.39480        7.21810
C         -3.37820       -2.44690        6.81540
S         -3.42170       -0.73500        7.22700
C         -4.55960       -0.66030        8.65510
C         -3.99640       -1.35400        9.88120
C         -2.32890       -2.88640        6.00710
F         -1.41300       -1.99520        5.57630
C         -2.18590       -4.20470        5.63730
C         -2.78750       -6.93630        4.37410
C         -2.63170       -8.28260        3.96430
C         -2.65570       -9.32110        4.90890
C         -2.51560      -10.71570        4.47320
C         -1.59020      -11.57100        5.06200
C         -1.40480      -12.85920        4.59560
C         -2.14330      -13.33910        3.51990
S         -1.98240      -14.93150        2.78980
C         -0.75070      -15.76870        3.85450
C         -0.57160      -17.19260        3.36240
C         -3.08910      -12.47950        2.95680
C         -3.28560      -11.19800        3.41360
F         -3.83010      -12.92010        1.91730
C         -2.80730       -8.94400        6.23570
S         -2.87100      -10.02660        7.60330
C         -2.44190       -8.38550        2.56340
C         -2.50820       -7.19090        1.91470
S         -2.77960       -5.84950        3.00780
C         -2.38360       -6.97530        0.51290
C         -2.58430       -5.82620       -0.18630
C         -2.39000       -5.97150       -1.58250
C         -2.50040       -4.98390       -2.57710
C         -2.87640       -3.61310       -2.28790
C         -2.31170       -2.48070       -2.80660
C         -2.86780       -1.25130       -2.38870
C         -3.92200       -1.36830       -1.53070
S         -4.91590       -0.14840       -0.77070
C         -4.40220        1.39610       -1.59670
C         -3.18640        2.03240       -0.95580
Se        -4.31980       -3.16000       -1.14900
C         -2.19860       -5.39400       -3.87290
C         -1.75900       -6.69390       -4.22390
C         -1.65960       -7.68500       -3.22400
C         -1.23050       -9.03960       -3.49500
C         -0.25630       -9.47550       -4.35100
C         -0.02790      -10.86520       -4.37690
C         -0.82040      -11.59920       -3.53950
S         -0.72390      -13.33700       -3.36770
C         -1.43660      -13.59920       -1.69910
C         -2.94520      -13.73130       -1.71370
Se        -2.03320      -10.49960       -2.61180
C         -2.00280       -7.28560       -1.93300
S         -1.92660       -8.30980       -0.52450
C         -1.48600       -6.79970       -5.61890
C         -1.73220       -5.65740       -6.30700
S         -2.33120       -4.37150       -5.26840
C         -1.42770       -5.18800       -7.63530
C         -2.21000       -4.33210       -8.34330
C         -1.48940       -3.52490       -9.26160
C         -1.96330       -2.33980       -9.84700
C         -3.40610       -2.05440       -9.83870
C         -3.92360       -0.92230       -9.21370
C         -5.28430       -0.70750       -9.15870
C         -6.17830       -1.60330       -9.73710
S         -7.90690       -1.21810       -9.67310
C         -8.63040       -2.78230       -9.05330
C         -8.07330       -3.14570       -7.69150
C         -5.64930       -2.72160      -10.37400
F         -6.46120       -3.61730      -10.97610
C         -4.29070       -2.96330      -10.41080
C         -0.99760       -1.41520      -10.19880
C          0.39870       -1.64600      -10.07390
C          0.85830       -2.91360       -9.68110
C          2.28580       -3.24830       -9.54900
C          3.13190       -2.55810       -8.68480
C          4.45400       -2.92790       -8.55710
C          4.98630       -3.98760       -9.28860
S          6.70830       -4.33150       -9.07560
C          6.80470       -6.15980       -9.08800
C          5.93390       -6.78200       -8.01530
C          4.13160       -4.65820      -10.15800
C          2.79940       -4.31570      -10.27560
F          4.57970       -5.67570      -10.92450
C         -0.10560       -3.80950       -9.23980
S          0.23540       -5.19410       -8.22010
C          1.13430       -0.42520      -10.04300
C          0.33090        0.67880      -10.05080
S         -1.32530        0.27370      -10.50370
C          0.48490        1.82110       -9.18680
C         -0.48070        2.04500       -8.24800
C         -0.02380        2.73140       -7.10460
C         -0.69930        2.81570       -5.87780
C         -1.94260        2.05550       -5.67920
C         -3.12110        2.62630       -5.20840
C         -4.26230        1.86170       -5.07500
C         -4.28050        0.50140       -5.39440
S         -5.81740       -0.34370       -5.21870
C         -5.36390       -2.09840       -4.92810
C         -6.45550       -2.75940       -4.11150
C         -3.09300       -0.05540       -5.86150
F         -3.02240       -1.35330       -6.23550
C         -1.94420        0.69700       -5.98990
C         -0.04220        3.49280       -4.86890
C          1.23830        4.07990       -5.04160
C          1.93670        3.92790       -6.25630
C          3.27910        4.49380       -6.43380
C          4.33780        3.72520       -6.91360
C          5.58370        4.28440       -7.09710
C          5.82990        5.62590       -6.80850
S          7.48260        6.20730       -7.04330
C          7.28410        7.91230       -7.68080
C          6.46990        7.95050       -8.95810
C          4.76930        6.37510       -6.30780
C          3.51270        5.83220       -6.13290
F          4.93160        7.67410       -5.97100
C          1.30240        3.19750       -7.25250
S          1.97850        2.64190       -8.77740
C          1.71570        4.63690       -3.82550
C          0.86970        4.46580       -2.77050
S         -0.60320        3.63000       -3.22600
C          1.06510        4.84130       -1.40950
C          0.34450        4.43490       -0.32570
C          0.80480        4.97270        0.90070
C          0.31170        4.70450        2.19410
C         -0.73290        3.74190        2.46870
C         -1.73320        3.86710        3.39460
C         -2.55530        2.74220        3.57990
C         -2.22780        1.65250        2.82220
S         -3.10420        0.14610        2.85760
C         -1.94980       -0.92760        1.93160
C         -2.43430       -2.36010        1.96790
Se        -0.76330        2.01840        1.69720
C          0.92200        5.40120        3.23350
C          1.98670        6.31200        3.03860
C          2.52410        6.53360        1.75250
C          3.68890        7.36590        1.54250
C          3.96070        8.18530        0.48230
C          5.21450        8.82820        0.49400
C          6.01570        8.52140        1.55650
S          7.59740        9.22190        1.82460
C          8.36690        8.02220        2.97610
C          8.06740        8.32180        4.43170
Se         5.15080        7.34230        2.73810
C          1.89410        5.85910        0.71090
S          2.35460        5.94060       -0.96960
C          2.40910        6.88820        4.25810
C          1.76240        6.39720        5.35530
S          0.54100        5.22600        4.92670
C          2.03650        6.74890        6.71030
C          3.01850        7.59390        7.13720
C          3.08590        7.72250        8.54570
C          4.01060        8.46840        9.29450
C          4.98880        9.31440        8.59990
C          6.35780        9.21090        8.83760
C          7.25470        9.94040        8.08730
C          6.83120       10.81890        7.08820
S          8.08890       11.67510        6.19520
C          7.32500       12.09020        4.57420
C          8.42820       12.38700        3.57830
C          5.45820       10.96250        6.91090
F          4.95360       11.84290        6.01600
C          4.55130       10.21600        7.63430
C          3.93480        8.34290       10.67300
C          2.97190        7.53120       11.32450
C          2.04120        6.79930       10.57460
C          1.05620        5.88870       11.17180
C          1.44490        4.87960       12.05030
C          0.53430        3.93580       12.47890
C         -0.79270        3.97510       12.06240
S         -1.89080        2.68960       12.59210
C         -2.67250        2.19310       11.00890
C         -1.64510        1.76350        9.98050
C         -1.18420        5.03330       11.24870
C         -0.27940        5.96710       10.78950
F         -2.47280        5.16840       10.87160
C          2.11830        6.92030        9.19450
S          1.12980        6.06230        8.03960
C          3.08450        7.62230       12.74390
C          4.07720        8.44390       13.14010
S          4.94650        9.16860       11.82970
H         -3.13010       -8.88780        9.73600
H         -3.17260       -6.55290        8.57980
H         -4.92110       -5.43530        7.18120
H         -5.16540       -3.10160        7.80840
H         -4.67410        0.40930        8.83250
H         -5.52570       -1.06410        8.35480
H         -4.67770       -1.23050       10.72110
H         -3.03250       -0.92690       10.14590
H         -3.85880       -2.41800        9.70100
H         -1.34080       -4.49090        5.03090
H         -0.98210      -11.21780        5.88050
H         -0.66660      -13.48300        5.07180
H         -1.12850      -15.75410        4.87690
H          0.18530      -15.21360        3.78910
H         -0.21750      -17.19890        2.33420
H         -1.51520      -17.73150        3.40470
H          0.15480      -17.70990        3.98550
H         -4.04570      -10.58700        2.95270
H         -2.25120       -9.30950        2.04810
H         -2.85820       -4.90350        0.29610
H         -1.46130       -2.51280       -3.46700
H         -2.47550       -0.30820       -2.73030
H         -5.27190        2.04650       -1.50310
H         -4.24040        1.16880       -2.64870
H         -2.32230        1.37100       -1.00570
H         -3.38630        2.26200        0.08980
H         -2.94070        2.95520       -1.47790
H          0.36120       -8.79480       -4.91280
H          0.73550      -11.31850       -4.98540
H         -0.96730      -14.51400       -1.33850
H         -1.11240      -12.75850       -1.08160
H         -3.40810      -12.82650       -2.11250
H         -3.30670      -13.88210       -0.69870
H         -3.24940      -14.57520       -2.32800
H         -1.14270       -7.69960       -6.09430
H         -3.25220       -4.18180       -8.12570
H         -3.25930       -0.22190       -8.73480
H         -5.68120        0.16050       -8.65520
H         -9.69710       -2.56690       -8.99790
H         -8.46430       -3.56740       -9.78810
H         -7.01050       -3.37360       -7.75840
H         -8.58910       -4.02050       -7.30040
H         -8.20610       -2.31720       -6.99890
H         -3.92940       -3.85050      -10.90840
H          2.74190       -1.75360       -8.08000
H          5.10530       -2.40020       -7.87770
H          7.86070       -6.35270       -8.89850
H          6.55120       -6.52240      -10.08160
H          6.08320       -7.85970       -8.00330
H          4.88050       -6.58370       -8.20490
H          6.18950       -6.38210       -7.03600
H          2.17570       -4.87440      -10.95640
H          2.18850       -0.37560       -9.83930
H         -1.47470        1.64660       -8.32430
H         -3.14660        3.67620       -4.96120
H         -5.18020        2.31260       -4.72970
H         -5.23600       -2.58270       -5.89540
H         -4.41980       -2.10850       -4.38850
H         -6.59100       -2.23840       -3.16530
H         -7.40200       -2.75300       -4.64650
H         -6.17760       -3.79130       -3.90470
H         -1.04840        0.20690       -6.34110
H          4.18580        2.68000       -7.13300
H          6.40000        3.68620       -7.47060
H          8.31160        8.22920       -7.86010
H          6.85240        8.53570       -6.90120
H          6.90810        7.29800       -9.71040
H          6.44660        8.96670       -9.34630
H          5.44590        7.62920       -8.77670
H          2.71970        6.46770       -5.76940
H          2.67670        5.10730       -3.71820
H         -0.50130        3.77240       -0.41160
H         -1.90420        4.78510        3.93100
H         -3.37290        2.72340        4.27900
H         -1.90350       -0.54800        0.90610
H         -0.97030       -0.82910        2.40570
H         -1.76600       -2.98870        1.38270
H         -3.44070       -2.43030        1.55660
H         -2.45730       -2.73050        2.98940
H          3.24770        8.35890       -0.30570
H          5.52850        9.50420       -0.28230
H          9.43580        8.09100        2.77550
H          8.01010        7.03160        2.68620
H          6.99120        8.31930        4.61560
H          8.46850        9.29070        4.71680
H          8.52070        7.56070        5.06350
H          3.14120        7.67270        4.32990
H          3.70190        8.08630        6.47110
H          6.72030        8.52750        9.58960
H          8.31540        9.83630        8.25430
H          6.73480       11.23160        4.25790
H          6.67840       12.95500        4.71140
H          9.02930       13.22990        3.91130
H          9.07870       11.52450        3.45330
H          7.98900       12.62640        2.61290
H          3.49800       10.36570        7.45250
H          2.47750        4.80720       12.35630
H          0.84350        3.13310       13.13020
H         -3.31860        1.36470       11.29900
H         -3.28910        3.01410       10.64950
H         -1.00430        2.59790        9.70050
H         -2.14250        1.40340        9.08180
H         -1.01690        0.96770       10.37620
H         -0.63030        6.75920       10.14670
H          2.43190        7.10140       13.42090
H          4.37130        8.68640       14.14270
