
  xtb     03052209273D
 energy: -258.627188292077 gnorm: 0.000661875410 xtb: 6.4.1 (unknown)
136150  0     0  0            999 V2000
    2.2861  -13.5537    5.0529 C   0  0  0  0  0  0  0  0  0  0  0  0
    3.1886  -12.5803    5.0213 N   0  0  0  0  0  0  0  0  0  0  0  0
    2.9073  -11.3973    4.6076 N   0  0  0  0  0  0  0  0  0  0  0  0
    1.6935  -11.0778    4.1528 C   0  0  0  0  0  0  0  0  0  0  0  0
    0.7045  -12.0589    4.0842 C   0  0  0  0  0  0  0  0  0  0  0  0
   -0.6933  -12.0756    3.5698 C   0  0  0  0  0  0  0  0  0  0  0  0
   -1.3253  -11.1960    3.0389 O   0  0  0  0  0  0  0  0  0  0  0  0
   -1.1536  -13.3512    3.8247 N   0  0  0  0  0  0  0  0  0  0  0  0
   -2.4815  -13.8043    3.4644 C   0  0  0  0  0  0  0  0  0  0  0  0
   -2.4807  -14.4831    2.0999 C   0  0  0  0  0  0  0  0  0  0  0  0
   -0.2076  -14.1794    4.4132 C   0  0  0  0  0  0  0  0  0  0  0  0
   -0.3811  -15.3270    4.7204 O   0  0  0  0  0  0  0  0  0  0  0  0
    1.0068  -13.3280    4.5679 C   0  0  0  0  0  0  0  0  0  0  0  0
    1.4093   -9.7012    3.7453 C   0  0  0  0  0  0  0  0  0  0  0  0
    2.2347   -9.0764    2.9010 N   0  0  0  0  0  0  0  0  0  0  0  0
    2.0262   -7.8795    2.5046 N   0  0  0  0  0  0  0  0  0  0  0  0
    0.9312   -7.1930    2.8437 C   0  0  0  0  0  0  0  0  0  0  0  0
   -0.0201   -7.7884    3.6735 C   0  0  0  0  0  0  0  0  0  0  0  0
   -1.3600   -7.3723    4.1761 C   0  0  0  0  0  0  0  0  0  0  0  0
   -1.9993   -6.3824    3.9242 O   0  0  0  0  0  0  0  0  0  0  0  0
   -1.7586   -8.3913    5.0195 N   0  0  0  0  0  0  0  0  0  0  0  0
   -3.0395   -8.4113    5.6932 C   0  0  0  0  0  0  0  0  0  0  0  0
   -4.1189   -8.9791    4.7792 C   0  0  0  0  0  0  0  0  0  0  0  0
   -0.8525   -9.4310    5.1006 C   0  0  0  0  0  0  0  0  0  0  0  0
   -0.9612  -10.4030    5.8043 O   0  0  0  0  0  0  0  0  0  0  0  0
    0.2524   -9.0527    4.1765 C   0  0  0  0  0  0  0  0  0  0  0  0
    0.7672   -5.8201    2.3705 C   0  0  0  0  0  0  0  0  0  0  0  0
    0.9550   -5.5382    1.0778 N   0  0  0  0  0  0  0  0  0  0  0  0
    0.8405   -4.3525    0.6151 N   0  0  0  0  0  0  0  0  0  0  0  0
    0.4564   -3.3215    1.3730 C   0  0  0  0  0  0  0  0  0  0  0  0
    0.1673   -3.5350    2.7212 C   0  0  0  0  0  0  0  0  0  0  0  0
   -0.3375   -2.6611    3.8175 C   0  0  0  0  0  0  0  0  0  0  0  0
   -0.6972   -1.5119    3.7776 O   0  0  0  0  0  0  0  0  0  0  0  0
   -0.3204   -3.4581    4.9458 N   0  0  0  0  0  0  0  0  0  0  0  0
   -0.7841   -3.0134    6.2431 C   0  0  0  0  0  0  0  0  0  0  0  0
   -2.2717   -3.3017    6.4086 C   0  0  0  0  0  0  0  0  0  0  0  0
    0.1107   -4.7486    4.7070 C   0  0  0  0  0  0  0  0  0  0  0  0
    0.2552   -5.6042    5.5432 O   0  0  0  0  0  0  0  0  0  0  0  0
    0.3750   -4.8037    3.2422 C   0  0  0  0  0  0  0  0  0  0  0  0
    0.4023   -1.9820    0.7910 C   0  0  0  0  0  0  0  0  0  0  0  0
   -0.2990   -1.7656   -0.3290 N   0  0  0  0  0  0  0  0  0  0  0  0
   -0.3516   -0.6149   -0.8686 N   0  0  0  0  0  0  0  0  0  0  0  0
    0.2577    0.4788   -0.3680 C   0  0  0  0  0  0  0  0  0  0  0  0
    0.9430    0.3617    0.8535 C   0  0  0  0  0  0  0  0  0  0  0  0
    1.6023    1.3106    1.7913 C   0  0  0  0  0  0  0  0  0  0  0  0
    1.7196    2.5080    1.7331 O   0  0  0  0  0  0  0  0  0  0  0  0
    2.0950    0.5272    2.8240 N   0  0  0  0  0  0  0  0  0  0  0  0
    2.7463    1.0768    3.9948 C   0  0  0  0  0  0  0  0  0  0  0  0
    1.7167    1.4612    5.0510 C   0  0  0  0  0  0  0  0  0  0  0  0
    1.8161   -0.8134    2.6773 C   0  0  0  0  0  0  0  0  0  0  0  0
    2.1786   -1.6914    3.4211 O   0  0  0  0  0  0  0  0  0  0  0  0
    1.0285   -0.9072    1.4178 C   0  0  0  0  0  0  0  0  0  0  0  0
    0.1138    1.6588   -1.1646 C   0  0  0  0  0  0  0  0  0  0  0  0
    0.8030    2.8373   -1.1155 C   0  0  0  0  0  0  0  0  0  0  0  0
    0.4069    3.7606   -2.1077 C   0  0  0  0  0  0  0  0  0  0  0  0
    0.8999    5.0722   -2.3140 C   0  0  0  0  0  0  0  0  0  0  0  0
    1.8330    5.6999   -1.4153 C   0  0  0  0  0  0  0  0  0  0  0  0
    1.9636    5.5102   -0.0603 C   0  0  0  0  0  0  0  0  0  0  0  0
    2.9834    6.2353    0.5731 C   0  0  0  0  0  0  0  0  0  0  0  0
    3.7204    7.0440   -0.2518 C   0  0  0  0  0  0  0  0  0  0  0  0
    5.0013    8.0825    0.3215 S   0  0  0  0  0  0  0  0  0  0  0  0
    5.6495    8.7794   -1.2381 C   0  0  0  0  0  0  0  0  0  0  0  0
    6.5374    7.7995   -1.9784 C   0  0  0  0  0  0  0  0  0  0  0  0
    3.0956    6.9668   -2.0258 Se  0  0  0  0  0  2  0  0  0  0  0  0
    0.4203    5.7197   -3.4533 C   0  0  0  0  0  0  0  0  0  0  0  0
   -0.5641    5.1763   -4.3142 C   0  0  0  0  0  0  0  0  0  0  0  0
   -1.1311    3.9077   -4.0470 C   0  0  0  0  0  0  0  0  0  0  0  0
   -2.2164    3.3673   -4.8291 C   0  0  0  0  0  0  0  0  0  0  0  0
   -2.4447    2.0571   -5.1589 C   0  0  0  0  0  0  0  0  0  0  0  0
   -3.6256    1.7957   -5.8741 C   0  0  0  0  0  0  0  0  0  0  0  0
   -4.4115    2.8882   -6.1216 C   0  0  0  0  0  0  0  0  0  0  0  0
   -5.9625    2.7999   -6.9179 S   0  0  0  0  0  0  0  0  0  0  0  0
   -6.2562    4.5495   -7.3601 C   0  0  0  0  0  0  0  0  0  0  0  0
   -5.3812    5.0068   -8.5091 C   0  0  0  0  0  0  0  0  0  0  0  0
   -3.6478    4.4530   -5.4121 Se  0  0  0  0  0  2  0  0  0  0  0  0
   -0.5909    3.2176   -2.9619 C   0  0  0  0  0  0  0  0  0  0  0  0
   -1.0488    1.6118   -2.4650 S   0  0  0  0  0  0  0  0  0  0  0  0
   -0.8181    6.0292   -5.4097 C   0  0  0  0  0  0  0  0  0  0  0  0
   -0.0835    7.1854   -5.3887 C   0  0  0  0  0  0  0  0  0  0  0  0
    0.9557    7.2794   -3.9926 S   0  0  0  0  0  0  0  0  0  0  0  0
   -0.1384    8.2115   -6.3885 C   0  0  0  0  0  0  0  0  0  0  0  0
   -1.0559    8.0145   -7.3604 N   0  0  0  0  0  0  0  0  0  0  0  0
   -1.2443    8.8375   -8.3209 N   0  0  0  0  0  0  0  0  0  0  0  0
   -0.5384    9.9607   -8.4329 C   0  0  0  0  0  0  0  0  0  0  0  0
    0.4436   10.2487   -7.5020 C   0  0  0  0  0  0  0  0  0  0  0  0
    1.3997   11.3833   -7.3763 C   0  0  0  0  0  0  0  0  0  0  0  0
    1.5321   12.3521   -8.0752 O   0  0  0  0  0  0  0  0  0  0  0  0
    2.1372   11.1006   -6.2399 N   0  0  0  0  0  0  0  0  0  0  0  0
    3.2153   11.9378   -5.7556 C   0  0  0  0  0  0  0  0  0  0  0  0
    4.5730   11.3872   -6.1755 C   0  0  0  0  0  0  0  0  0  0  0  0
    1.7731    9.9137   -5.6236 C   0  0  0  0  0  0  0  0  0  0  0  0
    2.2952    9.4847   -4.6246 O   0  0  0  0  0  0  0  0  0  0  0  0
    0.6631    9.3634   -6.4460 C   0  0  0  0  0  0  0  0  0  0  0  0
    2.6113  -14.5028    5.4506 H   0  0  0  0  0  0  0  0  0  0  0  0
   -3.1304  -12.9259    3.4558 H   0  0  0  0  0  0  0  0  0  0  0  0
   -2.8109  -14.5027    4.2373 H   0  0  0  0  0  0  0  0  0  0  0  0
   -3.4869  -14.8086    1.8528 H   0  0  0  0  0  0  0  0  0  0  0  0
   -2.1387  -13.7915    1.3333 H   0  0  0  0  0  0  0  0  0  0  0  0
   -1.8261  -15.3514    2.1123 H   0  0  0  0  0  0  0  0  0  0  0  0
   -3.2805   -7.3855    5.9813 H   0  0  0  0  0  0  0  0  0  0  0  0
   -2.9235   -9.0302    6.5859 H   0  0  0  0  0  0  0  0  0  0  0  0
   -5.0619   -9.0408    5.3144 H   0  0  0  0  0  0  0  0  0  0  0  0
   -3.8361   -9.9740    4.4429 H   0  0  0  0  0  0  0  0  0  0  0  0
   -4.2485   -8.3404    3.9089 H   0  0  0  0  0  0  0  0  0  0  0  0
   -0.5890   -1.9410    6.3124 H   0  0  0  0  0  0  0  0  0  0  0  0
   -0.2019   -3.5471    6.9979 H   0  0  0  0  0  0  0  0  0  0  0  0
   -2.8472   -2.7475    5.6709 H   0  0  0  0  0  0  0  0  0  0  0  0
   -2.4615   -4.3638    6.2728 H   0  0  0  0  0  0  0  0  0  0  0  0
   -2.5973   -3.0082    7.4024 H   0  0  0  0  0  0  0  0  0  0  0  0
    3.3167    1.9524    3.6764 H   0  0  0  0  0  0  0  0  0  0  0  0
    3.4231    0.3095    4.3774 H   0  0  0  0  0  0  0  0  0  0  0  0
    2.2197    1.8205    5.9440 H   0  0  0  0  0  0  0  0  0  0  0  0
    1.0657    2.2462    4.6736 H   0  0  0  0  0  0  0  0  0  0  0  0
    1.1085    0.5975    5.3101 H   0  0  0  0  0  0  0  0  0  0  0  0
    1.5950    3.0191   -0.4158 H   0  0  0  0  0  0  0  0  0  0  0  0
    1.2971    4.8836    0.5059 H   0  0  0  0  0  0  0  0  0  0  0  0
    3.1730    6.1672    1.6302 H   0  0  0  0  0  0  0  0  0  0  0  0
    4.7866    9.0800   -1.8407 H   0  0  0  0  0  0  0  0  0  0  0  0
    6.2058    9.6660   -0.9354 H   0  0  0  0  0  0  0  0  0  0  0  0
    6.9216    8.2626   -2.8847 H   0  0  0  0  0  0  0  0  0  0  0  0
    7.3757    7.4985   -1.3544 H   0  0  0  0  0  0  0  0  0  0  0  0
    5.9744    6.9087   -2.2590 H   0  0  0  0  0  0  0  0  0  0  0  0
   -1.7361    1.2770   -4.9406 H   0  0  0  0  0  0  0  0  0  0  0  0
   -3.8974    0.8102   -6.2098 H   0  0  0  0  0  0  0  0  0  0  0  0
   -6.0878    5.1453   -6.4577 H   0  0  0  0  0  0  0  0  0  0  0  0
   -7.3124    4.5918   -7.6241 H   0  0  0  0  0  0  0  0  0  0  0  0
   -5.5548    4.3894   -9.3872 H   0  0  0  0  0  0  0  0  0  0  0  0
   -4.3266    4.9425   -8.2414 H   0  0  0  0  0  0  0  0  0  0  0  0
   -5.6072    6.0417   -8.7557 H   0  0  0  0  0  0  0  0  0  0  0  0
   -1.4808    5.8118   -6.2294 H   0  0  0  0  0  0  0  0  0  0  0  0
   -0.7689   10.6000   -9.2704 H   0  0  0  0  0  0  0  0  0  0  0  0
    3.1435   11.9762   -4.6655 H   0  0  0  0  0  0  0  0  0  0  0  0
    3.0564   12.9343   -6.1737 H   0  0  0  0  0  0  0  0  0  0  0  0
    4.7163   10.3903   -5.7649 H   0  0  0  0  0  0  0  0  0  0  0  0
    4.6431   11.3381   -7.2598 H   0  0  0  0  0  0  0  0  0  0  0  0
    5.3613   12.0355   -5.8039 H   0  0  0  0  0  0  0  0  0  0  0  0
  1  2  2  0  0  0  0
  2  3  1  0  0  0  0
  3  4  2  0  0  0  0
  4  5  1  0  0  0  0
  5  6  1  0  0  0  0
  6  7  2  0  0  0  0
  6  8  1  0  0  0  0
  8  9  1  0  0  0  0
  9 10  1  0  0  0  0
  8 11  1  0  0  0  0
 11 12  2  0  0  0  0
 11 13  1  0  0  0  0
  4 14  1  0  0  0  0
 14 15  2  0  0  0  0
 15 16  1  0  0  0  0
 16 17  2  0  0  0  0
 17 18  1  0  0  0  0
 18 19  1  0  0  0  0
 19 20  2  0  0  0  0
 19 21  1  0  0  0  0
 21 22  1  0  0  0  0
 22 23  1  0  0  0  0
 21 24  1  0  0  0  0
 24 25  2  0  0  0  0
 24 26  1  0  0  0  0
 17 27  1  0  0  0  0
 27 28  2  0  0  0  0
 28 29  1  0  0  0  0
 29 30  2  0  0  0  0
 30 31  1  0  0  0  0
 31 32  1  0  0  0  0
 32 33  2  0  0  0  0
 32 34  1  0  0  0  0
 34 35  1  0  0  0  0
 35 36  1  0  0  0  0
 34 37  1  0  0  0  0
 37 38  2  0  0  0  0
 37 39  1  0  0  0  0
 30 40  1  0  0  0  0
 40 41  2  0  0  0  0
 41 42  1  0  0  0  0
 42 43  2  0  0  0  0
 43 44  1  0  0  0  0
 44 45  1  0  0  0  0
 45 46  2  0  0  0  0
 45 47  1  0  0  0  0
 47 48  1  0  0  0  0
 48 49  1  0  0  0  0
 47 50  1  0  0  0  0
 50 51  2  0  0  0  0
 50 52  1  0  0  0  0
 43 53  1  0  0  0  0
 53 54  2  0  0  0  0
 54 55  1  0  0  0  0
 55 56  2  0  0  0  0
 56 57  1  0  0  0  0
 57 58  2  0  0  0  0
 58 59  1  0  0  0  0
 59 60  2  0  0  0  0
 60 61  1  0  0  0  0
 61 62  1  0  0  0  0
 62 63  1  0  0  0  0
 60 64  1  0  0  0  0
 56 65  1  0  0  0  0
 65 66  2  0  0  0  0
 66 67  1  0  0  0  0
 67 68  1  0  0  0  0
 68 69  2  0  0  0  0
 69 70  1  0  0  0  0
 70 71  2  0  0  0  0
 71 72  1  0  0  0  0
 72 73  1  0  0  0  0
 73 74  1  0  0  0  0
 71 75  1  0  0  0  0
 67 76  2  0  0  0  0
 76 77  1  0  0  0  0
 66 78  1  0  0  0  0
 78 79  2  0  0  0  0
 79 80  1  0  0  0  0
 79 81  1  0  0  0  0
 81 82  2  0  0  0  0
 82 83  1  0  0  0  0
 83 84  2  0  0  0  0
 84 85  1  0  0  0  0
 85 86  1  0  0  0  0
 86 87  2  0  0  0  0
 86 88  1  0  0  0  0
 88 89  1  0  0  0  0
 89 90  1  0  0  0  0
 88 91  1  0  0  0  0
 91 92  2  0  0  0  0
 91 93  1  0  0  0  0
 13  1  1  0  0  0  0
 26 14  1  0  0  0  0
 39 27  1  0  0  0  0
 52 40  1  0  0  0  0
 77 53  1  0  0  0  0
 93 81  1  0  0  0  0
 13  5  2  0  0  0  0
 26 18  2  0  0  0  0
 39 31  2  0  0  0  0
 52 44  2  0  0  0  0
 76 55  1  0  0  0  0
 93 85  2  0  0  0  0
 64 57  1  0  0  0  0
 80 65  1  0  0  0  0
 75 68  1  0  0  0  0
  1 94  1  0  0  0  0
  9 95  1  0  0  0  0
  9 96  1  0  0  0  0
 10 97  1  0  0  0  0
 10 98  1  0  0  0  0
 10 99  1  0  0  0  0
 22100  1  0  0  0  0
 22101  1  0  0  0  0
 23102  1  0  0  0  0
 23103  1  0  0  0  0
 23104  1  0  0  0  0
 35105  1  0  0  0  0
 35106  1  0  0  0  0
 36107  1  0  0  0  0
 36108  1  0  0  0  0
 36109  1  0  0  0  0
 48110  1  0  0  0  0
 48111  1  0  0  0  0
 49112  1  0  0  0  0
 49113  1  0  0  0  0
 49114  1  0  0  0  0
 54115  1  0  0  0  0
 58116  1  0  0  0  0
 59117  1  0  0  0  0
 62118  1  0  0  0  0
 62119  1  0  0  0  0
 63120  1  0  0  0  0
 63121  1  0  0  0  0
 63122  1  0  0  0  0
 69123  1  0  0  0  0
 70124  1  0  0  0  0
 73125  1  0  0  0  0
 73126  1  0  0  0  0
 74127  1  0  0  0  0
 74128  1  0  0  0  0
 74129  1  0  0  0  0
 78130  1  0  0  0  0
 84131  1  0  0  0  0
 89132  1  0  0  0  0
 89133  1  0  0  0  0
 90134  1  0  0  0  0
 90135  1  0  0  0  0
 90136  1  0  0  0  0
M  END
