290

C         -4.09290       -5.44500        7.65220
C         -3.63880       -4.19530        7.86860
C         -3.19640       -3.54650        6.67640
C         -2.69950       -2.24280        6.52670
C         -2.45610       -1.35830        7.67200
C         -1.75040       -1.80940        8.78760
C         -1.44740       -0.95010        9.82140
C         -1.84340        0.38650        9.79440
S         -1.40690        1.40270       11.17020
C         -1.04490        3.02940       10.39160
C         -0.05150        3.77910       11.25590
C         -2.58480        0.81130        8.69600
F         -3.05470        2.07730        8.62760
C         -2.87650       -0.03250        7.64400
C         -2.39650       -1.83830        5.23280
C         -2.55690       -2.68220        4.11000
C         -3.08570       -3.97090        4.25310
C         -3.41920       -4.76900        3.06100
C         -2.82150       -5.98770        2.77470
C         -3.15790       -6.69800        1.63530
C         -4.11790       -6.21540        0.75540
S         -4.61370       -6.97680       -0.75610
C         -3.32050       -8.22330       -1.08170
C         -3.62450       -9.57290       -0.46060
C         -4.73020       -5.00010        1.07080
C         -4.38630       -4.27410        2.18680
F         -5.67130       -4.50620        0.24150
C         -3.37060       -4.38040        5.54410
S         -4.03270       -5.92960        5.98960
C         -2.10370       -2.07240        2.91330
C         -1.64500       -0.80650        3.09180
S         -1.74350       -0.28720        4.75820
C         -1.19150        0.04770        2.03470
C         -1.49240        1.35010        1.79570
C         -1.08310        1.79470        0.50840
C         -1.42540        3.00040       -0.12820
C         -2.14460        4.04810        0.60790
C         -1.63130        4.53610        1.80850
C         -2.30230        5.51200        2.51470
C         -3.50840        6.03120        2.05410
S         -4.29580        7.30370        3.00610
C         -6.00360        6.66130        3.16210
C         -6.03420        5.33230        3.89000
C         -3.99780        5.54990        0.84470
F         -5.15280        6.02990        0.33340
C         -3.34120        4.56890        0.12950
C         -1.11030        3.10390       -1.47530
C         -0.36040        2.11390       -2.15640
C          0.01190        0.92080       -1.51490
C          0.68400       -0.14810       -2.26470
C          0.14200       -1.42780       -2.33950
C          0.73170       -2.41540       -3.10460
C          1.89820       -2.16000       -3.81740
S          2.73970       -3.31620       -4.84290
C          1.85060       -4.88310       -4.54220
C          2.55750       -6.00300       -5.27960
C          2.43030       -0.87370       -3.72940
C          1.85200        0.12060       -2.97550
F          3.56190       -0.58170       -4.41300
C         -0.41120        0.77300       -0.20670
S         -0.27340       -0.68630        0.73420
C         -0.30180        2.35700       -3.54700
C         -1.02650        3.44300       -3.95440
S         -1.67440        4.33230       -2.59180
C         -1.56670        3.46950       -5.28650
C         -1.04120        2.75440       -6.32490
C         -2.02780        2.07010       -7.08550
C         -1.78390        0.85800       -7.75450
C         -0.39180        0.47510       -8.05690
C          0.25120       -0.49960       -7.30020
C          1.58190       -0.80740       -7.51090
C          2.31380       -0.15240       -8.49580
S          4.00870       -0.43970       -8.85680
C          4.49370       -1.75160       -7.67500
C          5.93930       -2.12730       -7.93600
C          1.65140        0.81930       -9.25090
F          2.33090        1.47600      -10.21360
C          0.33020        1.14510       -9.03990
C         -2.84010       -0.03450       -7.79520
C         -4.14400        0.27910       -7.32830
C         -4.42500        1.56710       -6.84780
C         -5.72600        1.93160       -6.25380
C         -6.54260        2.87950       -6.85450
C         -7.73590        3.26760       -6.27260
C         -8.14600        2.72140       -5.06270
S         -9.61470        3.13670       -4.18200
C        -10.55630        4.19140       -5.33380
C        -11.18480        3.39770       -6.46370
C         -7.30500        1.78020       -4.46730
C         -6.11760        1.38150       -5.03600
F         -7.66260        1.24680       -3.27790
C         -3.33830        2.40550       -6.67030
S         -3.31470        3.67580       -5.46120
C         -4.89190       -0.88980       -7.01980
C         -4.16780       -2.03960       -7.14690
S         -2.64670       -1.76080       -8.00280
C         -4.19290       -3.14490       -6.22860
C         -4.48040       -2.94520       -4.90760
C         -3.83670       -3.84860       -4.03080
C         -3.69030       -3.67720       -2.63540
C         -4.37630       -2.62550       -1.92310
C         -5.64400       -2.15630       -2.12820
C         -6.01370       -0.99350       -1.42130
C         -5.03230       -0.47570       -0.62890
S         -5.02540        0.96770        0.35350
C         -6.74480        1.57150        0.14690
C         -6.94120        2.82850        0.96990
Se        -3.48170       -1.52320       -0.65270
C         -2.67370       -4.42590       -2.05620
C         -1.88690       -5.37210       -2.75000
C         -2.14480       -5.65280       -4.11190
C         -1.42530       -6.69260       -4.81110
C         -1.02770       -6.74650       -6.11890
C         -0.41250       -7.94300       -6.53460
C         -0.30300       -8.90760       -5.57510
S          0.50880      -10.43600       -5.81530
C         -0.19550      -11.43470       -4.45690
C         -1.64760      -11.79170       -4.69950
Se        -0.99860       -8.31220       -3.93170
C         -3.07000       -4.81060       -4.73270
S         -3.26600       -4.60930       -6.46240
C         -0.72840       -5.72990       -2.00400
C         -0.63870       -5.10070       -0.79990
S         -2.06180       -4.12980       -0.45660
C          0.50350       -4.78260       -0.00200
C          0.49570       -4.22770        1.24270
C          1.65490       -3.46650        1.53670
C          1.86410       -2.63520        2.66110
C          1.16470       -2.86010        3.89890
C          1.05210       -2.04230        4.99360
C          0.56660       -2.63460        6.17260
C          0.27840       -3.96650        6.08140
S         -0.31080       -4.92560        7.41790
C          0.37270       -6.58330        7.04700
C         -0.53660       -7.39570        6.14940
Se         0.51880       -4.58500        4.32390
C          2.84590       -1.65490        2.49120
C          3.69970       -1.58890        1.36080
C          3.61330       -2.55230        0.33190
C          4.47820       -2.60110       -0.82370
C          4.85940       -3.73570       -1.49320
C          5.62710       -3.54850       -2.65520
C          5.86700       -2.24430       -2.98850
S          6.75280       -1.75940       -4.41050
C          6.92320        0.03960       -4.15370
C          7.97980        0.37740       -3.12130
Se         5.09400       -1.07530       -1.74000
C          2.55460       -3.44640        0.44960
S          2.03570       -4.52700       -0.81600
C          4.58630       -0.48860        1.42880
C          4.41520        0.29330        2.53270
S          3.17450       -0.34040        3.58550
C          5.08190        1.51550        2.84690
C          6.07020        2.13140        2.13630
C          6.48620        3.36630        2.69660
C          7.47320        4.24450        2.22020
C          8.26830        3.91890        1.02960
C          8.91310        2.68740        0.91170
C          9.63560        2.37740       -0.21920
C          9.75500        3.27990       -1.27690
S         10.72910        2.76590       -2.65620
C         10.00040        3.65460       -4.09170
C         10.32150        2.88210       -5.35590
C          9.13720        4.51820       -1.13000
F          9.23860        5.46390       -2.09130
C          8.39710        4.83510       -0.00850
C          7.65200        5.42270        2.93210
C          6.91080        5.74830        4.09450
C          5.93170        4.86710        4.57500
C          5.13560        5.15850        5.77490
C          3.74450        5.07690        5.73970
C          2.99610        5.34270        6.86580
C          3.60050        5.68610        8.07300
S          2.53920        5.94580        9.46480
C          3.27280        7.38620       10.32380
C          3.36070        8.59920        9.41980
C          4.99050        5.73940        8.10060
C          5.75190        5.49810        6.97440
F          5.65050        6.02800        9.24440
C          5.74120        3.69670        3.85540
S          4.60100        2.43970        4.25430
C          7.28870        7.02090        4.61760
C          8.27710        7.60670        3.91260
S          8.81400        6.67080        2.56010
H         -4.47560       -6.14130        8.37250
H         -3.62280       -3.72810        8.83590
H         -1.40140       -2.83050        8.81960
H         -0.88240       -1.29790       10.67220
H         -1.97980        3.57930       10.29390
H         -0.63030        2.82570        9.40570
H          0.19230        4.73150       10.79080
H          0.86600        3.20600       11.36710
H         -0.46650        3.96380       12.24410
H         -3.45810        0.35230        6.82090
H         -2.06630       -6.38030        3.44070
H         -2.65570       -7.63090        1.43770
H         -3.30630       -8.30070       -2.17180
H         -2.36490       -7.81490       -0.75220
H         -4.56750       -9.95670       -0.84250
H         -2.83390      -10.27840       -0.71070
H         -3.70070       -9.50210        0.62200
H         -4.87260       -3.32900        2.37360
H         -2.14280       -2.54690        1.94730
H         -2.06630        1.94990        2.47880
H         -0.69500        4.14970        2.18240
H         -1.90390        5.88910        3.44380
H         -6.44670        6.59410        2.17090
H         -6.51950        7.43500        3.72990
H         -5.48860        4.57400        3.33090
H         -5.58140        5.42640        4.87470
H         -7.06420        5.00150        4.00840
H         -3.77570        4.21430       -0.79180
H         -0.77850       -1.64990       -1.81610
H          0.26730       -3.38660       -3.15150
H          0.82650       -4.76740       -4.89880
H          1.86300       -5.05470       -3.46640
H          2.04350       -6.94480       -5.09630
H          2.56170       -5.81630       -6.35100
H          3.58630       -6.09400       -4.93910
H          2.31510        1.09500       -2.93800
H          0.13340        1.65850       -4.23840
H          0.00970        2.55200       -6.42950
H         -0.28830       -1.00790       -6.51440
H          2.05100       -1.55550       -6.89400
H          4.37190       -1.36550       -6.66470
H          3.83690       -2.60640       -7.83140
H          6.25110       -2.88390       -7.22020
H          6.05970       -2.51820       -8.94370
H          6.58510       -1.25990       -7.82280
H         -0.12980        1.91310       -9.64200
H         -6.24150        3.32270       -7.79180
H         -8.33610        4.01230       -6.76880
H         -9.90070        4.98430       -5.69130
H        -11.32420        4.63680       -4.70110
H        -11.75560        4.06240       -7.10930
H        -11.85600        2.64200       -6.06240
H        -10.42650        2.89770       -7.06250
H         -5.49280        0.66840       -4.51980
H         -5.86920       -0.85660       -6.57310
H         -5.00150       -2.07270       -4.55970
H         -6.34510       -2.67170       -2.76370
H         -6.98960       -0.55450       -1.52700
H         -6.90190        1.76570       -0.91290
H         -7.40780        0.77350        0.48120
H         -6.74280        2.63210        2.02160
H         -7.96710        3.17460        0.86520
H         -6.27440        3.61630        0.62960
H         -1.14870       -5.91910       -6.79620
H         -0.05760       -8.09520       -7.53900
H         -0.06620      -10.86090       -3.53310
H          0.43170      -12.32460       -4.41530
H         -2.26160      -10.89280       -4.75380
H         -2.01690      -12.41190       -3.88530
H         -1.75270      -12.33890       -5.63330
H          0.07030       -6.34410       -2.38660
H         -0.38690       -4.24980        1.86210
H          1.31480       -0.99950        4.97410
H          0.46430       -2.08640        7.09340
H          0.48910       -7.05600        8.02180
H          1.35530       -6.43030        6.59770
H         -0.63840       -6.91150        5.17620
H         -0.11690       -8.38810        5.99760
H         -1.52550       -7.49390        6.59120
H          4.63540       -4.72160       -1.12070
H          6.00140       -4.36590       -3.24670
H          5.93680        0.41440       -3.86700
H          7.18280        0.43750       -5.13420
H          8.95700        0.02030       -3.43690
H          7.74080       -0.07900       -2.15960
H          8.02650        1.45440       -2.98000
H          5.33130       -0.27210        0.68280
H          6.48040        1.73030        1.22790
H          8.85690        1.97620        1.72180
H         10.12880        1.42190       -0.30880
H         10.42150        4.65820       -4.12450
H          8.92520        3.71280       -3.92930
H         11.39760        2.80390       -5.49180
H          9.90630        1.87800       -5.30790
H          9.89810        3.39580       -6.21630
H          7.92050        5.80170        0.03680
H          3.24630        4.82850        4.81560
H          1.91920        5.28880        6.83090
H          2.58440        7.56070       11.15090
H          4.24340        7.10330       10.72480
H          2.38220        8.84360        9.01160
H          4.04420        8.41760        8.59210
H          3.72710        9.45270        9.98650
H          6.82730        5.53930        7.05560
H          6.82330        7.46880        5.47660
H          8.74110        8.55680        4.09210
