182

C          7.18590       -2.93420       11.87140
C          8.14850       -2.59050       10.99310
C          7.78810       -2.85010        9.63720
C          8.53160       -2.59010        8.46910
C          9.89970       -2.12550        8.51910
C         10.87350       -2.51000        9.40050
C         12.14480       -1.93740        9.20600
C         12.23030       -1.06290        8.16050
S         13.67300       -0.16030        7.76110
C         13.36350        0.24640        6.00610
C         13.45160       -0.97080        5.10860
Se        10.57310       -0.87760        7.28020
C          7.88620       -2.84810        7.26190
C          6.59070       -3.40550        7.16850
C          5.84850       -3.66940        8.33720
C          4.49640       -4.17400        8.26740
C          3.52620       -3.81910        7.37090
C          2.29120       -4.48110        7.50240
C          2.23250       -5.40280        8.50870
S          0.83370       -6.41210        8.80060
C          1.19530       -7.07730       10.46170
C          1.01240       -6.03850       11.54930
Se         3.86560       -5.50080        9.44700
C          6.48470       -3.38750        9.54320
S          5.77020       -3.58730       11.12110
C          6.22930       -3.66820        5.82480
C          7.18360       -3.31840        4.91580
S          8.58360       -2.60100        5.68780
C          7.01390       -3.34620        3.49410
S          5.43420       -2.88140        2.95300
C          5.88160       -2.89410        1.28500
C          7.22460       -3.26250        1.14910
C          7.86320       -3.56340        2.40850
C          9.18880       -4.08370        2.35600
C          9.90510       -4.69360        3.52910
F         10.71340       -3.82610        4.17300
F         10.71730       -5.69500        3.13610
F          9.09890       -5.24160        4.44770
C          9.86200       -4.12430        1.16140
C          9.26160       -3.71040       -0.03840
C          7.95430       -3.32520       -0.05430
C          4.89000       -2.55850        0.32400
C          3.62450       -2.12460        0.62330
C          2.80220       -1.89070       -0.49960
C          1.46370       -1.43840       -0.52630
C          0.68840       -1.19070        0.66760
C         -0.27210       -0.22920        0.83620
C         -0.95120       -0.23210        2.06700
C         -0.56950       -1.21230        2.93980
S         -1.22960       -1.36270        4.55170
C         -0.37480       -2.84230        5.19620
C         -0.97950       -4.13460        4.68540
Se         0.79520       -2.27810        2.20720
C          0.91110       -1.25510       -1.79320
C          1.61370       -1.48400       -3.00050
C          2.95270       -1.92970       -2.97080
C          3.69590       -2.18640       -4.18600
C          3.70810       -1.43630       -5.32840
C          4.48320       -1.93560       -6.39470
C          5.10740       -3.12060       -6.13600
S          6.13940       -4.06720       -7.18010
C          5.67450       -3.42620       -8.83570
C          6.20960       -4.36160       -9.90200
Se         4.76510       -3.73560       -4.39790
C          3.49460       -2.13710       -1.70900
S          5.12390       -2.67600       -1.41010
C          0.79960       -1.27660       -4.14100
C         -0.48370       -0.92880       -3.84560
S         -0.73690       -0.79400       -2.11560
C         -1.54730       -0.52800       -4.71600
S         -2.50720        0.79230       -4.14070
C         -3.33060        0.96900       -5.63940
C         -2.92980       -0.00790       -6.54180
C         -1.92530       -0.89550       -6.01030
C         -1.56530       -2.00910       -6.82300
C         -0.70640       -3.15000       -6.35170
F         -0.80320       -3.40960       -5.04170
F          0.60550       -2.97680       -6.62320
F         -1.03630       -4.30230       -6.96490
C         -2.07550       -2.12630       -8.09130
C         -3.00520       -1.20820       -8.61160
C         -3.45860       -0.18530       -7.83830
C         -4.34980        1.97170       -5.80560
S         -5.76470        1.82680       -4.81650
C         -6.53690        3.18770       -5.54740
C         -5.71760        3.74250       -6.53300
C         -4.45000        3.06470       -6.65920
C         -3.48990        3.62340       -7.55490
C         -2.06860        3.14180       -7.62890
F         -1.25170        4.06810       -8.15950
F         -1.90480        2.04670       -8.39890
F         -1.53630        2.84500       -6.43170
C         -3.83590        4.68450       -8.34920
C         -5.11550        5.26490       -8.28750
C         -6.03080        4.82570       -7.37900
C         -7.82830        3.56320       -5.07840
C         -8.64480        2.78740       -4.30240
C         -9.85520        3.41360       -3.92400
C        -10.88360        2.89310       -3.10920
C        -10.87980        1.51360       -2.68560
C        -10.48560        0.42620       -3.41910
C        -10.55240       -0.81840       -2.76860
C        -11.00180       -0.77350       -1.47800
S        -11.24240       -2.19920       -0.49760
C        -11.47010       -1.47780        1.16440
C        -10.16740       -0.98240        1.75840
Se       -11.44030        0.98670       -0.96460
C        -11.89590        3.78510       -2.76250
C        -11.95310        5.12260       -3.21490
C        -10.95120        5.62810       -4.06650
C        -10.92920        6.99670       -4.53940
C        -10.54940        7.43470       -5.77690
C        -10.49930        8.83130       -5.95320
C        -10.81900        9.56720       -4.84920
S        -10.92100       11.31240       -4.84110
C        -10.77350       11.67770       -3.05670
C         -9.37170       11.43730       -2.53520
Se       -11.28730        8.45770       -3.40030
C         -9.93060        4.74270       -4.40190
S         -8.53960        5.13820       -5.37770
C        -13.12290        5.78410       -2.73820
C        -13.89490        4.99960       -1.95960
S        -13.27030        3.40070       -1.76130
H          7.20090       -2.84040       12.93950
H          9.07780       -2.13620       11.28320
H         10.70080       -3.26210       10.15200
H         12.99520       -2.18190        9.81880
H         12.37760        0.71910        5.95470
H         14.12720        0.98240        5.75640
H         13.30970       -0.67360        4.07170
H         14.42490       -1.44570        5.20830
H         12.68110       -1.69890        5.36250
H          3.67610       -3.03620        6.64630
H          1.44920       -4.27790        6.86460
H          0.50150       -7.90840       10.58450
H          2.21920       -7.46350       10.43680
H          1.69990       -5.20500       11.40360
H          1.21390       -6.48370       12.52110
H         -0.00520       -5.65530       11.54120
H          5.31530       -4.15510        5.53690
H         10.86860       -4.51240        1.13370
H          9.83440       -3.74450       -0.95100
H          7.47370       -3.06460       -0.98230
H          3.31960       -1.95250        1.64230
H         -0.46930        0.52180        0.09060
H         -1.71360        0.48630        2.31350
H         -0.47350       -2.76120        6.27890
H          0.68010       -2.74780        4.91920
H         -0.88180       -4.20480        3.60190
H         -0.46920       -4.98530        5.13300
H         -2.03460       -4.18620        4.94290
H          3.20410       -0.48690       -5.39860
H          4.57270       -1.40800       -7.32800
H          4.58650       -3.37310       -8.86240
H          6.10050       -2.42800       -8.93940
H          7.29310       -4.43130       -9.83850
H          5.94000       -3.98940      -10.88800
H          5.79220       -5.35790       -9.77720
H          1.16560       -1.37440       -5.14330
H         -1.78890       -2.97020       -8.69990
H         -3.38040       -1.35410       -9.61150
H         -4.21660        0.49720       -8.19110
H         -3.10860        5.10280       -9.02750
H         -5.34840        6.08450       -8.94800
H         -6.99680        5.29680       -7.30140
H         -8.36310        1.79960       -3.98500
H        -10.18430        0.51120       -4.44990
H        -10.27430       -1.74260       -3.24500
H        -11.89640       -2.28450        1.75980
H        -12.20620       -0.67300        1.06870
H         -9.74320       -0.18730        1.14490
H        -10.34340       -0.58950        2.75740
H         -9.44610       -1.79370        1.82140
H        -10.32850        6.75500       -6.58260
H        -10.22110        9.29230       -6.88490
H        -11.05760       12.72550       -2.96550
H        -11.51240       11.05920       -2.53720
H         -9.32290       11.68990       -1.47810
H         -8.65500       12.05030       -3.07670
H         -9.09140       10.39090       -2.65270
H        -13.38470        6.79810       -2.98840
H        -14.82090        5.25080       -1.48100
