218

C          6.37330      -17.13380        9.74820
C          6.92770      -16.83590        8.53200
C          8.16160      -17.43520        8.00140
O          8.84600      -18.23970        8.58310
O          8.41470      -16.96200        6.77390
C          9.60950      -17.40950        6.13530
C         10.79600      -16.53950        6.52460
C          6.16010      -15.85270        7.86010
C          5.05480      -15.43020        8.57970
S          4.94010      -16.24560       10.09570
C          4.29640      -14.41780        7.94220
C          3.20480      -13.73000        8.64310
O          2.70540      -12.66870        8.34000
O          2.85710      -14.41650        9.73990
C          1.82590      -13.85740       10.55430
C          0.44370      -14.15860        9.99410
C          4.84340      -14.11030        6.70140
S          6.28900      -15.03120        6.35350
C          4.34330      -13.17980        5.74510
C          3.04670      -12.79430        5.58100
C          2.87450      -11.74380        4.65420
C          1.67900      -11.04490        4.38410
C          0.47960      -11.26010        5.16270
C         -0.81550      -11.12480        4.73610
C         -1.80700      -11.24640        5.72450
C         -1.32950      -11.46920        6.98250
S         -2.26640      -11.66340        8.45400
C         -3.48750      -12.92230        7.91970
C         -2.81990      -14.23910        7.57940
Se         0.53970      -11.58800        7.02540
C          1.76990      -10.05150        3.41250
C          2.97390       -9.72680        2.73740
C          4.16980      -10.43500        3.00970
C          5.39160      -10.15540        2.29760
C          5.53160       -9.77010        0.98930
C          6.84660       -9.53780        0.54970
C          7.81770       -9.72750        1.49330
S          9.52620       -9.56170        1.16110
C         10.24300       -9.62800        2.84000
C         10.02500       -8.34090        3.60930
Se         7.07820      -10.29920        3.13110
C          4.08390      -11.40440        4.00540
S          5.41160      -12.34850        4.63050
C          2.82450       -8.59050        1.90980
C          1.56140       -8.07170        1.89960
S          0.47990       -8.98080        2.94140
C          1.06840       -6.90710        1.24500
C          1.61340       -6.14820        0.21300
C          2.76710       -6.43620       -0.64850
O          3.40790       -7.45960       -0.69110
O          3.00610       -5.37400       -1.43360
C          4.00870       -5.48180       -2.44120
C          3.36360       -5.62630       -3.81220
C          0.81790       -5.00510       -0.03350
C         -0.31140       -4.90090        0.75710
S         -0.42620       -6.21920        1.85480
C         -1.10020       -3.75250        0.51020
C         -2.33580       -3.52060        1.25170
O         -3.10280       -2.59360        1.11270
O         -2.53000       -4.50190        2.14610
C         -3.71830       -4.43780        2.93100
C         -4.92410       -4.95160        2.15690
C         -0.53380       -2.96460       -0.48800
S          0.94490       -3.67730       -1.11990
C         -0.92070       -1.70650       -1.02270
C         -0.21430       -1.02270       -1.98170
C         -0.75170        0.23710       -2.31340
C         -0.23890        1.19910       -3.21460
C          0.88450        0.92470       -4.08290
C          1.82100        1.81290       -4.53850
C          2.74690        1.32270       -5.48040
C          2.57370        0.01530       -5.82700
S          3.47480       -0.96190       -6.96560
C          5.10460       -0.13300       -6.99450
C          5.82680       -0.24710       -5.66690
Se         1.14340       -0.76730       -4.90400
C         -0.90580        2.42370       -3.24410
C         -2.06760        2.69500       -2.47490
C         -2.59340        1.72200       -1.59590
C         -3.74890        1.96510       -0.76380
C         -4.09220        3.11440       -0.10320
C         -5.26150        3.05340        0.67750
C         -5.90660        1.84790        0.65650
S         -7.40190        1.53070        1.50530
C         -7.48310       -0.29460        1.44670
C         -6.47520       -0.95890        2.36310
Se        -5.01170        0.60660       -0.44170
C         -1.91010        0.51130       -1.54710
S         -2.31700       -0.80610       -0.48370
C         -2.57650        3.97950       -2.74700
C         -1.83120        4.70390       -3.64450
S         -0.46630        3.78750       -4.23810
C         -2.10060        6.05590       -3.99340
C         -1.39760        6.96060       -4.78280
C         -0.18370        6.72620       -5.55940
O          0.40590        5.67630       -5.68210
O          0.21960        7.86690       -6.14080
C          1.37630        7.80130       -6.97150
C          1.02260        7.33090       -8.37510
C         -2.00840        8.23670       -4.76250
C         -3.15360        8.31490       -3.99100
S         -3.51810        6.80100       -3.26000
C         -3.76150        9.59140       -3.96930
C         -5.06400        9.79730       -3.32280
O         -5.81230       10.73710       -3.47690
O         -5.35160        8.75300       -2.53350
C         -6.60960        8.77390       -1.85940
C         -7.73300        8.28470       -2.76090
C         -3.01870       10.49390       -4.72500
S         -1.62780        9.75230       -5.48380
C         -3.24370       11.89160       -4.87180
C         -3.88690       12.70480       -3.98750
C         -4.04280       14.03360       -4.43680
C         -4.74850       15.06640       -3.78490
C         -5.56190       14.81020       -2.61920
C         -5.84610       15.68000       -1.60000
C         -6.74760       15.22220       -0.62320
C         -7.24170       13.97090       -0.85250
S         -8.35170       13.03040        0.12300
C         -9.26220       14.32060        1.04620
C        -10.10340       15.19000        0.13330
Se        -6.53690       13.19290       -2.40110
C         -4.67630       16.31810       -4.39760
C         -3.97700       16.55500       -5.60440
C         -3.31660       15.50570       -6.27570
C         -2.58490       15.69360       -7.51170
C         -2.53750       14.84180       -8.57860
C         -1.68120       15.21440       -9.63380
C         -0.98510       16.37100       -9.43580
S          0.21340       16.98620      -10.55160
C          0.33200       18.73580      -10.03640
C         -0.89260       19.53500      -10.43250
Se        -1.39300       17.13470       -7.76190
C         -3.39030       14.25360       -5.67200
S         -2.68760       12.77570       -6.28030
C         -4.12450       17.90590       -6.03770
C         -4.88230       18.65020       -5.20770
S         -5.47160       17.76900       -3.84440
H          6.75160      -17.84380       10.45660
H          9.40350      -17.34040        5.06520
H          9.79220      -18.45160        6.41750
H         10.59600      -15.49990        6.27630
H         11.68170      -16.87000        5.98990
H         10.98010      -16.61950        7.59340
H          1.96540      -14.31930       11.53370
H          1.97420      -12.77490       10.62290
H         -0.31290      -13.78640       10.67880
H          0.31660      -13.66070        9.03310
H          0.31580      -15.23080        9.86230
H          2.23450      -13.27890        6.08930
H         -1.06600      -10.96490        3.70090
H         -2.85710      -11.15660        5.50210
H         -4.04070      -12.51740        7.07370
H         -4.15920      -13.02390        8.77110
H         -2.28000      -14.62370        8.44170
H         -3.56880      -14.96900        7.27870
H         -2.11510      -14.10700        6.75950
H          4.69430       -9.67870        0.31910
H          7.07660       -9.23300       -0.45650
H         11.30350       -9.82040        2.68120
H          9.79200      -10.48610        3.34840
H         10.48720       -8.41510        4.59130
H          8.95980       -8.15060        3.74340
H         10.46320       -7.50060        3.07600
H          3.63320       -8.13820        1.37250
H          4.59460       -4.56060       -2.38260
H          4.64530       -6.34350       -2.21440
H          2.77470       -6.53970       -3.85500
H          2.71180       -4.77850       -4.00970
H          4.13400       -5.66820       -4.57650
H         -3.88180       -3.40080        3.24340
H         -3.51080       -5.06380        3.80080
H         -4.73320       -5.95860        1.79380
H         -5.79440       -4.96770        2.80670
H         -5.12560       -4.30140        1.30880
H          0.70150       -1.41450       -2.39260
H          1.87620        2.82760       -4.18480
H          3.51560        1.95140       -5.89510
H          4.95180        0.90300       -7.29320
H          5.64670       -0.65170       -7.78480
H          5.25080        0.22500       -4.87360
H          6.79690        0.24180       -5.73080
H          5.97870       -1.29260       -5.40840
H         -3.46690        3.99130       -0.11470
H         -5.61570        3.88360        1.26400
H         -7.33660       -0.58890        0.40260
H         -8.50460       -0.52880        1.74570
H         -6.58270       -0.58590        3.37910
H         -5.45630       -0.77100        2.02440
H         -6.63790       -2.03450        2.36370
H         -3.47680        4.36870       -2.30710
H          1.77090        8.81940       -6.98350
H          2.10260        7.12110       -6.51390
H          0.26180        7.97790       -8.80530
H          0.64470        6.31170       -8.34150
H          1.90880        7.35760       -9.00250
H         -6.81450        9.79620       -1.52070
H         -6.47660        8.11400       -1.00000
H         -7.51610        7.28250       -3.12320
H         -7.84490        8.95450       -3.61000
H         -8.66370        8.26880       -2.20180
H         -4.19150       12.36450       -3.01680
H         -5.37150       16.64260       -1.51270
H         -7.01200       15.82250        0.23020
H         -9.88580       13.75510        1.73810
H         -8.53890       14.90100        1.61760
H        -10.64810       15.92530        0.72230
H         -9.47670       15.71470       -0.58490
H        -10.81900       14.58050       -0.41380
H         -3.15900       13.96480       -8.63790
H         -1.58330       14.63670      -10.53640
H          1.22780       19.10930      -10.53100
H          0.48950       18.74410       -8.95320
H         -0.76880       20.57380      -10.13380
H         -1.04120       19.49340      -11.50890
H         -1.78280       19.13880       -9.94380
H         -3.70060       18.29260       -6.94880
H         -5.14590       19.68520       -5.30390
