
  xtb     03082209563D
 energy: -332.289186364213 gnorm: 0.000681273655 xtb: 6.4.1 (unknown)
188211  0     0  0            999 V2000
    8.4839   -4.6625   10.0784 C   0  0  0  0  0  0  0  0  0  0  0  0
    8.6088   -5.3336   11.2743 C   0  0  0  0  0  0  0  0  0  0  0  0
    8.0030   -4.8749   12.4761 C   0  0  0  0  0  0  0  0  0  0  0  0
    8.2029   -5.6936   13.5497 N   0  0  0  0  0  0  0  0  0  0  0  0
    8.9082   -6.7087   13.2459 C   0  0  0  0  0  0  0  0  0  0  0  0
    9.4369   -6.8316   11.5821 S   0  0  0  0  0  0  0  0  0  0  0  0
    7.2358   -3.7041   12.5047 C   0  0  0  0  0  0  0  0  0  0  0  0
    7.1675   -3.0045   11.3040 C   0  0  0  0  0  0  0  0  0  0  0  0
    7.7468   -3.4851   10.0990 C   0  0  0  0  0  0  0  0  0  0  0  0
    7.4956   -2.7063    9.0042 N   0  0  0  0  0  0  0  0  0  0  0  0
    6.8098   -1.6750    9.3074 C   0  0  0  0  0  0  0  0  0  0  0  0
    6.3487   -1.5016   10.9799 S   0  0  0  0  0  0  0  0  0  0  0  0
    6.5476   -3.3245   13.7404 C   0  0  0  0  0  0  0  0  0  0  0  0
    5.2367   -3.0720   13.8565 C   0  0  0  0  0  0  0  0  0  0  0  0
    4.3059   -3.1530   12.7600 C   0  0  0  0  0  0  0  0  0  0  0  0
    4.4100   -3.9297   11.6495 C   0  0  0  0  0  0  0  0  0  0  0  0
    3.4987   -3.5916   10.6212 C   0  0  0  0  0  0  0  0  0  0  0  0
    3.5759   -4.0012    9.2763 C   0  0  0  0  0  0  0  0  0  0  0  0
    4.5970   -4.9252    8.8311 C   0  0  0  0  0  0  0  0  0  0  0  0
    5.0162   -6.0811    9.4302 C   0  0  0  0  0  0  0  0  0  0  0  0
    6.1096   -6.7265    8.8230 C   0  0  0  0  0  0  0  0  0  0  0  0
    6.6163   -6.0869    7.7256 C   0  0  0  0  0  0  0  0  0  0  0  0
    8.0402   -6.6332    6.8653 S   0  0  0  0  0  0  0  0  0  0  0  0
    8.0840   -5.4812    5.4499 C   0  0  0  0  0  0  0  0  0  0  0  0
    7.0652   -5.8388    4.3860 C   0  0  0  0  0  0  0  0  0  0  0  0
    5.6570   -4.5227    7.3325 Se  0  0  0  0  0  2  0  0  0  0  0  0
    2.7123   -3.3606    8.3993 C   0  0  0  0  0  0  0  0  0  0  0  0
    1.7522   -2.4033    8.8054 C   0  0  0  0  0  0  0  0  0  0  0  0
    1.6816   -1.9824   10.1522 C   0  0  0  0  0  0  0  0  0  0  0  0
    0.7728   -0.9566   10.6125 C   0  0  0  0  0  0  0  0  0  0  0  0
    0.2078   -0.8663   11.8564 C   0  0  0  0  0  0  0  0  0  0  0  0
   -0.6159    0.2507   12.0916 C   0  0  0  0  0  0  0  0  0  0  0  0
   -0.7264    1.1226   11.0473 C   0  0  0  0  0  0  0  0  0  0  0  0
   -1.6285    2.6185   11.1061 S   0  0  0  0  0  0  0  0  0  0  0  0
   -1.9621    2.9062    9.3310 C   0  0  0  0  0  0  0  0  0  0  0  0
   -2.9757    1.9293    8.7725 C   0  0  0  0  0  0  0  0  0  0  0  0
    0.2986    0.5515    9.5770 Se  0  0  0  0  0  2  0  0  0  0  0  0
    2.5979   -2.5770   11.0213 C   0  0  0  0  0  0  0  0  0  0  0  0
    2.9270   -2.0745   12.6617 S   0  0  0  0  0  0  0  0  0  0  0  0
    0.9939   -1.9416    7.7035 C   0  0  0  0  0  0  0  0  0  0  0  0
    1.3816   -2.4622    6.5028 C   0  0  0  0  0  0  0  0  0  0  0  0
    2.6796   -3.6205    6.6770 S   0  0  0  0  0  0  0  0  0  0  0  0
    0.8767   -2.0984    5.2205 C   0  0  0  0  0  0  0  0  0  0  0  0
    0.0304   -1.0642    4.9445 C   0  0  0  0  0  0  0  0  0  0  0  0
   -0.2368   -0.9014    3.5653 C   0  0  0  0  0  0  0  0  0  0  0  0
   -1.0591    0.0671    2.9549 C   0  0  0  0  0  0  0  0  0  0  0  0
   -1.6479    1.1375    3.7291 C   0  0  0  0  0  0  0  0  0  0  0  0
   -1.0391    1.8567    4.7200 C   0  0  0  0  0  0  0  0  0  0  0  0
   -1.8330    2.8315    5.3533 C   0  0  0  0  0  0  0  0  0  0  0  0
   -3.1156    2.9196    4.8915 C   0  0  0  0  0  0  0  0  0  0  0  0
   -4.2682    4.0951    5.4866 S   0  0  0  0  0  0  0  0  0  0  0  0
   -5.8490    3.3742    4.9241 C   0  0  0  0  0  0  0  0  0  0  0  0
   -6.2356    2.1489    5.7268 C   0  0  0  0  0  0  0  0  0  0  0  0
   -3.4226    1.7130    3.4721 Se  0  0  0  0  0  2  0  0  0  0  0  0
   -1.2165   -0.0421    1.5788 C   0  0  0  0  0  0  0  0  0  0  0  0
   -0.5552   -1.0129    0.7880 C   0  0  0  0  0  0  0  0  0  0  0  0
    0.2719   -1.9807    1.3990 C   0  0  0  0  0  0  0  0  0  0  0  0
    0.9236   -3.0198    0.6349 C   0  0  0  0  0  0  0  0  0  0  0  0
    0.4270   -3.7062   -0.4397 C   0  0  0  0  0  0  0  0  0  0  0  0
    1.2773   -4.6766   -1.0030 C   0  0  0  0  0  0  0  0  0  0  0  0
    2.4980   -4.7948   -0.4013 C   0  0  0  0  0  0  0  0  0  0  0  0
    3.7588   -5.8652   -0.9670 S   0  0  0  0  0  0  0  0  0  0  0  0
    4.8385   -5.9620    0.5041 C   0  0  0  0  0  0  0  0  0  0  0  0
    4.2156   -6.7735    1.6214 C   0  0  0  0  0  0  0  0  0  0  0  0
    2.6740   -3.5916    1.0400 Se  0  0  0  0  0  2  0  0  0  0  0  0
    0.4139   -1.8810    2.7800 C   0  0  0  0  0  0  0  0  0  0  0  0
    1.3706   -2.9477    3.7728 S   0  0  0  0  0  0  0  0  0  0  0  0
   -0.7956   -0.8110   -0.5932 C   0  0  0  0  0  0  0  0  0  0  0  0
   -1.6321    0.2334   -0.8601 C   0  0  0  0  0  0  0  0  0  0  0  0
   -2.1656    1.0394    0.5985 S   0  0  0  0  0  0  0  0  0  0  0  0
   -2.0577    0.7054   -2.1379 C   0  0  0  0  0  0  0  0  0  0  0  0
   -1.5460    0.3759   -3.3588 C   0  0  0  0  0  0  0  0  0  0  0  0
   -2.1723    1.0443   -4.4391 C   0  0  0  0  0  0  0  0  0  0  0  0
   -1.8863    0.9179   -5.8157 C   0  0  0  0  0  0  0  0  0  0  0  0
   -0.9709   -0.0793   -6.3163 C   0  0  0  0  0  0  0  0  0  0  0  0
   -0.7748   -1.3467   -5.8341 C   0  0  0  0  0  0  0  0  0  0  0  0
    0.1767   -2.1303   -6.5124 C   0  0  0  0  0  0  0  0  0  0  0  0
    0.7879   -1.5112   -7.5662 C   0  0  0  0  0  0  0  0  0  0  0  0
    2.0577   -2.2463   -8.5164 S   0  0  0  0  0  0  0  0  0  0  0  0
    2.0593   -1.1824  -10.0021 C   0  0  0  0  0  0  0  0  0  0  0  0
    0.8432   -1.4142  -10.8753 C   0  0  0  0  0  0  0  0  0  0  0  0
    0.1476    0.2487   -7.7983 Se  0  0  0  0  0  2  0  0  0  0  0  0
   -2.5557    1.8016   -6.6592 C   0  0  0  0  0  0  0  0  0  0  0  0
   -3.5490    2.7038   -6.2149 C   0  0  0  0  0  0  0  0  0  0  0  0
   -3.9176    2.7512   -4.8536 C   0  0  0  0  0  0  0  0  0  0  0  0
   -5.0216    3.5544   -4.3796 C   0  0  0  0  0  0  0  0  0  0  0  0
   -5.1472    4.1942   -3.1771 C   0  0  0  0  0  0  0  0  0  0  0  0
   -6.3862    4.8143   -2.9285 C   0  0  0  0  0  0  0  0  0  0  0  0
   -7.3136    4.6787   -3.9220 C   0  0  0  0  0  0  0  0  0  0  0  0
   -8.8887    5.4375   -3.8874 S   0  0  0  0  0  0  0  0  0  0  0  0
   -9.7539    4.5579   -5.2347 C   0  0  0  0  0  0  0  0  0  0  0  0
  -10.1297    3.1416   -4.8495 C   0  0  0  0  0  0  0  0  0  0  0  0
   -6.6195    3.7074   -5.3766 Se  0  0  0  0  0  2  0  0  0  0  0  0
   -3.1750    1.9414   -3.9959 C   0  0  0  0  0  0  0  0  0  0  0  0
   -3.3559    1.8699   -2.2638 S   0  0  0  0  0  0  0  0  0  0  0  0
   -4.0462    3.4981   -7.2795 C   0  0  0  0  0  0  0  0  0  0  0  0
   -3.4797    3.2160   -8.4850 C   0  0  0  0  0  0  0  0  0  0  0  0
   -2.2909    1.9404   -8.3729 S   0  0  0  0  0  0  0  0  0  0  0  0
   -3.7687    3.7893   -9.7733 C   0  0  0  0  0  0  0  0  0  0  0  0
   -5.0118    4.3042  -10.1333 C   0  0  0  0  0  0  0  0  0  0  0  0
   -5.3120    4.7146  -11.4566 C   0  0  0  0  0  0  0  0  0  0  0  0
   -6.6004    5.1220  -11.6398 N   0  0  0  0  0  0  0  0  0  0  0  0
   -7.2808    5.0473  -10.5685 C   0  0  0  0  0  0  0  0  0  0  0  0
   -6.4414    4.4496   -9.1542 S   0  0  0  0  0  0  0  0  0  0  0  0
   -4.3707    4.6163  -12.4903 C   0  0  0  0  0  0  0  0  0  0  0  0
   -3.0923    4.2335  -12.0997 C   0  0  0  0  0  0  0  0  0  0  0  0
   -2.7951    3.8007  -10.7852 C   0  0  0  0  0  0  0  0  0  0  0  0
   -1.5067    3.3977  -10.6047 N   0  0  0  0  0  0  0  0  0  0  0  0
   -0.8135    3.5186  -11.6650 C   0  0  0  0  0  0  0  0  0  0  0  0
   -1.6478    4.1381  -13.0692 S   0  0  0  0  0  0  0  0  0  0  0  0
   -4.7955    4.8414  -13.8624 C   0  0  0  0  0  0  0  0  0  0  0  0
   -4.5070    4.0430  -14.8956 C   0  0  0  0  0  0  0  0  0  0  0  0
   -3.7304    2.8144  -14.8420 C   0  0  0  0  0  0  0  0  0  0  0  0
   -2.8153    2.5110  -15.8425 C   0  0  0  0  0  0  0  0  0  0  0  0
   -1.9561    1.3878  -15.7929 C   0  0  0  0  0  0  0  0  0  0  0  0
   -1.1101    1.2912  -16.8598 N   0  0  0  0  0  0  0  0  0  0  0  0
   -1.2693    2.2479  -17.6838 C   0  0  0  0  0  0  0  0  0  0  0  0
   -2.4857    3.4351  -17.2784 S   0  0  0  0  0  0  0  0  0  0  0  0
   -1.9775    0.4832  -14.7170 C   0  0  0  0  0  0  0  0  0  0  0  0
   -2.9248    0.7626  -13.7320 C   0  0  0  0  0  0  0  0  0  0  0  0
   -3.8037    1.8777  -13.7991 C   0  0  0  0  0  0  0  0  0  0  0  0
   -4.6826    1.9647  -12.7593 N   0  0  0  0  0  0  0  0  0  0  0  0
   -4.5088    1.0374  -11.9059 C   0  0  0  0  0  0  0  0  0  0  0  0
   -3.2401   -0.1046  -12.2536 S   0  0  0  0  0  0  0  0  0  0  0  0
   -1.0359   -0.6198  -14.7450 C   0  0  0  0  0  0  0  0  0  0  0  0
   -0.9409   -1.6255  -13.8818 C   0  0  0  0  0  0  0  0  0  0  0  0
    8.9225   -5.0235    9.1641 H   0  0  0  0  0  0  0  0  0  0  0  0
    9.1830   -7.4706   13.9489 H   0  0  0  0  0  0  0  0  0  0  0  0
    6.5068   -0.9342    8.5925 H   0  0  0  0  0  0  0  0  0  0  0  0
    7.1708   -3.3141   14.6234 H   0  0  0  0  0  0  0  0  0  0  0  0
    4.8376   -2.7530   14.8092 H   0  0  0  0  0  0  0  0  0  0  0  0
    5.1570   -4.6926   11.5404 H   0  0  0  0  0  0  0  0  0  0  0  0
    4.5096   -6.4998   10.2843 H   0  0  0  0  0  0  0  0  0  0  0  0
    6.5236   -7.6490    9.1926 H   0  0  0  0  0  0  0  0  0  0  0  0
    9.1005   -5.5526    5.0641 H   0  0  0  0  0  0  0  0  0  0  0  0
    7.9184   -4.4761    5.8516 H   0  0  0  0  0  0  0  0  0  0  0  0
    7.1414   -5.1419    3.5539 H   0  0  0  0  0  0  0  0  0  0  0  0
    6.0534   -5.7828    4.7902 H   0  0  0  0  0  0  0  0  0  0  0  0
    7.2405   -6.8482    4.0196 H   0  0  0  0  0  0  0  0  0  0  0  0
    0.3314   -1.6369   12.5984 H   0  0  0  0  0  0  0  0  0  0  0  0
   -1.1345    0.4056   13.0217 H   0  0  0  0  0  0  0  0  0  0  0  0
   -2.3289    3.9306    9.2787 H   0  0  0  0  0  0  0  0  0  0  0  0
   -1.0026    2.8399    8.8081 H   0  0  0  0  0  0  0  0  0  0  0  0
   -3.9074    1.9914    9.3298 H   0  0  0  0  0  0  0  0  0  0  0  0
   -2.5999    0.9076    8.8364 H   0  0  0  0  0  0  0  0  0  0  0  0
   -3.1727    2.1612    7.7283 H   0  0  0  0  0  0  0  0  0  0  0  0
    0.1637   -1.2621    7.7846 H   0  0  0  0  0  0  0  0  0  0  0  0
   -0.3988   -0.4405    5.7062 H   0  0  0  0  0  0  0  0  0  0  0  0
   -0.0037    1.7110    4.9792 H   0  0  0  0  0  0  0  0  0  0  0  0
   -1.4623    3.4652    6.1406 H   0  0  0  0  0  0  0  0  0  0  0  0
   -6.5774    4.1753    5.0447 H   0  0  0  0  0  0  0  0  0  0  0  0
   -5.7374    3.1452    3.8597 H   0  0  0  0  0  0  0  0  0  0  0  0
   -6.3125    2.3954    6.7833 H   0  0  0  0  0  0  0  0  0  0  0  0
   -7.1959    1.7709    5.3829 H   0  0  0  0  0  0  0  0  0  0  0  0
   -5.4919    1.3610    5.6060 H   0  0  0  0  0  0  0  0  0  0  0  0
   -0.5811   -3.5650   -0.7920 H   0  0  0  0  0  0  0  0  0  0  0  0
    0.9881   -5.2929   -1.8367 H   0  0  0  0  0  0  0  0  0  0  0  0
    5.0488   -4.9342    0.8173 H   0  0  0  0  0  0  0  0  0  0  0  0
    5.7575   -6.4218    0.1420 H   0  0  0  0  0  0  0  0  0  0  0  0
    3.9868   -7.7793    1.2771 H   0  0  0  0  0  0  0  0  0  0  0  0
    3.2937   -6.3060    1.9679 H   0  0  0  0  0  0  0  0  0  0  0  0
    4.9043   -6.8351    2.4608 H   0  0  0  0  0  0  0  0  0  0  0  0
   -0.3422   -1.4032   -1.3657 H   0  0  0  0  0  0  0  0  0  0  0  0
   -0.7051   -0.2812   -3.4793 H   0  0  0  0  0  0  0  0  0  0  0  0
   -1.3654   -1.7491   -5.0281 H   0  0  0  0  0  0  0  0  0  0  0  0
    0.4011   -3.1460   -6.2354 H   0  0  0  0  0  0  0  0  0  0  0  0
    2.1198   -0.1457   -9.6559 H   0  0  0  0  0  0  0  0  0  0  0  0
    2.9797   -1.4404  -10.5251 H   0  0  0  0  0  0  0  0  0  0  0  0
    0.9020   -0.7956  -11.7686 H   0  0  0  0  0  0  0  0  0  0  0  0
    0.7859   -2.4582  -11.1738 H   0  0  0  0  0  0  0  0  0  0  0  0
   -0.0704   -1.1548  -10.3398 H   0  0  0  0  0  0  0  0  0  0  0  0
   -4.3377    4.2551   -2.4700 H   0  0  0  0  0  0  0  0  0  0  0  0
   -6.5955    5.3540   -2.0213 H   0  0  0  0  0  0  0  0  0  0  0  0
  -10.6379    5.1623   -5.4355 H   0  0  0  0  0  0  0  0  0  0  0  0
   -9.0960    4.5801   -6.1097 H   0  0  0  0  0  0  0  0  0  0  0  0
   -9.2386    2.5543   -4.6283 H   0  0  0  0  0  0  0  0  0  0  0  0
  -10.7695    3.1445   -3.9702 H   0  0  0  0  0  0  0  0  0  0  0  0
  -10.6608    2.6643   -5.6703 H   0  0  0  0  0  0  0  0  0  0  0  0
   -4.7408    4.3091   -7.1440 H   0  0  0  0  0  0  0  0  0  0  0  0
   -8.3123    5.3311  -10.4943 H   0  0  0  0  0  0  0  0  0  0  0  0
    0.2258    3.2633  -11.7292 H   0  0  0  0  0  0  0  0  0  0  0  0
   -5.4469    5.6911  -14.0099 H   0  0  0  0  0  0  0  0  0  0  0  0
   -4.8353    4.3276  -15.8875 H   0  0  0  0  0  0  0  0  0  0  0  0
   -0.7022    2.3529  -18.5880 H   0  0  0  0  0  0  0  0  0  0  0  0
   -5.0928    0.9340  -11.0122 H   0  0  0  0  0  0  0  0  0  0  0  0
   -0.3688   -0.5754  -15.5954 H   0  0  0  0  0  0  0  0  0  0  0  0
   -1.5841   -1.7340  -13.0262 H   0  0  0  0  0  0  0  0  0  0  0  0
   -0.2008   -2.3953  -14.0172 H   0  0  0  0  0  0  0  0  0  0  0  0
  1  2  2  0  0  0  0
  2  3  1  0  0  0  0
  3  4  1  0  0  0  0
  4  5  2  0  0  0  0
  5  6  1  0  0  0  0
  3  7  2  0  0  0  0
  7  8  1  0  0  0  0
  8  9  2  0  0  0  0
  9 10  1  0  0  0  0
 10 11  2  0  0  0  0
 11 12  1  0  0  0  0
  7 13  1  0  0  0  0
 13 14  2  0  0  0  0
 14 15  1  0  0  0  0
 15 16  2  0  0  0  0
 16 17  1  0  0  0  0
 17 18  2  0  0  0  0
 18 19  1  0  0  0  0
 19 20  2  0  0  0  0
 20 21  1  0  0  0  0
 21 22  2  0  0  0  0
 22 23  1  0  0  0  0
 23 24  1  0  0  0  0
 24 25  1  0  0  0  0
 22 26  1  0  0  0  0
 18 27  1  0  0  0  0
 27 28  2  0  0  0  0
 28 29  1  0  0  0  0
 29 30  1  0  0  0  0
 30 31  2  0  0  0  0
 31 32  1  0  0  0  0
 32 33  2  0  0  0  0
 33 34  1  0  0  0  0
 34 35  1  0  0  0  0
 35 36  1  0  0  0  0
 33 37  1  0  0  0  0
 29 38  2  0  0  0  0
 38 39  1  0  0  0  0
 28 40  1  0  0  0  0
 40 41  2  0  0  0  0
 41 42  1  0  0  0  0
 41 43  1  0  0  0  0
 43 44  2  0  0  0  0
 44 45  1  0  0  0  0
 45 46  2  0  0  0  0
 46 47  1  0  0  0  0
 47 48  2  0  0  0  0
 48 49  1  0  0  0  0
 49 50  2  0  0  0  0
 50 51  1  0  0  0  0
 51 52  1  0  0  0  0
 52 53  1  0  0  0  0
 50 54  1  0  0  0  0
 46 55  1  0  0  0  0
 55 56  2  0  0  0  0
 56 57  1  0  0  0  0
 57 58  1  0  0  0  0
 58 59  2  0  0  0  0
 59 60  1  0  0  0  0
 60 61  2  0  0  0  0
 61 62  1  0  0  0  0
 62 63  1  0  0  0  0
 63 64  1  0  0  0  0
 61 65  1  0  0  0  0
 57 66  2  0  0  0  0
 66 67  1  0  0  0  0
 56 68  1  0  0  0  0
 68 69  2  0  0  0  0
 69 70  1  0  0  0  0
 69 71  1  0  0  0  0
 71 72  2  0  0  0  0
 72 73  1  0  0  0  0
 73 74  2  0  0  0  0
 74 75  1  0  0  0  0
 75 76  2  0  0  0  0
 76 77  1  0  0  0  0
 77 78  2  0  0  0  0
 78 79  1  0  0  0  0
 79 80  1  0  0  0  0
 80 81  1  0  0  0  0
 78 82  1  0  0  0  0
 74 83  1  0  0  0  0
 83 84  2  0  0  0  0
 84 85  1  0  0  0  0
 85 86  1  0  0  0  0
 86 87  2  0  0  0  0
 87 88  1  0  0  0  0
 88 89  2  0  0  0  0
 89 90  1  0  0  0  0
 90 91  1  0  0  0  0
 91 92  1  0  0  0  0
 89 93  1  0  0  0  0
 85 94  2  0  0  0  0
 94 95  1  0  0  0  0
 84 96  1  0  0  0  0
 96 97  2  0  0  0  0
 97 98  1  0  0  0  0
 97 99  1  0  0  0  0
 99100  1  0  0  0  0
100101  2  0  0  0  0
101102  1  0  0  0  0
102103  2  0  0  0  0
103104  1  0  0  0  0
101105  1  0  0  0  0
105106  2  0  0  0  0
106107  1  0  0  0  0
107108  1  0  0  0  0
108109  2  0  0  0  0
109110  1  0  0  0  0
105111  1  0  0  0  0
111112  2  0  0  0  0
112113  1  0  0  0  0
113114  1  0  0  0  0
114115  2  0  0  0  0
115116  1  0  0  0  0
116117  2  0  0  0  0
117118  1  0  0  0  0
115119  1  0  0  0  0
119120  2  0  0  0  0
120121  1  0  0  0  0
121122  1  0  0  0  0
122123  2  0  0  0  0
123124  1  0  0  0  0
119125  1  0  0  0  0
125126  2  0  0  0  0
  9  1  1  0  0  0  0
 39 15  1  0  0  0  0
 67 43  1  0  0  0  0
 95 71  1  0  0  0  0
107 99  2  0  0  0  0
121113  2  0  0  0  0
  6  2  1  0  0  0  0
 12  8  1  0  0  0  0
 38 17  1  0  0  0  0
 66 45  1  0  0  0  0
 94 73  1  0  0  0  0
104100  1  0  0  0  0
110106  1  0  0  0  0
118114  1  0  0  0  0
124120  1  0  0  0  0
 26 19  1  0  0  0  0
 42 27  1  0  0  0  0
 54 47  1  0  0  0  0
 70 55  1  0  0  0  0
 82 75  1  0  0  0  0
 98 83  1  0  0  0  0
 37 30  1  0  0  0  0
 65 58  1  0  0  0  0
 93 86  1  0  0  0  0
  1127  1  0  0  0  0
  5128  1  0  0  0  0
 11129  1  0  0  0  0
 13130  1  0  0  0  0
 14131  1  0  0  0  0
 16132  1  0  0  0  0
 20133  1  0  0  0  0
 21134  1  0  0  0  0
 24135  1  0  0  0  0
 24136  1  0  0  0  0
 25137  1  0  0  0  0
 25138  1  0  0  0  0
 25139  1  0  0  0  0
 31140  1  0  0  0  0
 32141  1  0  0  0  0
 35142  1  0  0  0  0
 35143  1  0  0  0  0
 36144  1  0  0  0  0
 36145  1  0  0  0  0
 36146  1  0  0  0  0
 40147  1  0  0  0  0
 44148  1  0  0  0  0
 48149  1  0  0  0  0
 49150  1  0  0  0  0
 52151  1  0  0  0  0
 52152  1  0  0  0  0
 53153  1  0  0  0  0
 53154  1  0  0  0  0
 53155  1  0  0  0  0
 59156  1  0  0  0  0
 60157  1  0  0  0  0
 63158  1  0  0  0  0
 63159  1  0  0  0  0
 64160  1  0  0  0  0
 64161  1  0  0  0  0
 64162  1  0  0  0  0
 68163  1  0  0  0  0
 72164  1  0  0  0  0
 76165  1  0  0  0  0
 77166  1  0  0  0  0
 80167  1  0  0  0  0
 80168  1  0  0  0  0
 81169  1  0  0  0  0
 81170  1  0  0  0  0
 81171  1  0  0  0  0
 87172  1  0  0  0  0
 88173  1  0  0  0  0
 91174  1  0  0  0  0
 91175  1  0  0  0  0
 92176  1  0  0  0  0
 92177  1  0  0  0  0
 92178  1  0  0  0  0
 96179  1  0  0  0  0
103180  1  0  0  0  0
109181  1  0  0  0  0
111182  1  0  0  0  0
112183  1  0  0  0  0
117184  1  0  0  0  0
123185  1  0  0  0  0
125186  1  0  0  0  0
126187  1  0  0  0  0
126188  1  0  0  0  0
M  END
