
  xtb     03052209473D
 energy: -277.445660336719 gnorm: 0.000652505581 xtb: 6.4.1 (unknown)
191205  0     0  0            999 V2000
    3.2127   -0.0627   11.3838 C   0  0  0  0  0  0  0  0  0  0  0  0
    2.7576   -1.5304   12.1271 S   0  0  0  0  0  0  0  0  0  0  0  0
    1.1795   -1.5012   11.4042 C   0  0  0  0  0  0  0  0  0  0  0  0
    1.0119   -0.3346   10.6698 C   0  0  0  0  0  0  0  0  0  0  0  0
    2.1924    0.4768   10.6333 C   0  0  0  0  0  0  0  0  0  0  0  0
    2.2080    1.6719    9.8725 C   0  0  0  0  0  0  0  0  0  0  0  0
    1.0885    2.0807    9.2075 C   0  0  0  0  0  0  0  0  0  0  0  0
    1.0393    3.3416    8.3615 C   0  0  0  0  0  0  0  0  0  0  0  0
   -0.0037    4.3052    8.9452 C   0  0  0  0  0  0  0  0  0  0  0  0
    0.6522    2.9559    6.9272 C   0  0  0  0  0  0  0  0  0  0  0  0
    2.3858    4.0673    8.3158 C   0  0  0  0  0  0  0  0  0  0  0  0
   -0.0976    1.2989    9.3146 C   0  0  0  0  0  0  0  0  0  0  0  0
   -0.1492    0.1349   10.0142 C   0  0  0  0  0  0  0  0  0  0  0  0
    0.2702   -2.5931   11.6206 C   0  0  0  0  0  0  0  0  0  0  0  0
   -0.4240   -3.2651   10.6792 C   0  0  0  0  0  0  0  0  0  0  0  0
   -0.3095   -3.1866    9.2563 C   0  0  0  0  0  0  0  0  0  0  0  0
   -0.9859   -3.9785    8.3671 C   0  0  0  0  0  0  0  0  0  0  0  0
   -0.6011   -3.8027    7.0170 C   0  0  0  0  0  0  0  0  0  0  0  0
   -1.0776   -4.4703    5.8653 C   0  0  0  0  0  0  0  0  0  0  0  0
   -2.0012   -5.5780    5.9449 C   0  0  0  0  0  0  0  0  0  0  0  0
   -2.0743   -6.5366    6.9187 C   0  0  0  0  0  0  0  0  0  0  0  0
   -3.0844   -7.5053    6.7700 C   0  0  0  0  0  0  0  0  0  0  0  0
   -3.8647   -7.3624    5.6579 C   0  0  0  0  0  0  0  0  0  0  0  0
   -5.1455   -8.4787    5.2379 S   0  0  0  0  0  0  0  0  0  0  0  0
   -5.8410   -7.7177    3.7306 C   0  0  0  0  0  0  0  0  0  0  0  0
   -6.7479   -6.5435    4.0389 C   0  0  0  0  0  0  0  0  0  0  0  0
   -3.3151   -5.8854    4.6261 Se  0  0  0  0  0  2  0  0  0  0  0  0
   -0.5627   -4.0241    4.6540 C   0  0  0  0  0  0  0  0  0  0  0  0
    0.3950   -2.9904    4.5138 C   0  0  0  0  0  0  0  0  0  0  0  0
    0.8564   -2.3059    5.6650 C   0  0  0  0  0  0  0  0  0  0  0  0
    1.7401   -1.1668    5.5793 C   0  0  0  0  0  0  0  0  0  0  0  0
    1.8366   -0.2713    4.5446 C   0  0  0  0  0  0  0  0  0  0  0  0
    2.8069    0.7415    4.6708 C   0  0  0  0  0  0  0  0  0  0  0  0
    3.5222    0.6984    5.8324 C   0  0  0  0  0  0  0  0  0  0  0  0
    4.8243    1.7297    6.3865 S   0  0  0  0  0  0  0  0  0  0  0  0
    5.1324    2.8188    4.9490 C   0  0  0  0  0  0  0  0  0  0  0  0
    4.1707    3.9901    4.8862 C   0  0  0  0  0  0  0  0  0  0  0  0
    2.9614   -0.6967    6.9538 Se  0  0  0  0  0  2  0  0  0  0  0  0
    0.3720   -2.7834    6.8822 C   0  0  0  0  0  0  0  0  0  0  0  0
    0.8385   -2.1536    8.4307 S   0  0  0  0  0  0  0  0  0  0  0  0
    0.7964   -2.8344    3.1695 C   0  0  0  0  0  0  0  0  0  0  0  0
    0.1551   -3.6592    2.2787 C   0  0  0  0  0  0  0  0  0  0  0  0
   -0.9746   -4.7132    3.1092 S   0  0  0  0  0  0  0  0  0  0  0  0
    0.3451   -3.6823    0.8781 C   0  0  0  0  0  0  0  0  0  0  0  0
    1.4595   -2.5558    0.1715 S   0  0  0  0  0  0  0  0  0  0  0  0
    1.1814   -3.1250   -1.4512 C   0  0  0  0  0  0  0  0  0  0  0  0
    0.2285   -4.1612   -1.4380 C   0  0  0  0  0  0  0  0  0  0  0  0
   -0.2497   -4.4645   -0.1254 C   0  0  0  0  0  0  0  0  0  0  0  0
   -1.2573   -5.4317    0.0499 C   0  0  0  0  0  0  0  0  0  0  0  0
   -1.8137   -6.0805   -1.0197 C   0  0  0  0  0  0  0  0  0  0  0  0
   -2.9308   -7.0979   -0.8666 C   0  0  0  0  0  0  0  0  0  0  0  0
   -3.3335   -7.3171    0.5951 C   0  0  0  0  0  0  0  0  0  0  0  0
   -4.1645   -6.5972   -1.6317 C   0  0  0  0  0  0  0  0  0  0  0  0
   -2.4675   -8.4430   -1.4430 C   0  0  0  0  0  0  0  0  0  0  0  0
   -1.3358   -5.7679   -2.3136 C   0  0  0  0  0  0  0  0  0  0  0  0
   -0.3491   -4.8478   -2.5237 C   0  0  0  0  0  0  0  0  0  0  0  0
    1.8469   -2.4179   -2.4717 C   0  0  0  0  0  0  0  0  0  0  0  0
    1.9700   -2.7513   -3.7896 C   0  0  0  0  0  0  0  0  0  0  0  0
    2.4802   -1.9418   -4.8221 C   0  0  0  0  0  0  0  0  0  0  0  0
    2.2015   -2.5068   -6.4513 S   0  0  0  0  0  0  0  0  0  0  0  0
    2.6669   -1.0024   -7.1651 C   0  0  0  0  0  0  0  0  0  0  0  0
    3.1381   -0.1285   -6.1767 C   0  0  0  0  0  0  0  0  0  0  0  0
    3.0649   -0.6580   -4.8550 C   0  0  0  0  0  0  0  0  0  0  0  0
    3.6002    0.0953   -3.7932 C   0  0  0  0  0  0  0  0  0  0  0  0
    4.1446    1.3376   -4.0022 C   0  0  0  0  0  0  0  0  0  0  0  0
    4.7360    2.1735   -2.8785 C   0  0  0  0  0  0  0  0  0  0  0  0
    3.9950    3.5168   -2.8120 C   0  0  0  0  0  0  0  0  0  0  0  0
    6.2254    2.4121   -3.1650 C   0  0  0  0  0  0  0  0  0  0  0  0
    4.6171    1.4989   -1.5086 C   0  0  0  0  0  0  0  0  0  0  0  0
    4.1775    1.8538   -5.3192 C   0  0  0  0  0  0  0  0  0  0  0  0
    3.7028    1.1447   -6.3819 C   0  0  0  0  0  0  0  0  0  0  0  0
    2.5774   -0.7795   -8.5701 C   0  0  0  0  0  0  0  0  0  0  0  0
    2.0216    0.3164   -9.1555 C   0  0  0  0  0  0  0  0  0  0  0  0
    1.1745    1.2708   -8.5477 C   0  0  0  0  0  0  0  0  0  0  0  0
    0.5610    1.0849   -6.9386 S   0  0  0  0  0  0  0  0  0  0  0  0
   -0.6313    2.3388   -7.1241 C   0  0  0  0  0  0  0  0  0  0  0  0
   -0.4904    2.9554   -8.3800 C   0  0  0  0  0  0  0  0  0  0  0  0
    0.5272    2.3523   -9.1794 C   0  0  0  0  0  0  0  0  0  0  0  0
    0.8062    2.8544  -10.4636 C   0  0  0  0  0  0  0  0  0  0  0  0
    0.1206    3.9312  -10.9648 C   0  0  0  0  0  0  0  0  0  0  0  0
    0.3896    4.5177  -12.3405 C   0  0  0  0  0  0  0  0  0  0  0  0
    0.8531    5.9729  -12.1813 C   0  0  0  0  0  0  0  0  0  0  0  0
    1.4730    3.7532  -13.1062 C   0  0  0  0  0  0  0  0  0  0  0  0
   -0.9029    4.4695  -13.1677 C   0  0  0  0  0  0  0  0  0  0  0  0
   -0.8688    4.5323  -10.1519 C   0  0  0  0  0  0  0  0  0  0  0  0
   -1.1714    4.0692   -8.9038 C   0  0  0  0  0  0  0  0  0  0  0  0
   -1.5313    2.4614   -6.0460 C   0  0  0  0  0  0  0  0  0  0  0  0
   -2.7151    3.1326   -5.9890 C   0  0  0  0  0  0  0  0  0  0  0  0
   -3.6274    3.0938   -4.9094 C   0  0  0  0  0  0  0  0  0  0  0  0
   -4.8141    4.3591   -4.8166 S   0  0  0  0  0  0  0  0  0  0  0  0
   -5.4596    3.7974   -3.3123 C   0  0  0  0  0  0  0  0  0  0  0  0
   -4.8245    2.6129   -2.9272 C   0  0  0  0  0  0  0  0  0  0  0  0
   -3.7945    2.2025   -3.8328 C   0  0  0  0  0  0  0  0  0  0  0  0
   -3.1387    0.9732   -3.6219 C   0  0  0  0  0  0  0  0  0  0  0  0
   -3.4200    0.1904   -2.5329 C   0  0  0  0  0  0  0  0  0  0  0  0
   -2.7066   -1.1247   -2.2639 C   0  0  0  0  0  0  0  0  0  0  0  0
   -1.6733   -1.4674   -3.3408 C   0  0  0  0  0  0  0  0  0  0  0  0
   -1.9786   -1.0273   -0.9160 C   0  0  0  0  0  0  0  0  0  0  0  0
   -3.7296   -2.2682   -2.2099 C   0  0  0  0  0  0  0  0  0  0  0  0
   -4.4279    0.6225   -1.6369 C   0  0  0  0  0  0  0  0  0  0  0  0
   -5.1260    1.7766   -1.8311 C   0  0  0  0  0  0  0  0  0  0  0  0
   -6.4880    4.5845   -2.6987 C   0  0  0  0  0  0  0  0  0  0  0  0
   -6.8197    4.6141   -1.4069 C   0  0  0  0  0  0  0  0  0  0  0  0
    4.2041    0.3192   11.5249 H   0  0  0  0  0  0  0  0  0  0  0  0
    3.1286    2.2313    9.8483 H   0  0  0  0  0  0  0  0  0  0  0  0
   -0.9971    3.8651    8.9492 H   0  0  0  0  0  0  0  0  0  0  0  0
    0.2575    4.5655    9.9690 H   0  0  0  0  0  0  0  0  0  0  0  0
   -0.0394    5.2189    8.3552 H   0  0  0  0  0  0  0  0  0  0  0  0
   -0.3443    2.5255    6.8832 H   0  0  0  0  0  0  0  0  0  0  0  0
    0.6712    3.8334    6.2833 H   0  0  0  0  0  0  0  0  0  0  0  0
    1.3531    2.2199    6.5375 H   0  0  0  0  0  0  0  0  0  0  0  0
    3.1598    3.4222    7.9082 H   0  0  0  0  0  0  0  0  0  0  0  0
    2.6852    4.3979    9.3077 H   0  0  0  0  0  0  0  0  0  0  0  0
    2.3020    4.9470    7.6801 H   0  0  0  0  0  0  0  0  0  0  0  0
   -0.9927    1.6402    8.8174 H   0  0  0  0  0  0  0  0  0  0  0  0
   -1.0615   -0.4399   10.0771 H   0  0  0  0  0  0  0  0  0  0  0  0
    0.1821   -2.9311   12.6465 H   0  0  0  0  0  0  0  0  0  0  0  0
   -1.1054   -4.0380   11.0146 H   0  0  0  0  0  0  0  0  0  0  0  0
   -1.7643   -4.6509    8.6790 H   0  0  0  0  0  0  0  0  0  0  0  0
   -1.3652   -6.5835    7.7277 H   0  0  0  0  0  0  0  0  0  0  0  0
   -3.2295   -8.3081    7.4723 H   0  0  0  0  0  0  0  0  0  0  0  0
   -4.9955   -7.4231    3.1022 H   0  0  0  0  0  0  0  0  0  0  0  0
   -6.3897   -8.5231    3.2434 H   0  0  0  0  0  0  0  0  0  0  0  0
   -6.1924   -5.7535    4.5448 H   0  0  0  0  0  0  0  0  0  0  0  0
   -7.5693   -6.8551    4.6797 H   0  0  0  0  0  0  0  0  0  0  0  0
   -7.1551   -6.1395    3.1146 H   0  0  0  0  0  0  0  0  0  0  0  0
    1.1725   -0.2924    3.6978 H   0  0  0  0  0  0  0  0  0  0  0  0
    2.9483    1.4795    3.9004 H   0  0  0  0  0  0  0  0  0  0  0  0
    5.0898    2.1966    4.0563 H   0  0  0  0  0  0  0  0  0  0  0  0
    6.1562    3.1647    5.0905 H   0  0  0  0  0  0  0  0  0  0  0  0
    4.3823    4.5935    4.0053 H   0  0  0  0  0  0  0  0  0  0  0  0
    4.2805    4.6135    5.7699 H   0  0  0  0  0  0  0  0  0  0  0  0
    3.1404    3.6467    4.8360 H   0  0  0  0  0  0  0  0  0  0  0  0
    1.5766   -2.1686    2.8499 H   0  0  0  0  0  0  0  0  0  0  0  0
   -1.5942   -5.6377    1.0486 H   0  0  0  0  0  0  0  0  0  0  0  0
   -4.1344   -8.0529    0.6391 H   0  0  0  0  0  0  0  0  0  0  0  0
   -2.4983   -7.6931    1.1819 H   0  0  0  0  0  0  0  0  0  0  0  0
   -3.6947   -6.3941    1.0463 H   0  0  0  0  0  0  0  0  0  0  0  0
   -4.4892   -5.6375   -1.2343 H   0  0  0  0  0  0  0  0  0  0  0  0
   -4.9819   -7.3077   -1.5290 H   0  0  0  0  0  0  0  0  0  0  0  0
   -3.9543   -6.4732   -2.6905 H   0  0  0  0  0  0  0  0  0  0  0  0
   -1.5808   -8.7907   -0.9171 H   0  0  0  0  0  0  0  0  0  0  0  0
   -2.2280   -8.3626   -2.4997 H   0  0  0  0  0  0  0  0  0  0  0  0
   -3.2512   -9.1888   -1.3282 H   0  0  0  0  0  0  0  0  0  0  0  0
   -1.7643   -6.2643   -3.1708 H   0  0  0  0  0  0  0  0  0  0  0  0
   -0.0326   -4.6360   -3.5314 H   0  0  0  0  0  0  0  0  0  0  0  0
    2.2825   -1.4914   -2.1311 H   0  0  0  0  0  0  0  0  0  0  0  0
    1.5933   -3.7074   -4.1224 H   0  0  0  0  0  0  0  0  0  0  0  0
    3.6143   -0.3382   -2.8107 H   0  0  0  0  0  0  0  0  0  0  0  0
    4.1005    4.0778   -3.7361 H   0  0  0  0  0  0  0  0  0  0  0  0
    4.3927    4.1228   -2.0006 H   0  0  0  0  0  0  0  0  0  0  0  0
    2.9344    3.3525   -2.6330 H   0  0  0  0  0  0  0  0  0  0  0  0
    6.7515    1.4621   -3.2340 H   0  0  0  0  0  0  0  0  0  0  0  0
    6.6719    2.9964   -2.3631 H   0  0  0  0  0  0  0  0  0  0  0  0
    6.3703    2.9496   -4.0980 H   0  0  0  0  0  0  0  0  0  0  0  0
    3.5762    1.3191   -1.2485 H   0  0  0  0  0  0  0  0  0  0  0  0
    5.1603    0.5569   -1.4843 H   0  0  0  0  0  0  0  0  0  0  0  0
    5.0448    2.1497   -0.7484 H   0  0  0  0  0  0  0  0  0  0  0  0
    4.6095    2.8264   -5.4974 H   0  0  0  0  0  0  0  0  0  0  0  0
    3.7671    1.5379   -7.3854 H   0  0  0  0  0  0  0  0  0  0  0  0
    2.9406   -1.5728   -9.2111 H   0  0  0  0  0  0  0  0  0  0  0  0
    2.1217    0.4118  -10.2288 H   0  0  0  0  0  0  0  0  0  0  0  0
    1.5863    2.3781  -11.0334 H   0  0  0  0  0  0  0  0  0  0  0  0
    1.7565    6.0155  -11.5762 H   0  0  0  0  0  0  0  0  0  0  0  0
    1.0696    6.4048  -13.1561 H   0  0  0  0  0  0  0  0  0  0  0  0
    0.0930    6.5828  -11.7010 H   0  0  0  0  0  0  0  0  0  0  0  0
    2.4243    3.7885  -12.5800 H   0  0  0  0  0  0  0  0  0  0  0  0
    1.6146    4.2084  -14.0844 H   0  0  0  0  0  0  0  0  0  0  0  0
    1.1860    2.7150  -13.2578 H   0  0  0  0  0  0  0  0  0  0  0  0
   -1.2494    3.4425  -13.2640 H   0  0  0  0  0  0  0  0  0  0  0  0
   -1.6941    5.0537  -12.7063 H   0  0  0  0  0  0  0  0  0  0  0  0
   -0.7236    4.8683  -14.1639 H   0  0  0  0  0  0  0  0  0  0  0  0
   -1.4029    5.3939  -10.5221 H   0  0  0  0  0  0  0  0  0  0  0  0
   -1.9157    4.5761   -8.3119 H   0  0  0  0  0  0  0  0  0  0  0  0
   -1.2301    1.8949   -5.1765 H   0  0  0  0  0  0  0  0  0  0  0  0
   -3.0114    3.7666   -6.8118 H   0  0  0  0  0  0  0  0  0  0  0  0
   -2.4356    0.6363   -4.3606 H   0  0  0  0  0  0  0  0  0  0  0  0
   -2.1420   -1.5714   -4.3168 H   0  0  0  0  0  0  0  0  0  0  0  0
   -1.2012   -2.4145   -3.0934 H   0  0  0  0  0  0  0  0  0  0  0  0
   -0.8924   -0.7121   -3.3983 H   0  0  0  0  0  0  0  0  0  0  0  0
   -1.5071   -1.9788   -0.6831 H   0  0  0  0  0  0  0  0  0  0  0  0
   -2.6639   -0.7833   -0.1087 H   0  0  0  0  0  0  0  0  0  0  0  0
   -1.2096   -0.2585   -0.9561 H   0  0  0  0  0  0  0  0  0  0  0  0
   -4.2798   -2.3272   -3.1468 H   0  0  0  0  0  0  0  0  0  0  0  0
   -3.2159   -3.2144   -2.0490 H   0  0  0  0  0  0  0  0  0  0  0  0
   -4.4435   -2.1281   -1.4026 H   0  0  0  0  0  0  0  0  0  0  0  0
   -4.6787    0.0046   -0.7881 H   0  0  0  0  0  0  0  0  0  0  0  0
   -5.9340    2.0375   -1.1674 H   0  0  0  0  0  0  0  0  0  0  0  0
   -7.0025    5.2493   -3.3833 H   0  0  0  0  0  0  0  0  0  0  0  0
   -7.6121    5.2523   -1.0570 H   0  0  0  0  0  0  0  0  0  0  0  0
   -6.3065    4.0353   -0.6607 H   0  0  0  0  0  0  0  0  0  0  0  0
  1  2  1  0  0  0  0
  2  3  1  0  0  0  0
  3  4  2  0  0  0  0
  4  5  1  0  0  0  0
  5  6  1  0  0  0  0
  6  7  2  0  0  0  0
  7  8  1  0  0  0  0
  8  9  1  0  0  0  0
  8 10  1  0  0  0  0
  8 11  1  0  0  0  0
  7 12  1  0  0  0  0
 12 13  2  0  0  0  0
  3 14  1  0  0  0  0
 14 15  2  0  0  0  0
 15 16  1  0  0  0  0
 16 17  2  0  0  0  0
 17 18  1  0  0  0  0
 18 19  2  0  0  0  0
 19 20  1  0  0  0  0
 20 21  2  0  0  0  0
 21 22  1  0  0  0  0
 22 23  2  0  0  0  0
 23 24  1  0  0  0  0
 24 25  1  0  0  0  0
 25 26  1  0  0  0  0
 23 27  1  0  0  0  0
 19 28  1  0  0  0  0
 28 29  2  0  0  0  0
 29 30  1  0  0  0  0
 30 31  1  0  0  0  0
 31 32  2  0  0  0  0
 32 33  1  0  0  0  0
 33 34  2  0  0  0  0
 34 35  1  0  0  0  0
 35 36  1  0  0  0  0
 36 37  1  0  0  0  0
 34 38  1  0  0  0  0
 30 39  2  0  0  0  0
 39 40  1  0  0  0  0
 29 41  1  0  0  0  0
 41 42  2  0  0  0  0
 42 43  1  0  0  0  0
 42 44  1  0  0  0  0
 44 45  1  0  0  0  0
 45 46  1  0  0  0  0
 46 47  2  0  0  0  0
 47 48  1  0  0  0  0
 48 49  1  0  0  0  0
 49 50  2  0  0  0  0
 50 51  1  0  0  0  0
 51 52  1  0  0  0  0
 51 53  1  0  0  0  0
 51 54  1  0  0  0  0
 50 55  1  0  0  0  0
 55 56  2  0  0  0  0
 46 57  1  0  0  0  0
 57 58  2  0  0  0  0
 58 59  1  0  0  0  0
 59 60  1  0  0  0  0
 60 61  1  0  0  0  0
 61 62  2  0  0  0  0
 62 63  1  0  0  0  0
 63 64  1  0  0  0  0
 64 65  2  0  0  0  0
 65 66  1  0  0  0  0
 66 67  1  0  0  0  0
 66 68  1  0  0  0  0
 66 69  1  0  0  0  0
 65 70  1  0  0  0  0
 70 71  2  0  0  0  0
 61 72  1  0  0  0  0
 72 73  2  0  0  0  0
 73 74  1  0  0  0  0
 74 75  1  0  0  0  0
 75 76  1  0  0  0  0
 76 77  2  0  0  0  0
 77 78  1  0  0  0  0
 78 79  1  0  0  0  0
 79 80  2  0  0  0  0
 80 81  1  0  0  0  0
 81 82  1  0  0  0  0
 81 83  1  0  0  0  0
 81 84  1  0  0  0  0
 80 85  1  0  0  0  0
 85 86  2  0  0  0  0
 76 87  1  0  0  0  0
 87 88  2  0  0  0  0
 88 89  1  0  0  0  0
 89 90  1  0  0  0  0
 90 91  1  0  0  0  0
 91 92  2  0  0  0  0
 92 93  1  0  0  0  0
 93 94  1  0  0  0  0
 94 95  2  0  0  0  0
 95 96  1  0  0  0  0
 96 97  1  0  0  0  0
 96 98  1  0  0  0  0
 96 99  1  0  0  0  0
 95100  1  0  0  0  0
100101  2  0  0  0  0
 91102  1  0  0  0  0
102103  2  0  0  0  0
  5  1  2  0  0  0  0
 40 16  1  0  0  0  0
 48 44  2  0  0  0  0
 63 59  2  0  0  0  0
 78 74  2  0  0  0  0
 93 89  2  0  0  0  0
 13  4  1  0  0  0  0
 39 18  1  0  0  0  0
 56 47  1  0  0  0  0
 71 62  1  0  0  0  0
 86 77  1  0  0  0  0
101 92  1  0  0  0  0
 27 20  1  0  0  0  0
 43 28  1  0  0  0  0
 38 31  1  0  0  0  0
  1104  1  0  0  0  0
  6105  1  0  0  0  0
  9106  1  0  0  0  0
  9107  1  0  0  0  0
  9108  1  0  0  0  0
 10109  1  0  0  0  0
 10110  1  0  0  0  0
 10111  1  0  0  0  0
 11112  1  0  0  0  0
 11113  1  0  0  0  0
 11114  1  0  0  0  0
 12115  1  0  0  0  0
 13116  1  0  0  0  0
 14117  1  0  0  0  0
 15118  1  0  0  0  0
 17119  1  0  0  0  0
 21120  1  0  0  0  0
 22121  1  0  0  0  0
 25122  1  0  0  0  0
 25123  1  0  0  0  0
 26124  1  0  0  0  0
 26125  1  0  0  0  0
 26126  1  0  0  0  0
 32127  1  0  0  0  0
 33128  1  0  0  0  0
 36129  1  0  0  0  0
 36130  1  0  0  0  0
 37131  1  0  0  0  0
 37132  1  0  0  0  0
 37133  1  0  0  0  0
 41134  1  0  0  0  0
 49135  1  0  0  0  0
 52136  1  0  0  0  0
 52137  1  0  0  0  0
 52138  1  0  0  0  0
 53139  1  0  0  0  0
 53140  1  0  0  0  0
 53141  1  0  0  0  0
 54142  1  0  0  0  0
 54143  1  0  0  0  0
 54144  1  0  0  0  0
 55145  1  0  0  0  0
 56146  1  0  0  0  0
 57147  1  0  0  0  0
 58148  1  0  0  0  0
 64149  1  0  0  0  0
 67150  1  0  0  0  0
 67151  1  0  0  0  0
 67152  1  0  0  0  0
 68153  1  0  0  0  0
 68154  1  0  0  0  0
 68155  1  0  0  0  0
 69156  1  0  0  0  0
 69157  1  0  0  0  0
 69158  1  0  0  0  0
 70159  1  0  0  0  0
 71160  1  0  0  0  0
 72161  1  0  0  0  0
 73162  1  0  0  0  0
 79163  1  0  0  0  0
 82164  1  0  0  0  0
 82165  1  0  0  0  0
 82166  1  0  0  0  0
 83167  1  0  0  0  0
 83168  1  0  0  0  0
 83169  1  0  0  0  0
 84170  1  0  0  0  0
 84171  1  0  0  0  0
 84172  1  0  0  0  0
 85173  1  0  0  0  0
 86174  1  0  0  0  0
 87175  1  0  0  0  0
 88176  1  0  0  0  0
 94177  1  0  0  0  0
 97178  1  0  0  0  0
 97179  1  0  0  0  0
 97180  1  0  0  0  0
 98181  1  0  0  0  0
 98182  1  0  0  0  0
 98183  1  0  0  0  0
 99184  1  0  0  0  0
 99185  1  0  0  0  0
 99186  1  0  0  0  0
100187  1  0  0  0  0
101188  1  0  0  0  0
102189  1  0  0  0  0
103190  1  0  0  0  0
103191  1  0  0  0  0
M  END
