250

C          2.61750        1.34780        7.86170
C          2.99780        0.66320        6.76590
C          2.00420       -0.25370        6.30500
C          2.05190       -1.06120        5.15010
C          3.25400       -0.95030        4.32870
C          4.51140       -1.25870        4.75560
C          5.56630       -0.69830        4.00660
C          5.17040        0.08230        2.96400
S          6.25670        1.08350        2.01700
C          5.41640        2.70060        2.25690
C          6.33220        3.83070        1.83490
Se         3.30420        0.03250        2.71910
C          0.93470       -1.83890        4.89070
C         -0.19990       -1.82740        5.73670
C         -0.28650       -0.96980        6.84430
C         -1.51950       -0.79850        7.58310
C         -1.67590       -0.56930        8.92100
C         -2.98730       -0.28280        9.35160
C         -3.92350       -0.24570        8.36220
S         -5.63040        0.06450        8.61920
C         -5.93260        1.40970        7.40530
C         -6.26980        0.88920        6.02350
Se        -3.16910       -0.66760        6.68970
C          0.85080       -0.21580        7.11800
S          1.03040        0.93450        8.41470
C         -1.18860       -2.74560        5.30640
C         -0.86770       -3.36870        4.14570
S          0.71590       -2.94050        3.54490
N         -1.66180       -4.29860        3.50420
C         -1.17690       -5.33360        2.75100
O         -0.02240       -5.46940        2.41820
C         -2.34500       -6.24920        2.39300
C         -3.51280       -5.54080        3.00810
C         -3.05900       -4.34900        3.58270
C         -3.94080       -3.39190        4.03750
C         -5.30760       -3.65640        3.96970
C         -5.75240       -4.86620        3.45260
C         -4.86250       -5.80930        2.95210
C         -6.26130       -2.60430        4.44340
C         -2.45540       -6.26510        0.85590
C         -3.00690       -4.90410        0.45450
O         -2.55300       -3.82190        0.74650
N         -4.19290       -5.12140       -0.22420
C         -4.43860       -6.48150       -0.38750
C         -3.44300       -7.21500        0.26600
C         -3.48990       -8.59070        0.25410
C         -4.53730       -9.21560       -0.41210
C         -5.52540       -8.48740       -1.06330
C         -6.65190       -9.17970       -1.76710
C         -5.47920       -7.09390       -1.05130
C         -4.91090       -4.03670       -0.68360
C         -5.05250       -2.91200        0.05550
C         -5.41270       -1.78240       -0.71630
C         -5.34140       -0.45070       -0.27600
C         -4.72540       -0.11640        0.99310
C         -4.96470        0.99060        1.76220
C         -4.03270        1.23360        2.78760
C         -2.99400        0.35320        2.83440
S         -1.67270        0.42440        3.98980
C         -0.28820        1.07180        2.96670
C         -0.09190        0.33380        1.66320
Se        -3.17430       -1.03540        1.57590
C         -5.60070        0.51590       -1.24080
C         -5.88860        0.20590       -2.59230
C         -5.98230       -1.13920       -3.02180
C         -6.31480       -1.47670       -4.38630
C         -5.85680       -2.51930       -5.14350
C         -6.43290       -2.65890       -6.42020
C         -7.39240       -1.73750       -6.73060
S         -8.17930       -1.65510       -8.28970
C         -9.60770       -0.57520       -7.92960
C        -10.67340       -1.28360       -7.11870
Se        -7.63350       -0.50550       -5.32710
C         -5.67690       -2.10670       -2.06370
S         -5.39950       -3.81350       -2.35340
C         -5.74210        1.34710       -3.42660
C         -5.35260        2.47360       -2.76220
S         -5.31710        2.22090       -1.02190
C         -4.63030        3.58440       -3.28750
C         -3.91620        4.48390       -2.54880
C         -2.79010        5.01330       -3.22710
C         -1.70420        5.68940       -2.62080
C         -1.88090        6.44860       -1.41470
C         -0.96550        6.81640       -0.46230
C         -1.42990        7.68370        0.54150
C         -2.73720        8.06800        0.42560
S         -3.55860        9.06610        1.60050
C         -5.01280        9.62970        0.64870
C         -4.64550       10.65060       -0.40860
Se        -3.55370        7.26080       -1.06560
C         -0.47350        5.48490       -3.25620
C         -0.36740        4.92080       -4.54540
C         -1.52140        4.58460       -5.29580
C         -1.42370        4.21200       -6.68160
C         -0.49470        4.68710       -7.57370
C         -0.58340        4.19860       -8.88960
C         -1.59240        3.30180       -9.09500
S         -2.04700        2.47730      -10.57030
C         -0.48130        2.46890      -11.51760
C          0.59130        1.63430      -10.84670
Se        -2.58810        2.98720       -7.53450
C         -2.69150        4.51330       -4.54480
S         -4.09560        3.56490       -4.96780
C          0.95730        4.50220       -4.84130
C          1.81340        4.70370       -3.80510
S          1.09190        5.58490       -2.48600
N          3.02790        4.06810       -3.59190
C          3.32760        3.58850       -2.32240
O          3.00640        4.12380       -1.29440
C          4.07210        2.27330       -2.49890
C          4.46000        2.31160       -3.94630
C          3.76560        3.36460       -4.55320
C          3.89960        3.64230       -5.89820
C          4.72670        2.82700       -6.66630
C          5.38540        1.75960       -6.06770
C          5.25490        1.48770       -4.71260
C          4.87720        3.08370       -8.13470
C          5.11270        1.99910       -1.39400
C          4.63760        0.80270       -0.57230
O          3.61680        0.73000        0.07680
N          5.53840       -0.21890       -0.75710
C          6.66270        0.23070       -1.45130
C          6.46220        1.55400       -1.85680
C          7.44830        2.21420       -2.55360
C          8.62530        1.53530       -2.84370
C          8.82330        0.21870       -2.44760
C         10.09410       -0.50230       -2.77790
C          7.82530       -0.44950       -1.73950
C          5.39330       -1.41760       -0.07530
C          4.25330       -2.14000       -0.01180
C          4.30930       -3.19350        0.94360
C          3.31120       -4.13870        1.24150
C          2.02710       -4.08180        0.58040
C          1.30600       -2.95690        0.28460
C          0.17040       -3.14430       -0.52380
C         -0.03670       -4.43290       -0.92570
S         -1.35130       -4.90880       -1.99030
C         -0.59750       -6.28740       -2.93850
C         -0.75560       -7.63040       -2.25370
Se         1.20740       -5.60220       -0.13270
C          3.66330       -5.13270        2.15250
C          4.89150       -5.14530        2.85180
C          5.84680       -4.13080        2.63160
C          7.02100       -3.99810        3.46000
C          7.11270       -4.25990        4.80140
C          8.35250       -3.98120        5.40650
C          9.30810       -3.48770        4.56450
S         10.95170       -3.13970        5.05340
C         11.49210       -2.01850        3.71520
C         10.82660       -0.66000        3.79620
Se         8.65260       -3.33030        2.80170
C          5.55260       -3.23040        1.61040
S          6.63700       -1.99940        1.01600
C          5.00350       -6.29720        3.68320
C          3.91730       -7.09570        3.61960
S          2.67470       -6.49650        2.57940
H          3.17150        2.08770        8.40550
H          3.94950        0.79420        6.28350
H          4.68920       -1.83900        5.64640
H          6.60400       -0.82060        4.27180
H          4.49530        2.67520        1.66960
H          5.16600        2.77140        3.31630
H          7.20730        3.86960        2.48000
H          5.80130        4.77790        1.90230
H          6.67420        3.69210        0.81100
H         -0.85020       -0.61560        9.61110
H         -3.23360       -0.08460       10.38060
H         -6.76370        1.97400        7.82730
H         -5.03860        2.03280        7.39610
H         -6.48990        1.72180        5.35810
H         -7.13670        0.23370        6.06470
H         -5.42800        0.33190        5.60610
H         -2.07030       -2.98200        5.87510
H         -2.17000       -7.26180        2.76410
H         -3.60290       -2.43540        4.41180
H         -6.81250       -5.06770        3.41170
H         -5.22460       -6.72710        2.51290
H         -7.28590       -2.96580        4.43540
H         -6.00190       -2.29210        5.45490
H         -6.19420       -1.72630        3.79990
H         -1.44420       -6.41440        0.45880
H         -2.72740       -9.17440        0.74730
H         -4.58240      -10.29430       -0.42700
H         -6.81620       -8.74050       -2.74900
H         -7.57340       -9.06950       -1.19550
H         -6.44690      -10.24030       -1.88450
H         -6.23750       -6.51340       -1.55390
H         -4.88700       -2.90100        1.11790
H         -5.81660        1.62970        1.59830
H         -4.10580        2.06930        3.46270
H          0.57720        0.95300        3.62300
H         -0.47600        2.13340        2.80750
H          0.88070        0.59340        1.24190
H         -0.12880       -0.74480        1.82460
H         -0.86070        0.60530        0.93930
H         -5.07570       -3.17760       -4.80430
H         -6.14490       -3.43530       -7.10760
H         -9.98390       -0.27950       -8.90840
H         -9.22170        0.30820       -7.41100
H        -11.51410       -0.61430       -6.94900
H        -10.27770       -1.59220       -6.15130
H        -11.02700       -2.16650       -7.64600
H         -5.77140        1.31290       -4.50320
H         -4.08280        4.60270       -1.49040
H          0.04600        6.45040       -0.45670
H         -0.80270        8.03320        1.34350
H         -5.47630        8.73990        0.21060
H         -5.68460       10.05340        1.39440
H         -4.16750       11.51440        0.04750
H         -3.95990       10.21850       -1.13730
H         -5.54120       10.97900       -0.93170
H          0.22980        5.43490       -7.29700
H          0.08510        4.53110       -9.66530
H         -0.76390        2.04580      -12.48110
H         -0.16840        3.50170      -11.66520
H          0.24900        0.60950      -10.72280
H          1.49250        1.63090      -11.45700
H          0.83510        2.03670       -9.86530
H          1.20540        3.93330       -5.71760
H          3.27530        1.51900       -2.39050
H          3.38880        4.48030       -6.34620
H          6.01680        1.12610       -6.67230
H          5.77280        0.64910       -4.27480
H          5.87970        2.83080       -8.47100
H          4.67700        4.12590       -8.37030
H          4.17110        2.46780       -8.69270
H          5.15490        2.88570       -0.75380
H          7.31110        3.23710       -2.87020
H          9.40620        2.04550       -3.38750
H         10.48210       -1.01070       -1.89760
H          9.90930       -1.25680       -3.54260
H         10.84870        0.18540       -3.14970
H          7.97040       -1.46950       -1.41900
H          3.40040       -1.93650       -0.63110
H          1.58860       -1.98740        0.66250
H         -0.47890       -2.33890       -0.82220
H         -1.11510       -6.27460       -3.89700
H          0.45250       -6.03270       -3.08620
H         -0.35320       -8.41570       -2.89040
H         -1.80520       -7.83980       -2.05780
H         -0.20950       -7.64510       -1.30790
H          6.26480       -4.59290        5.37590
H          8.53510       -4.12690        6.45750
H         11.27260       -2.52130        2.76770
H         12.57180       -1.94150        3.83930
H         11.01940       -0.19970        4.76250
H          9.74860       -0.75020        3.66070
H         11.21360       -0.01170        3.01300
H          5.88010       -6.53260        4.25840
H          3.75750       -8.02440        4.13220
