272

C         -5.34150       -5.32350       -2.75370
C         -4.53270       -6.25580       -2.21300
C         -4.09030       -5.91910       -0.89880
C         -3.16970       -6.61550       -0.09490
C         -2.42970       -7.76660       -0.56820
C         -2.09090       -8.88830        0.13180
C         -1.23940       -9.79680       -0.52950
C         -0.84550       -9.41950       -1.77960
S          0.13550      -10.40780       -2.83690
C          0.82210       -9.14530       -3.96570
C          1.84060       -8.25730       -3.28080
Se        -1.61770       -7.77330       -2.27340
C         -2.91210       -6.07000        1.15910
C         -3.49270       -4.86420        1.61610
C         -4.35140       -4.12140        0.77960
C         -4.79830       -2.78740        1.10910
C         -5.98220       -2.19100        0.76620
C         -6.09510       -0.82010        1.06350
C         -4.99240       -0.26280        1.64650
S         -4.89260        1.40600        2.15590
C         -3.08830        1.60530        2.34110
C         -2.37840        1.63810        1.00470
Se        -3.64540       -1.53960        1.92610
C         -4.64580       -4.69790       -0.45560
S         -5.64060       -3.98350       -1.70190
C         -3.02560       -4.51550        2.90650
C         -2.07230       -5.36290        3.39690
S         -1.75000       -6.68750        2.30250
C         -1.32340       -5.19380        4.60010
C         -1.51390       -4.21920        5.53530
C         -0.51620       -4.17610        6.53790
C         -0.36390       -3.22100        7.56680
C         -1.34060       -2.17910        7.80470
C         -1.09790       -0.88010        8.16360
C         -2.22290       -0.04000        8.25980
C         -3.41880       -0.63960        7.99540
S         -4.96860        0.16640        8.03690
C         -5.82690       -0.71840        6.68440
C         -5.20710       -0.43270        5.33280
Se        -3.19600       -2.47290        7.64330
C          0.83770       -3.28030        8.26880
C          1.86970       -4.21800        8.01090
C          1.67720       -5.21440        7.03040
C          2.68820       -6.20330        6.71820
C          4.03340       -6.02160        6.55980
C          4.78510       -7.17480        6.26350
C          4.05950       -8.32960        6.17970
S          4.75120       -9.89750        5.84360
C          3.23230      -10.91710        5.77770
C          3.57950      -12.35530        5.45470
Se         2.22570       -8.01570        6.47690
C          0.47800       -5.16070        6.32590
S          0.09790       -6.15740        4.94260
C          3.04490       -3.93870        8.75980
C          2.94270       -2.82480        9.54060
S          1.32100       -2.15120        9.49840
C          3.95160       -1.92730       10.01770
C          5.17950       -1.70480        9.45920
C          5.61350       -0.35640        9.56770
C          6.63320        0.25720        8.79430
C          7.73180       -0.50510        8.28190
C          8.23990       -1.66210        8.82510
C          9.34640       -2.22200        8.16980
C          9.77670       -1.53260        7.06770
S         11.08130       -2.08130        6.04500
C         11.43300       -0.58270        5.06110
C         12.15090        0.47820        5.86990
Se         8.71920       -0.00350        6.75580
C          6.37940        1.59270        8.46800
C          5.35100        2.35290        9.06360
C          4.57640        1.82130       10.12150
C          3.60420        2.63200       10.80130
C          3.69940        3.97760       11.05460
C          2.58220        4.57780       11.65840
C          1.53650        3.73060       11.90830
S          0.05280        4.23800       12.67910
C         -0.98090        2.73750       12.53780
C         -1.52790        2.53890       11.13900
Se         1.93940        1.96480       11.38790
C          4.67340        0.43970       10.25950
S          3.42670       -0.54810       10.97590
C          4.97940        3.46100        8.25810
C          5.67510        3.55370        7.09380
S          7.01110        2.40230        7.05060
C          5.10180        4.05530        5.86850
C          3.86250        3.62270        5.50640
C          3.48660        3.98260        4.19350
C          2.33260        3.56680        3.50750
C          1.35820        2.65530        4.07410
C          0.80090        2.62070        5.31960
C         -0.03580        1.51690        5.59760
C         -0.15270        0.61020        4.58490
S         -1.15920       -0.82380        4.61800
C         -0.41090       -1.80780        3.27520
C          0.95510       -2.34420        3.64210
Se         0.80480        1.15890        3.06110
C          2.25750        3.96110        2.18060
C          3.22740        4.73920        1.50990
C          4.37340        5.17520        2.21470
C          5.37210        6.02420        1.60600
C          6.72380        6.02420        1.81390
C          7.45280        7.03450        1.15950
C          6.70450        7.90710        0.42070
S          7.38040        9.29550       -0.40000
C          5.96710        9.87670       -1.40050
C          5.73250        9.01280       -2.62300
Se         4.87770        7.46340        0.48710
C          4.48440        4.74390        3.54060
S          5.85850        4.98860        4.60310
C          2.92770        4.85070        0.11990
C          1.78950        4.19800       -0.24850
S          0.97160        3.48150        1.12720
C          1.19690        3.88220       -1.50920
C          0.32060        2.84860       -1.66760
C         -0.14690        2.67310       -2.98600
C         -1.03900        1.68260       -3.44400
C         -1.44180        0.56550       -2.61000
C         -2.64290       -0.09380       -2.60470
C         -2.71720       -1.23950       -1.78480
C         -1.56270       -1.55190       -1.13300
S         -1.27640       -2.92970       -0.07780
C         -1.06370       -4.25030       -1.33110
C          0.13460       -4.02410       -2.22590
Se        -0.20020       -0.31200       -1.48880
C         -1.42650        1.79280       -4.77570
C         -0.92470        2.79100       -5.64800
C         -0.00700        3.76060       -5.18750
C          0.49300        4.79430       -6.06630
C         -0.21530        5.51400       -6.98780
C          0.52230        6.43920       -7.75010
C          1.85970        6.48010       -7.47280
S          2.99030        7.47090       -8.36870
C          4.51730        7.29570       -7.38620
C          4.47900        8.10970       -6.10920
Se         2.31360        5.27560       -6.09430
C          0.37090        3.66040       -3.85410
S          1.48150        4.72380       -3.01660
C         -1.40200        2.61860       -6.96930
C         -2.25620        1.56450       -7.11480
S         -2.50660        0.71030       -5.61020
C         -2.92720        1.16930       -8.31140
C         -2.72300        1.67130       -9.56260
C         -3.58550        1.12300      -10.54440
C         -3.61530        1.41120      -11.91860
C         -2.72380        2.43080      -12.48250
C         -2.63670        3.69400      -11.90060
C         -1.75220        4.64100      -12.37590
C         -0.91290        4.35660      -13.44740
S          0.27770        5.47230      -14.11380
C          0.63720        6.60230      -12.72200
C          1.29900        5.89310      -11.55670
C         -1.04450        3.10510      -14.05120
F         -0.26770        2.80310      -15.10920
C         -1.92700        2.15300      -13.59040
C         -4.51980        0.68870      -12.68300
C         -5.39370       -0.28310      -12.13590
C         -5.36170       -0.57130      -10.76300
C         -6.22240       -1.59550      -10.15910
C         -6.97010       -1.31760       -9.01860
C         -7.75540       -2.28580       -8.42440
C         -7.81220       -3.57400       -8.94330
S         -8.77840       -4.89300       -8.28500
C         -9.11440       -4.37560       -6.56590
C         -7.85960       -4.37090       -5.71420
C         -7.06730       -3.83570      -10.09460
C         -6.28540       -2.87810      -10.70050
F         -7.10350       -5.07130      -10.63280
C         -4.45820        0.15160       -9.99750
S         -4.19560       -0.03770       -8.28230
C         -6.26430       -0.82130      -13.13010
C         -6.05170       -0.29750      -14.35410
S         -4.78780        0.88330      -14.39580
H         -5.80740       -5.32920       -3.71900
H         -4.27270       -7.17170       -2.71610
H         -2.46710       -9.08050        1.12250
H         -0.90990      -10.71830       -0.08190
H          1.27230       -9.71510       -4.77770
H         -0.02220       -8.56860       -4.35800
H          2.23910       -7.53550       -3.99090
H          2.66070       -8.85380       -2.88840
H          1.38300       -7.71300       -2.45450
H         -6.79410       -2.73890        0.31800
H         -6.97630       -0.24470        0.83760
H         -2.95860        2.54180        2.88250
H         -2.74030        0.77860        2.96910
H         -2.55840        0.71670        0.44840
H         -1.30580        1.73610        1.17110
H         -2.72100        2.47820        0.40490
H         -3.39640       -3.67200        3.46480
H         -2.31650       -3.50750        5.46140
H         -0.10140       -0.49070        8.28100
H         -2.15420        1.00920        8.49170
H         -5.79560       -1.78460        6.92990
H         -6.85750       -0.36950        6.73350
H         -4.16060       -0.74270        5.31080
H         -5.25560        0.63000        5.10720
H         -5.74530       -0.97700        4.55780
H          4.48760       -5.04560        6.59870
H          5.84960       -7.15420        6.10560
H          2.58540      -10.48000        5.01150
H          2.74590      -10.83350        6.75440
H          4.23990      -12.76700        6.21420
H          4.08020      -12.41760        4.49120
H          2.67230      -12.95420        5.41720
H          3.94280       -4.52410        8.69470
H          5.66640       -2.42330        8.82400
H          7.84380       -2.08540        9.73300
H          9.83500       -3.11910        8.50940
H         12.04660       -0.93350        4.23190
H         10.47590       -0.21970        4.67290
H         11.53240        0.80850        6.70500
H         13.08620        0.08780        6.26400
H         12.36540        1.33920        5.24040
H          4.59390        4.53510       10.83050
H          2.54540        5.62400       11.90920
H         -1.78400        2.88720       13.25860
H         -0.36460        1.89040       12.85550
H         -2.12400        3.39710       10.83690
H         -2.15290        1.64860       11.11220
H         -0.71320        2.40970       10.42500
H          4.12790        4.08140        8.47390
H          3.26500        2.99090        6.13760
H          0.96110        3.40530        6.04090
H         -0.54100        1.39090        6.53860
H         -0.37480       -1.16740        2.38560
H         -1.11690       -2.61760        3.08900
H          1.32120       -2.97840        2.83800
H          0.90440       -2.92900        4.55770
H          1.66530       -1.53020        3.79230
H          7.21500        5.26880        2.40300
H          8.52260        7.12270        1.23530
H          5.09130        9.89930       -0.74480
H          6.22920       10.89610       -1.68180
H          5.49410        7.98950       -2.33160
H          6.62160        8.99770       -3.24920
H          4.89950        9.40870       -3.19980
H          3.57170        5.32680       -0.60130
H         -0.00090        2.24050       -0.84050
H         -3.49560        0.25640       -3.16120
H         -3.61590       -1.82610       -1.68540
H         -1.98920       -4.31400       -1.90420
H         -0.94370       -5.15470       -0.73450
H          0.00690       -3.12310       -2.82500
H          1.04130       -3.92410       -1.63280
H          0.24500       -4.87240       -2.90010
H         -1.28380        5.41840       -7.08690
H          0.07150        7.07330       -8.49390
H          5.31260        7.63480       -8.04920
H          4.64750        6.22800       -7.18360
H          3.66700        7.77430       -5.46320
H          4.33230        9.16340       -6.33520
H          5.41680        7.99070       -5.57160
H         -1.10450        3.24410       -7.78930
H         -1.96040        2.39300       -9.78830
H         -3.28720        3.94450      -11.07580
H         -1.72130        5.61130      -11.90630
H          1.31340        7.33400      -13.16360
H         -0.28120        7.11160      -12.43280
H          2.19810        5.38140      -11.89150
H          1.57810        6.61470      -10.79100
H          0.63030        5.15710      -11.11440
H         -1.96340        1.19190      -14.07800
H         -6.95590       -0.32330       -8.59930
H         -8.33140       -2.02370       -7.55190
H         -9.82160       -5.12520       -6.21070
H         -9.61380       -3.40790       -6.57830
H         -7.13330       -3.65270       -6.09060
H         -7.40440       -5.35920       -5.72450
H         -8.10940       -4.10760       -4.68770
H         -5.70680       -3.14480      -11.57110
H         -7.02290       -1.55260      -12.91860
H         -6.56500       -0.52800      -15.26710
