
  xtb     03052205543D
 energy: -499.582428781959 gnorm: 0.000730253825 xtb: 6.4.1 (unknown)
290319  0     0  0            999 V2000
    4.3261  -10.3178   10.6229 C   0  0  0  0  0  0  0  0  0  0  0  0
    4.4145   -9.0705   10.1189 C   0  0  0  0  0  0  0  0  0  0  0  0
    3.9718   -8.9859    8.7649 C   0  0  0  0  0  0  0  0  0  0  0  0
    3.9629   -7.8629    7.9241 C   0  0  0  0  0  0  0  0  0  0  0  0
    4.3452   -6.5318    8.4119 C   0  0  0  0  0  0  0  0  0  0  0  0
    3.7668   -6.0023    9.5647 C   0  0  0  0  0  0  0  0  0  0  0  0
    4.1192   -4.7482   10.0140 C   0  0  0  0  0  0  0  0  0  0  0  0
    5.0532   -3.9683    9.3336 C   0  0  0  0  0  0  0  0  0  0  0  0
    5.3814   -2.3572    9.9860 S   0  0  0  0  0  0  0  0  0  0  0  0
    7.1780   -2.1171    9.7266 C   0  0  0  0  0  0  0  0  0  0  0  0
    7.9986   -3.1994   10.3985 C   0  0  0  0  0  0  0  0  0  0  0  0
    5.6002   -4.4981    8.1692 C   0  0  0  0  0  0  0  0  0  0  0  0
    6.4866   -3.7911    7.4343 F   0  0  0  0  0  0  0  0  0  0  0  0
    5.2682   -5.7591    7.7163 C   0  0  0  0  0  0  0  0  0  0  0  0
    3.5466   -8.0678    6.6168 C   0  0  0  0  0  0  0  0  0  0  0  0
    3.1202   -9.3273    6.1283 C   0  0  0  0  0  0  0  0  0  0  0  0
    3.1312  -10.4515    6.9685 C   0  0  0  0  0  0  0  0  0  0  0  0
    2.7371  -11.7758    6.4746 C   0  0  0  0  0  0  0  0  0  0  0  0
    3.2962  -12.2965    5.3075 C   0  0  0  0  0  0  0  0  0  0  0  0
    2.9248  -13.5393    4.8447 C   0  0  0  0  0  0  0  0  0  0  0  0
    1.9846  -14.3166    5.5219 C   0  0  0  0  0  0  0  0  0  0  0  0
    1.6197  -15.9029    4.8434 S   0  0  0  0  0  0  0  0  0  0  0  0
   -0.1358  -16.1951    5.3043 C   0  0  0  0  0  0  0  0  0  0  0  0
   -0.7364  -17.1863    4.3271 C   0  0  0  0  0  0  0  0  0  0  0  0
    1.4560  -13.7954    6.6992 C   0  0  0  0  0  0  0  0  0  0  0  0
    1.8127  -12.5477    7.1694 C   0  0  0  0  0  0  0  0  0  0  0  0
    0.5665  -14.5011    7.4343 F   0  0  0  0  0  0  0  0  0  0  0  0
    3.5536  -10.2462    8.2747 C   0  0  0  0  0  0  0  0  0  0  0  0
    3.7028  -11.4784    9.5016 S   0  0  0  0  0  0  0  0  0  0  0  0
    2.6682   -9.2474    4.7857 C   0  0  0  0  0  0  0  0  0  0  0  0
    2.7581   -7.9976    4.2524 C   0  0  0  0  0  0  0  0  0  0  0  0
    3.4107   -6.8334    5.3905 S   0  0  0  0  0  0  0  0  0  0  0  0
    2.3865   -7.5827    2.9395 C   0  0  0  0  0  0  0  0  0  0  0  0
    2.5274   -6.3488    2.3800 C   0  0  0  0  0  0  0  0  0  0  0  0
    2.0507   -6.2726    1.0467 C   0  0  0  0  0  0  0  0  0  0  0  0
    1.9962   -5.1443    0.2150 C   0  0  0  0  0  0  0  0  0  0  0  0
    2.3979   -3.8090    0.6793 C   0  0  0  0  0  0  0  0  0  0  0  0
    3.6694   -3.5255    1.1724 C   0  0  0  0  0  0  0  0  0  0  0  0
    3.9794   -2.2568    1.6112 C   0  0  0  0  0  0  0  0  0  0  0  0
    3.0427   -1.2187    1.5966 C   0  0  0  0  0  0  0  0  0  0  0  0
    3.6218    0.3406    2.1720 S   0  0  0  0  0  0  0  0  0  0  0  0
    2.1219    1.3355    2.5313 C   0  0  0  0  0  0  0  0  0  0  0  0
    2.5531    2.6296    3.1921 C   0  0  0  0  0  0  0  0  0  0  0  0
    1.7779   -1.5199    1.0995 C   0  0  0  0  0  0  0  0  0  0  0  0
    0.7899   -0.5982    1.0471 F   0  0  0  0  0  0  0  0  0  0  0  0
    1.4601   -2.7834    0.6446 C   0  0  0  0  0  0  0  0  0  0  0  0
    1.4456   -5.3287   -1.0433 C   0  0  0  0  0  0  0  0  0  0  0  0
    0.8808   -6.5524   -1.4746 C   0  0  0  0  0  0  0  0  0  0  0  0
    0.8808   -7.6668   -0.6194 C   0  0  0  0  0  0  0  0  0  0  0  0
    0.1663   -8.8930   -0.9902 C   0  0  0  0  0  0  0  0  0  0  0  0
   -1.1499   -8.8114   -1.4389 C   0  0  0  0  0  0  0  0  0  0  0  0
   -1.8597   -9.9406   -1.7936 C   0  0  0  0  0  0  0  0  0  0  0  0
   -1.2736  -11.1993   -1.7213 C   0  0  0  0  0  0  0  0  0  0  0  0
   -2.0602  -12.7152   -2.1487 S   0  0  0  0  0  0  0  0  0  0  0  0
   -3.6121  -12.2013   -2.9643 C   0  0  0  0  0  0  0  0  0  0  0  0
   -3.3817  -11.6183   -4.3455 C   0  0  0  0  0  0  0  0  0  0  0  0
    0.0390  -11.2685   -1.2487 C   0  0  0  0  0  0  0  0  0  0  0  0
    0.7550  -10.1502   -0.8832 C   0  0  0  0  0  0  0  0  0  0  0  0
    0.6336  -12.4742   -1.1507 F   0  0  0  0  0  0  0  0  0  0  0  0
    1.5119   -7.5084    0.6052 C   0  0  0  0  0  0  0  0  0  0  0  0
    1.6422   -8.7311    1.8419 S   0  0  0  0  0  0  0  0  0  0  0  0
    0.3517   -6.4564   -2.7885 C   0  0  0  0  0  0  0  0  0  0  0  0
    0.5055   -5.2246   -3.3453 C   0  0  0  0  0  0  0  0  0  0  0  0
    1.3372   -4.1065   -2.2804 S   0  0  0  0  0  0  0  0  0  0  0  0
   -0.0529   -4.7310   -4.5676 C   0  0  0  0  0  0  0  0  0  0  0  0
   -1.2606   -5.0676   -5.1009 C   0  0  0  0  0  0  0  0  0  0  0  0
   -1.6820   -4.2036   -6.1445 C   0  0  0  0  0  0  0  0  0  0  0  0
   -2.9644   -4.1706   -6.7393 C   0  0  0  0  0  0  0  0  0  0  0  0
   -3.8830   -5.2773   -6.6028 C   0  0  0  0  0  0  0  0  0  0  0  0
   -5.2482   -5.2615   -6.5290 C   0  0  0  0  0  0  0  0  0  0  0  0
   -5.8821   -6.5201   -6.5429 C   0  0  0  0  0  0  0  0  0  0  0  0
   -5.0482   -7.5916   -6.6656 C   0  0  0  0  0  0  0  0  0  0  0  0
   -5.5738   -9.2636   -6.6715 S   0  0  0  0  0  0  0  0  0  0  0  0
   -4.7796   -9.8727   -8.2123 C   0  0  0  0  0  0  0  0  0  0  0  0
   -3.3740  -10.3874   -7.9833 C   0  0  0  0  0  0  0  0  0  0  0  0
   -3.2429   -7.0505   -6.7043 Se  0  0  0  0  0  2  0  0  0  0  0  0
   -3.2624   -3.0043   -7.4419 C   0  0  0  0  0  0  0  0  0  0  0  0
   -2.2724   -2.0515   -7.7773 C   0  0  0  0  0  0  0  0  0  0  0  0
   -0.9393   -2.1665   -7.3240 C   0  0  0  0  0  0  0  0  0  0  0  0
    0.0879   -1.2225   -7.6963 C   0  0  0  0  0  0  0  0  0  0  0  0
    1.1260   -0.7625   -6.9294 C   0  0  0  0  0  0  0  0  0  0  0  0
    2.0172    0.1293   -7.5486 C   0  0  0  0  0  0  0  0  0  0  0  0
    1.7376    0.4164   -8.8548 C   0  0  0  0  0  0  0  0  0  0  0  0
    2.7089    1.4868   -9.8353 S   0  0  0  0  0  0  0  0  0  0  0  0
    1.5316    2.0073  -11.1373 C   0  0  0  0  0  0  0  0  0  0  0  0
    1.5259    1.0623  -12.3212 C   0  0  0  0  0  0  0  0  0  0  0  0
    0.2154   -0.5132   -9.4446 Se  0  0  0  0  0  2  0  0  0  0  0  0
   -0.7207   -3.2020   -6.4161 C   0  0  0  0  0  0  0  0  0  0  0  0
    0.6869   -3.3920   -5.4066 S   0  0  0  0  0  0  0  0  0  0  0  0
   -2.8342   -0.8995   -8.3686 C   0  0  0  0  0  0  0  0  0  0  0  0
   -4.1994   -0.8931   -8.4080 C   0  0  0  0  0  0  0  0  0  0  0  0
   -4.8571   -2.4319   -7.8924 S   0  0  0  0  0  0  0  0  0  0  0  0
   -4.9159    0.3485   -8.3978 C   0  0  0  0  0  0  0  0  0  0  0  0
   -5.9096    0.7230   -7.5384 C   0  0  0  0  0  0  0  0  0  0  0  0
   -5.8298    2.0934   -7.1522 C   0  0  0  0  0  0  0  0  0  0  0  0
   -6.4175    2.7167   -6.0370 C   0  0  0  0  0  0  0  0  0  0  0  0
   -7.5085    2.1057   -5.2621 C   0  0  0  0  0  0  0  0  0  0  0  0
   -7.3910    0.8431   -4.6924 C   0  0  0  0  0  0  0  0  0  0  0  0
   -8.4199    0.2949   -3.9493 C   0  0  0  0  0  0  0  0  0  0  0  0
   -9.6048    0.9944   -3.7511 C   0  0  0  0  0  0  0  0  0  0  0  0
  -10.9940    0.4165   -2.8413 S   0  0  0  0  0  0  0  0  0  0  0  0
  -10.4582   -1.2291   -2.2403 C   0  0  0  0  0  0  0  0  0  0  0  0
  -11.5766   -1.8275   -1.4079 C   0  0  0  0  0  0  0  0  0  0  0  0
   -9.7018    2.2683   -4.3166 C   0  0  0  0  0  0  0  0  0  0  0  0
  -10.8342    2.9758   -4.1372 F   0  0  0  0  0  0  0  0  0  0  0  0
   -8.6819    2.8272   -5.0516 C   0  0  0  0  0  0  0  0  0  0  0  0
   -5.8185    3.8875   -5.5852 C   0  0  0  0  0  0  0  0  0  0  0  0
   -4.6980    4.4738   -6.2181 C   0  0  0  0  0  0  0  0  0  0  0  0
   -4.1977    3.9320   -7.4054 C   0  0  0  0  0  0  0  0  0  0  0  0
   -2.9070    4.3692   -7.9711 C   0  0  0  0  0  0  0  0  0  0  0  0
   -2.7308    5.5415   -8.6943 C   0  0  0  0  0  0  0  0  0  0  0  0
   -1.4848    5.8697   -9.1928 C   0  0  0  0  0  0  0  0  0  0  0  0
   -0.3776    5.0472   -8.9916 C   0  0  0  0  0  0  0  0  0  0  0  0
    1.1537    5.5399   -9.7286 S   0  0  0  0  0  0  0  0  0  0  0  0
    2.4284    5.0551   -8.5050 C   0  0  0  0  0  0  0  0  0  0  0  0
    2.1792    5.6749   -7.1454 C   0  0  0  0  0  0  0  0  0  0  0  0
   -0.5762    3.8749   -8.2691 C   0  0  0  0  0  0  0  0  0  0  0  0
   -1.8102    3.5420   -7.7547 C   0  0  0  0  0  0  0  0  0  0  0  0
    0.4337    3.0071   -8.0445 F   0  0  0  0  0  0  0  0  0  0  0  0
   -4.7768    2.7552   -7.8339 C   0  0  0  0  0  0  0  0  0  0  0  0
   -4.0498    1.7379   -9.0472 S   0  0  0  0  0  0  0  0  0  0  0  0
   -4.0118    5.3772   -5.3670 C   0  0  0  0  0  0  0  0  0  0  0  0
   -4.5559    5.4738   -4.1263 C   0  0  0  0  0  0  0  0  0  0  0  0
   -6.0634    4.5794   -3.9930 S   0  0  0  0  0  0  0  0  0  0  0  0
   -3.7919    5.9172   -2.9837 C   0  0  0  0  0  0  0  0  0  0  0  0
   -2.5675    5.3769   -2.7386 C   0  0  0  0  0  0  0  0  0  0  0  0
   -1.9300    5.8874   -1.5806 C   0  0  0  0  0  0  0  0  0  0  0  0
   -0.6824    5.5090   -1.0548 C   0  0  0  0  0  0  0  0  0  0  0  0
    0.1231    4.4656   -1.7034 C   0  0  0  0  0  0  0  0  0  0  0  0
    0.3787    4.4757   -3.0762 C   0  0  0  0  0  0  0  0  0  0  0  0
    1.0408    3.4285   -3.6784 C   0  0  0  0  0  0  0  0  0  0  0  0
    1.5007    2.3320   -2.9446 C   0  0  0  0  0  0  0  0  0  0  0  0
    2.2822    1.0477   -3.8687 S   0  0  0  0  0  0  0  0  0  0  0  0
    2.1845   -0.4838   -2.8609 C   0  0  0  0  0  0  0  0  0  0  0  0
    3.4638   -0.7721   -2.1017 C   0  0  0  0  0  0  0  0  0  0  0  0
    1.3116    2.3783   -1.5677 C   0  0  0  0  0  0  0  0  0  0  0  0
    1.7934    1.4048   -0.7673 F   0  0  0  0  0  0  0  0  0  0  0  0
    0.6238    3.4067   -0.9548 C   0  0  0  0  0  0  0  0  0  0  0  0
   -0.2969    6.1398    0.1182 C   0  0  0  0  0  0  0  0  0  0  0  0
   -1.0812    7.1398    0.7456 C   0  0  0  0  0  0  0  0  0  0  0  0
   -2.3256    7.5188    0.2130 C   0  0  0  0  0  0  0  0  0  0  0  0
   -3.1153    8.5756    0.8559 C   0  0  0  0  0  0  0  0  0  0  0  0
   -2.5267    9.7979    1.1823 C   0  0  0  0  0  0  0  0  0  0  0  0
   -3.2443   10.7686    1.8442 C   0  0  0  0  0  0  0  0  0  0  0  0
   -4.5795   10.5728    2.1962 C   0  0  0  0  0  0  0  0  0  0  0  0
   -5.3775   11.9077    3.0376 S   0  0  0  0  0  0  0  0  0  0  0  0
   -6.5756   11.1133    4.1705 C   0  0  0  0  0  0  0  0  0  0  0  0
   -5.9087   10.1505    5.1318 C   0  0  0  0  0  0  0  0  0  0  0  0
   -5.1703    9.3737    1.8100 C   0  0  0  0  0  0  0  0  0  0  0  0
   -4.4564    8.3826    1.1656 C   0  0  0  0  0  0  0  0  0  0  0  0
   -6.4740    9.1275    2.0651 F   0  0  0  0  0  0  0  0  0  0  0  0
   -2.7366    6.8546   -0.9332 C   0  0  0  0  0  0  0  0  0  0  0  0
   -4.2478    7.0984   -1.7828 S   0  0  0  0  0  0  0  0  0  0  0  0
   -0.4608    7.6327    1.9203 C   0  0  0  0  0  0  0  0  0  0  0  0
    0.7562    7.0767    2.1763 C   0  0  0  0  0  0  0  0  0  0  0  0
    1.1975    5.8711    0.9838 S   0  0  0  0  0  0  0  0  0  0  0  0
    1.6301    7.4193    3.2483 C   0  0  0  0  0  0  0  0  0  0  0  0
    2.8641    6.9286    3.5479 C   0  0  0  0  0  0  0  0  0  0  0  0
    3.4760    7.5661    4.6589 C   0  0  0  0  0  0  0  0  0  0  0  0
    4.7470    7.3172    5.2169 C   0  0  0  0  0  0  0  0  0  0  0  0
    5.5494    6.2003    4.7791 C   0  0  0  0  0  0  0  0  0  0  0  0
    5.1000    4.9532    4.4380 C   0  0  0  0  0  0  0  0  0  0  0  0
    6.0767    4.0344    4.0125 C   0  0  0  0  0  0  0  0  0  0  0  0
    7.3529    4.5231    3.9839 C   0  0  0  0  0  0  0  0  0  0  0  0
    8.7197    3.6049    3.3978 S   0  0  0  0  0  0  0  0  0  0  0  0
   10.1256    4.6155    3.9799 C   0  0  0  0  0  0  0  0  0  0  0  0
   10.3502    4.4817    5.4724 C   0  0  0  0  0  0  0  0  0  0  0  0
    7.4172    6.3190    4.5575 Se  0  0  0  0  0  2  0  0  0  0  0  0
    5.1668    8.2110    6.2007 C   0  0  0  0  0  0  0  0  0  0  0  0
    4.3705    9.2673    6.6967 C   0  0  0  0  0  0  0  0  0  0  0  0
    3.0571    9.4472    6.2174 C   0  0  0  0  0  0  0  0  0  0  0  0
    2.1741   10.4531    6.7634 C   0  0  0  0  0  0  0  0  0  0  0  0
    2.0668   10.8446    8.0699 C   0  0  0  0  0  0  0  0  0  0  0  0
    1.1303   11.8605    8.3406 C   0  0  0  0  0  0  0  0  0  0  0  0
    0.4571   12.3327    7.2497 C   0  0  0  0  0  0  0  0  0  0  0  0
   -0.6833   13.6562    7.3157 S   0  0  0  0  0  0  0  0  0  0  0  0
   -1.5547   13.4828    5.7183 C   0  0  0  0  0  0  0  0  0  0  0  0
   -2.5099   12.3074    5.7069 C   0  0  0  0  0  0  0  0  0  0  0  0
    0.9931   11.4444    5.6755 Se  0  0  0  0  0  2  0  0  0  0  0  0
    2.6686    8.6028    5.1812 C   0  0  0  0  0  0  0  0  0  0  0  0
    1.1415    8.6947    4.3500 S   0  0  0  0  0  0  0  0  0  0  0  0
    5.0841   10.0588    7.6447 C   0  0  0  0  0  0  0  0  0  0  0  0
    6.3315    9.6051    7.8789 C   0  0  0  0  0  0  0  0  0  0  0  0
    6.7282    8.1845    6.9751 S   0  0  0  0  0  0  0  0  0  0  0  0
    4.5919  -10.6504   11.6074 H   0  0  0  0  0  0  0  0  0  0  0  0
    4.7961   -8.2296   10.6690 H   0  0  0  0  0  0  0  0  0  0  0  0
    3.0253   -6.5750   10.1006 H   0  0  0  0  0  0  0  0  0  0  0  0
    3.6708   -4.3416   10.9073 H   0  0  0  0  0  0  0  0  0  0  0  0
    7.3779   -2.0552    8.6593 H   0  0  0  0  0  0  0  0  0  0  0  0
    7.3649   -1.1436   10.1800 H   0  0  0  0  0  0  0  0  0  0  0  0
    7.7578   -3.2594   11.4579 H   0  0  0  0  0  0  0  0  0  0  0  0
    9.0579   -2.9745   10.2922 H   0  0  0  0  0  0  0  0  0  0  0  0
    7.8072   -4.1700    9.9447 H   0  0  0  0  0  0  0  0  0  0  0  0
    5.7405   -6.1267    6.8186 H   0  0  0  0  0  0  0  0  0  0  0  0
    4.0386  -11.7259    4.7708 H   0  0  0  0  0  0  0  0  0  0  0  0
    3.3581  -13.9376    3.9404 H   0  0  0  0  0  0  0  0  0  0  0  0
   -0.1662  -16.5772    6.3235 H   0  0  0  0  0  0  0  0  0  0  0  0
   -0.6458  -15.2345    5.2533 H   0  0  0  0  0  0  0  0  0  0  0  0
   -0.6867  -16.7997    3.3117 H   0  0  0  0  0  0  0  0  0  0  0  0
   -1.7782  -17.3678    4.5830 H   0  0  0  0  0  0  0  0  0  0  0  0
   -0.1988  -18.1311    4.3631 H   0  0  0  0  0  0  0  0  0  0  0  0
    1.3547  -12.1886    8.0777 H   0  0  0  0  0  0  0  0  0  0  0  0
    2.2714  -10.0844    4.2392 H   0  0  0  0  0  0  0  0  0  0  0  0
    2.9522   -5.5139    2.9084 H   0  0  0  0  0  0  0  0  0  0  0  0
    4.4200   -4.3007    1.1968 H   0  0  0  0  0  0  0  0  0  0  0  0
    4.9675   -2.0386    1.9861 H   0  0  0  0  0  0  0  0  0  0  0  0
    1.6112    1.5306    1.5935 H   0  0  0  0  0  0  0  0  0  0  0  0
    1.4849    0.7453    3.1890 H   0  0  0  0  0  0  0  0  0  0  0  0
    3.0851    2.4238    4.1187 H   0  0  0  0  0  0  0  0  0  0  0  0
    1.6789    3.2387    3.4155 H   0  0  0  0  0  0  0  0  0  0  0  0
    3.2081    3.1908    2.5284 H   0  0  0  0  0  0  0  0  0  0  0  0
    0.4597   -2.9590    0.2798 H   0  0  0  0  0  0  0  0  0  0  0  0
   -1.6359   -7.8484   -1.4865 H   0  0  0  0  0  0  0  0  0  0  0  0
   -2.8804   -9.8287   -2.1205 H   0  0  0  0  0  0  0  0  0  0  0  0
   -4.1418  -11.5160   -2.3040 H   0  0  0  0  0  0  0  0  0  0  0  0
   -4.1826  -13.1279   -3.0281 H   0  0  0  0  0  0  0  0  0  0  0  0
   -2.8966  -12.3549   -4.9822 H   0  0  0  0  0  0  0  0  0  0  0  0
   -2.7479  -10.7350   -4.3014 H   0  0  0  0  0  0  0  0  0  0  0  0
   -4.3347  -11.3364   -4.7899 H   0  0  0  0  0  0  0  0  0  0  0  0
    1.7710  -10.2657   -0.5404 H   0  0  0  0  0  0  0  0  0  0  0  0
   -0.1008   -7.2801   -3.3100 H   0  0  0  0  0  0  0  0  0  0  0  0
   -1.8808   -5.8345   -4.6689 H   0  0  0  0  0  0  0  0  0  0  0  0
   -5.8104   -4.3473   -6.4467 H   0  0  0  0  0  0  0  0  0  0  0  0
   -6.9508   -6.6350   -6.4829 H   0  0  0  0  0  0  0  0  0  0  0  0
   -4.7990   -9.0449   -8.9207 H   0  0  0  0  0  0  0  0  0  0  0  0
   -5.4369  -10.6660   -8.5661 H   0  0  0  0  0  0  0  0  0  0  0  0
   -2.9391  -10.7037   -8.9292 H   0  0  0  0  0  0  0  0  0  0  0  0
   -2.7403   -9.6061   -7.5584 H   0  0  0  0  0  0  0  0  0  0  0  0
   -3.3829  -11.2321   -7.2997 H   0  0  0  0  0  0  0  0  0  0  0  0
    1.2230   -1.0009   -5.8854 H   0  0  0  0  0  0  0  0  0  0  0  0
    2.8425    0.5775   -7.0241 H   0  0  0  0  0  0  0  0  0  0  0  0
    0.5470    2.0749  -10.6697 H   0  0  0  0  0  0  0  0  0  0  0  0
    1.8594    3.0048  -11.4296 H   0  0  0  0  0  0  0  0  0  0  0  0
    0.8350    1.4263  -13.0788 H   0  0  0  0  0  0  0  0  0  0  0  0
    2.5199    0.9917  -12.7564 H   0  0  0  0  0  0  0  0  0  0  0  0
    1.2086    0.0636  -12.0167 H   0  0  0  0  0  0  0  0  0  0  0  0
   -2.2578   -0.0231   -8.6081 H   0  0  0  0  0  0  0  0  0  0  0  0
   -6.5752    0.0142   -7.0803 H   0  0  0  0  0  0  0  0  0  0  0  0
   -6.4705    0.2898   -4.8021 H   0  0  0  0  0  0  0  0  0  0  0  0
   -8.2865   -0.6847   -3.5205 H   0  0  0  0  0  0  0  0  0  0  0  0
  -10.2431   -1.8527   -3.1083 H   0  0  0  0  0  0  0  0  0  0  0  0
   -9.5581   -1.0916   -1.6409 H   0  0  0  0  0  0  0  0  0  0  0  0
  -12.4786   -1.9375   -2.0052 H   0  0  0  0  0  0  0  0  0  0  0  0
  -11.2797   -2.8069   -1.0388 H   0  0  0  0  0  0  0  0  0  0  0  0
  -11.8026   -1.1874   -0.5584 H   0  0  0  0  0  0  0  0  0  0  0  0
   -8.8092    3.8148   -5.4664 H   0  0  0  0  0  0  0  0  0  0  0  0
   -3.5714    6.1954   -8.8681 H   0  0  0  0  0  0  0  0  0  0  0  0
   -1.3465    6.7788   -9.7569 H   0  0  0  0  0  0  0  0  0  0  0  0
    3.3488    5.4360   -8.9474 H   0  0  0  0  0  0  0  0  0  0  0  0
    2.4847    3.9696   -8.4581 H   0  0  0  0  0  0  0  0  0  0  0  0
    2.9912    5.4112   -6.4708 H   0  0  0  0  0  0  0  0  0  0  0  0
    1.2469    5.3117   -6.7163 H   0  0  0  0  0  0  0  0  0  0  0  0
    2.1241    6.7591   -7.2212 H   0  0  0  0  0  0  0  0  0  0  0  0
   -1.9056    2.6280   -7.1883 H   0  0  0  0  0  0  0  0  0  0  0  0
   -3.0954    5.8642   -5.6494 H   0  0  0  0  0  0  0  0  0  0  0  0
   -2.1511    4.5987   -3.3518 H   0  0  0  0  0  0  0  0  0  0  0  0
    0.0591    5.3177   -3.6717 H   0  0  0  0  0  0  0  0  0  0  0  0
    1.2124    3.4288   -4.7441 H   0  0  0  0  0  0  0  0  0  0  0  0
    1.9951   -1.2698   -3.5934 H   0  0  0  0  0  0  0  0  0  0  0  0
    1.3216   -0.4054   -2.2048 H   0  0  0  0  0  0  0  0  0  0  0  0
    3.3746   -1.7335   -1.5989 H   0  0  0  0  0  0  0  0  0  0  0  0
    3.6592   -0.0091   -1.3535 H   0  0  0  0  0  0  0  0  0  0  0  0
    4.3077   -0.8127   -2.7864 H   0  0  0  0  0  0  0  0  0  0  0  0
    0.4689    3.3569    0.1118 H   0  0  0  0  0  0  0  0  0  0  0  0
   -1.5008    9.9876    0.9067 H   0  0  0  0  0  0  0  0  0  0  0  0
   -2.7788   11.7066    2.1051 H   0  0  0  0  0  0  0  0  0  0  0  0
   -7.0086   11.9614    4.7014 H   0  0  0  0  0  0  0  0  0  0  0  0
   -7.3521   10.6306    3.5814 H   0  0  0  0  0  0  0  0  0  0  0  0
   -5.1221   10.6504    5.6927 H   0  0  0  0  0  0  0  0  0  0  0  0
   -5.4712    9.3085    4.5995 H   0  0  0  0  0  0  0  0  0  0  0  0
   -6.6481    9.7654    5.8308 H   0  0  0  0  0  0  0  0  0  0  0  0
   -4.9599    7.4602    0.9214 H   0  0  0  0  0  0  0  0  0  0  0  0
   -0.9025    8.3707    2.5654 H   0  0  0  0  0  0  0  0  0  0  0  0
    3.3393    6.1651    2.9585 H   0  0  0  0  0  0  0  0  0  0  0  0
    4.0659    4.6749    4.5488 H   0  0  0  0  0  0  0  0  0  0  0  0
    5.8453    3.0211    3.7324 H   0  0  0  0  0  0  0  0  0  0  0  0
    9.9208    5.6512    3.6909 H   0  0  0  0  0  0  0  0  0  0  0  0
   10.9824    4.2493    3.4151 H   0  0  0  0  0  0  0  0  0  0  0  0
    9.4787    4.8332    6.0250 H   0  0  0  0  0  0  0  0  0  0  0  0
   10.5329    3.4428    5.7365 H   0  0  0  0  0  0  0  0  0  0  0  0
   11.2097    5.0779    5.7710 H   0  0  0  0  0  0  0  0  0  0  0  0
    2.6191   10.3607    8.8581 H   0  0  0  0  0  0  0  0  0  0  0  0
    0.9467   12.2349    9.3328 H   0  0  0  0  0  0  0  0  0  0  0  0
   -2.0865   14.4253    5.5924 H   0  0  0  0  0  0  0  0  0  0  0  0
   -0.7893   13.3940    4.9407 H   0  0  0  0  0  0  0  0  0  0  0  0
   -3.0613   12.2902    4.7690 H   0  0  0  0  0  0  0  0  0  0  0  0
   -3.2168   12.3926    6.5294 H   0  0  0  0  0  0  0  0  0  0  0  0
   -1.9659   11.3678    5.8091 H   0  0  0  0  0  0  0  0  0  0  0  0
    4.6837   10.9474    8.0966 H   0  0  0  0  0  0  0  0  0  0  0  0
    7.0724   10.0165    8.5358 H   0  0  0  0  0  0  0  0  0  0  0  0
  1  2  2  0  0  0  0
  2  3  1  0  0  0  0
  3  4  2  0  0  0  0
  4  5  1  0  0  0  0
  5  6  2  0  0  0  0
  6  7  1  0  0  0  0
  7  8  2  0  0  0  0
  8  9  1  0  0  0  0
  9 10  1  0  0  0  0
 10 11  1  0  0  0  0
  8 12  1  0  0  0  0
 12 13  1  0  0  0  0
 12 14  2  0  0  0  0
  4 15  1  0  0  0  0
 15 16  2  0  0  0  0
 16 17  1  0  0  0  0
 17 18  1  0  0  0  0
 18 19  2  0  0  0  0
 19 20  1  0  0  0  0
 20 21  2  0  0  0  0
 21 22  1  0  0  0  0
 22 23  1  0  0  0  0
 23 24  1  0  0  0  0
 21 25  1  0  0  0  0
 25 26  2  0  0  0  0
 25 27  1  0  0  0  0
 17 28  2  0  0  0  0
 28 29  1  0  0  0  0
 16 30  1  0  0  0  0
 30 31  2  0  0  0  0
 31 32  1  0  0  0  0
 31 33  1  0  0  0  0
 33 34  2  0  0  0  0
 34 35  1  0  0  0  0
 35 36  2  0  0  0  0
 36 37  1  0  0  0  0
 37 38  2  0  0  0  0
 38 39  1  0  0  0  0
 39 40  2  0  0  0  0
 40 41  1  0  0  0  0
 41 42  1  0  0  0  0
 42 43  1  0  0  0  0
 40 44  1  0  0  0  0
 44 45  1  0  0  0  0
 44 46  2  0  0  0  0
 36 47  1  0  0  0  0
 47 48  2  0  0  0  0
 48 49  1  0  0  0  0
 49 50  1  0  0  0  0
 50 51  2  0  0  0  0
 51 52  1  0  0  0  0
 52 53  2  0  0  0  0
 53 54  1  0  0  0  0
 54 55  1  0  0  0  0
 55 56  1  0  0  0  0
 53 57  1  0  0  0  0
 57 58  2  0  0  0  0
 57 59  1  0  0  0  0
 49 60  2  0  0  0  0
 60 61  1  0  0  0  0
 48 62  1  0  0  0  0
 62 63  2  0  0  0  0
 63 64  1  0  0  0  0
 63 65  1  0  0  0  0
 65 66  2  0  0  0  0
 66 67  1  0  0  0  0
 67 68  2  0  0  0  0
 68 69  1  0  0  0  0
 69 70  2  0  0  0  0
 70 71  1  0  0  0  0
 71 72  2  0  0  0  0
 72 73  1  0  0  0  0
 73 74  1  0  0  0  0
 74 75  1  0  0  0  0
 72 76  1  0  0  0  0
 68 77  1  0  0  0  0
 77 78  2  0  0  0  0
 78 79  1  0  0  0  0
 79 80  1  0  0  0  0
 80 81  2  0  0  0  0
 81 82  1  0  0  0  0
 82 83  2  0  0  0  0
 83 84  1  0  0  0  0
 84 85  1  0  0  0  0
 85 86  1  0  0  0  0
 83 87  1  0  0  0  0
 79 88  2  0  0  0  0
 88 89  1  0  0  0  0
 78 90  1  0  0  0  0
 90 91  2  0  0  0  0
 91 92  1  0  0  0  0
 91 93  1  0  0  0  0
 93 94  2  0  0  0  0
 94 95  1  0  0  0  0
 95 96  2  0  0  0  0
 96 97  1  0  0  0  0
 97 98  2  0  0  0  0
 98 99  1  0  0  0  0
 99100  2  0  0  0  0
100101  1  0  0  0  0
101102  1  0  0  0  0
102103  1  0  0  0  0
100104  1  0  0  0  0
104105  1  0  0  0  0
104106  2  0  0  0  0
 96107  1  0  0  0  0
107108  2  0  0  0  0
108109  1  0  0  0  0
109110  1  0  0  0  0
110111  2  0  0  0  0
111112  1  0  0  0  0
112113  2  0  0  0  0
113114  1  0  0  0  0
114115  1  0  0  0  0
115116  1  0  0  0  0
113117  1  0  0  0  0
117118  2  0  0  0  0
117119  1  0  0  0  0
109120  2  0  0  0  0
120121  1  0  0  0  0
108122  1  0  0  0  0
122123  2  0  0  0  0
123124  1  0  0  0  0
123125  1  0  0  0  0
125126  2  0  0  0  0
126127  1  0  0  0  0
127128  2  0  0  0  0
128129  1  0  0  0  0
129130  2  0  0  0  0
130131  1  0  0  0  0
131132  2  0  0  0  0
132133  1  0  0  0  0
133134  1  0  0  0  0
134135  1  0  0  0  0
132136  1  0  0  0  0
136137  1  0  0  0  0
136138  2  0  0  0  0
128139  1  0  0  0  0
139140  2  0  0  0  0
140141  1  0  0  0  0
141142  1  0  0  0  0
142143  2  0  0  0  0
143144  1  0  0  0  0
144145  2  0  0  0  0
145146  1  0  0  0  0
146147  1  0  0  0  0
147148  1  0  0  0  0
145149  1  0  0  0  0
149150  2  0  0  0  0
149151  1  0  0  0  0
141152  2  0  0  0  0
152153  1  0  0  0  0
140154  1  0  0  0  0
154155  2  0  0  0  0
155156  1  0  0  0  0
155157  1  0  0  0  0
157158  2  0  0  0  0
158159  1  0  0  0  0
159160  2  0  0  0  0
160161  1  0  0  0  0
161162  2  0  0  0  0
162163  1  0  0  0  0
163164  2  0  0  0  0
164165  1  0  0  0  0
165166  1  0  0  0  0
166167  1  0  0  0  0
164168  1  0  0  0  0
160169  1  0  0  0  0
169170  2  0  0  0  0
170171  1  0  0  0  0
171172  1  0  0  0  0
172173  2  0  0  0  0
173174  1  0  0  0  0
174175  2  0  0  0  0
175176  1  0  0  0  0
176177  1  0  0  0  0
177178  1  0  0  0  0
175179  1  0  0  0  0
171180  2  0  0  0  0
180181  1  0  0  0  0
170182  1  0  0  0  0
182183  2  0  0  0  0
183184  1  0  0  0  0
 29  1  1  0  0  0  0
 61 33  1  0  0  0  0
 89 65  1  0  0  0  0
121 93  1  0  0  0  0
153125  1  0  0  0  0
181157  1  0  0  0  0
 28  3  1  0  0  0  0
 60 35  1  0  0  0  0
 88 67  1  0  0  0  0
120 95  1  0  0  0  0
152127  1  0  0  0  0
180159  1  0  0  0  0
 14  5  1  0  0  0  0
 32 15  1  0  0  0  0
 46 37  1  0  0  0  0
 64 47  1  0  0  0  0
 76 69  1  0  0  0  0
 92 77  1  0  0  0  0
106 97  1  0  0  0  0
124107  1  0  0  0  0
138129  1  0  0  0  0
156139  1  0  0  0  0
168161  1  0  0  0  0
184169  1  0  0  0  0
 26 18  1  0  0  0  0
 58 50  1  0  0  0  0
 87 80  1  0  0  0  0
118110  1  0  0  0  0
150142  1  0  0  0  0
179172  1  0  0  0  0
  1185  1  0  0  0  0
  2186  1  0  0  0  0
  6187  1  0  0  0  0
  7188  1  0  0  0  0
 10189  1  0  0  0  0
 10190  1  0  0  0  0
 11191  1  0  0  0  0
 11192  1  0  0  0  0
 11193  1  0  0  0  0
 14194  1  0  0  0  0
 19195  1  0  0  0  0
 20196  1  0  0  0  0
 23197  1  0  0  0  0
 23198  1  0  0  0  0
 24199  1  0  0  0  0
 24200  1  0  0  0  0
 24201  1  0  0  0  0
 26202  1  0  0  0  0
 30203  1  0  0  0  0
 34204  1  0  0  0  0
 38205  1  0  0  0  0
 39206  1  0  0  0  0
 42207  1  0  0  0  0
 42208  1  0  0  0  0
 43209  1  0  0  0  0
 43210  1  0  0  0  0
 43211  1  0  0  0  0
 46212  1  0  0  0  0
 51213  1  0  0  0  0
 52214  1  0  0  0  0
 55215  1  0  0  0  0
 55216  1  0  0  0  0
 56217  1  0  0  0  0
 56218  1  0  0  0  0
 56219  1  0  0  0  0
 58220  1  0  0  0  0
 62221  1  0  0  0  0
 66222  1  0  0  0  0
 70223  1  0  0  0  0
 71224  1  0  0  0  0
 74225  1  0  0  0  0
 74226  1  0  0  0  0
 75227  1  0  0  0  0
 75228  1  0  0  0  0
 75229  1  0  0  0  0
 81230  1  0  0  0  0
 82231  1  0  0  0  0
 85232  1  0  0  0  0
 85233  1  0  0  0  0
 86234  1  0  0  0  0
 86235  1  0  0  0  0
 86236  1  0  0  0  0
 90237  1  0  0  0  0
 94238  1  0  0  0  0
 98239  1  0  0  0  0
 99240  1  0  0  0  0
102241  1  0  0  0  0
102242  1  0  0  0  0
103243  1  0  0  0  0
103244  1  0  0  0  0
103245  1  0  0  0  0
106246  1  0  0  0  0
111247  1  0  0  0  0
112248  1  0  0  0  0
115249  1  0  0  0  0
115250  1  0  0  0  0
116251  1  0  0  0  0
116252  1  0  0  0  0
116253  1  0  0  0  0
118254  1  0  0  0  0
122255  1  0  0  0  0
126256  1  0  0  0  0
130257  1  0  0  0  0
131258  1  0  0  0  0
134259  1  0  0  0  0
134260  1  0  0  0  0
135261  1  0  0  0  0
135262  1  0  0  0  0
135263  1  0  0  0  0
138264  1  0  0  0  0
143265  1  0  0  0  0
144266  1  0  0  0  0
147267  1  0  0  0  0
147268  1  0  0  0  0
148269  1  0  0  0  0
148270  1  0  0  0  0
148271  1  0  0  0  0
150272  1  0  0  0  0
154273  1  0  0  0  0
158274  1  0  0  0  0
162275  1  0  0  0  0
163276  1  0  0  0  0
166277  1  0  0  0  0
166278  1  0  0  0  0
167279  1  0  0  0  0
167280  1  0  0  0  0
167281  1  0  0  0  0
173282  1  0  0  0  0
174283  1  0  0  0  0
177284  1  0  0  0  0
177285  1  0  0  0  0
178286  1  0  0  0  0
178287  1  0  0  0  0
178288  1  0  0  0  0
182289  1  0  0  0  0
183290  1  0  0  0  0
M  END
