142

C         -0.56130       -1.51640       10.22700
C          0.41440       -1.11890        9.38650
C         -0.06180       -0.82830        8.07410
C          0.69380       -0.45020        6.94830
C          2.13060       -0.25140        6.97590
C          3.01490       -0.66500        6.02000
C          4.36080       -0.29150        6.21180
C          4.58910        0.46560        7.32180
S          6.09470        1.13210        7.91540
C          7.11960        1.20010        6.40260
C          6.57810        2.18050        5.38130
Se         3.01680        0.77370        8.29750
C         -0.01700       -0.27260        5.76580
C         -1.41570       -0.45630        5.66720
C         -2.16920       -0.88090        6.77920
C         -3.58410       -1.17530        6.67650
C         -4.54600       -0.95950        7.62510
C         -5.84250       -1.41790        7.31630
C         -5.95890       -2.03330        6.10550
S         -7.39060       -2.72500        5.36700
C         -8.67440       -1.50670        5.83540
C         -8.40080       -0.13680        5.24940
Se        -4.32950       -2.07280        5.18190
C         -1.45780       -1.03630        7.96830
S         -2.12390       -1.56850        9.48930
C         -1.89180       -0.14480        4.37290
C         -0.91640        0.22520        3.49590
S          0.66680        0.23610        4.23950
C         -1.11230        0.46620        2.10780
C         -0.21420        0.77000        1.13150
C         -0.76000        0.74660       -0.17760
C         -0.10270        0.95700       -1.40920
C          1.27230        1.38890       -1.52730
C          1.79730        2.15260       -2.53830
C          3.17410        2.42830       -2.47550
C          3.82260        1.88100       -1.40610
S          5.51990        2.09430       -1.06270
C          5.62660        1.23440        0.55000
C          7.05780        1.22030        1.04440
Se         2.64260        0.90710       -0.32740
C         -0.86810        0.69080       -2.54660
C         -2.22840        0.29560       -2.52550
C         -2.92430        0.22920       -1.29490
C         -4.32680       -0.09080       -1.20720
C         -5.31480        0.13740       -2.13280
C         -6.59920       -0.33330       -1.81090
C         -6.69620       -0.95450       -0.59600
S         -8.17730       -1.61680        0.05560
C         -7.62460       -2.22460        1.68920
C         -6.90520       -3.55560        1.61330
Se        -5.04940       -0.96110        0.29780
C         -2.13750        0.42230       -0.16230
S         -2.72190        0.22410        1.46240
C         -2.68650       -0.10040       -3.80640
C         -1.74100        0.00690       -4.78520
S         -0.23080        0.63850       -4.16630
C         -1.83800       -0.31370       -6.16960
S         -0.42350       -0.18740       -7.16770
C         -1.32820       -0.69190       -8.57710
C         -2.64410       -0.93800       -8.25490
C         -2.92880       -0.72810       -6.90310
C         -0.65000       -0.78060       -9.78110
C          0.15390       -0.79630      -10.69410
C          1.05090       -0.78520      -11.75500
C          2.38680       -0.59200      -11.61860
C          3.10250       -0.43310      -10.39690
S          4.78420        0.03770      -10.45110
C          4.89420        0.00430       -8.71280
C          3.68800       -0.36120       -8.14880
C          2.69200       -0.60450       -9.08940
C          6.06100        0.29620       -8.03030
C          7.04750        0.52250       -7.35610
C          8.19650        0.75710       -6.61250
C          8.30940        0.53940       -5.28000
C          7.30440        0.05170       -4.40000
S          5.64830       -0.20280       -4.86810
C          5.24600       -0.77890       -3.26960
C          6.35140       -0.76940       -2.44410
C          7.49810       -0.29720       -3.07610
C          3.95650       -1.17620       -2.96300
C          2.81520       -1.52070       -2.72350
C          1.51300       -1.92840       -2.46870
C          1.00520       -2.11910       -1.23050
C         -0.33640       -2.51050       -0.97170
S         -1.45730       -2.85280       -2.26170
C         -2.73990       -3.14760       -1.11950
C         -2.29550       -3.00520        0.17650
C         -0.94730       -2.65000        0.25630
C         -4.02380       -3.43490       -1.56400
C         -5.13720       -3.63840       -2.00030
C         -6.43900       -3.86530       -2.46740
C         -6.76610       -3.83610       -3.75790
H         -0.47290       -1.79110       11.25980
H          1.44890       -1.04540        9.67490
H          2.71670       -1.28050        5.18830
H          5.13540       -0.59700        5.52990
H          8.09720        1.51310        6.76830
H          7.20030        0.18940        6.00400
H          6.51160        3.17620        5.81340
H          7.24120        2.21820        4.51910
H          5.58650        1.88310        5.04590
H         -4.33990       -0.43980        8.54530
H         -6.66910       -1.29030        7.99430
H         -8.73440       -1.48120        6.92250
H         -9.59610       -1.93240        5.43990
H         -8.35570       -0.18750        4.16390
H         -7.45450        0.25590        5.61750
H         -9.19500        0.55030        5.53370
H         -2.92920       -0.16120        4.08450
H          0.81690        0.97960        1.36670
H          1.18520        2.57680       -3.31580
H          3.68120        3.03180       -3.20820
H          5.24620        0.21900        0.39840
H          4.96810        1.76360        1.24500
H          7.11610        0.69380        1.99480
H          7.42120        2.23600        1.18200
H          7.70190        0.71920        0.32570
H         -5.13620        0.69690       -3.03540
H         -7.44560       -0.21010       -2.46470
H         -6.98220       -1.44860        2.11860
H         -8.53530       -2.30750        2.28160
H         -6.58650       -3.84630        2.61280
H         -7.56440       -4.32460        1.21770
H         -6.02450       -3.48520        0.97210
H         -3.65730       -0.52240       -3.98370
H         -3.36870       -1.25950       -8.98180
H         -3.90330       -0.86840       -6.47100
H          0.63390       -0.91510      -12.74520
H          2.98590       -0.54270      -12.51840
H          3.55200       -0.44280       -7.08510
H          1.69920       -0.91390       -8.82740
H          9.05380        1.11980       -7.16500
H          9.26600        0.72910       -4.80980
H          6.31540       -1.11000       -1.42420
H          8.45650       -0.21430       -2.59360
H          0.88480       -2.08400       -3.33880
H          1.62780       -1.95180       -0.35800
H         -2.93550       -3.15320        1.03100
H         -0.42750       -2.48210        1.18370
H         -7.18640       -4.05490       -1.70680
H         -6.03040       -3.64470       -4.52160
H         -7.77730       -4.00500       -4.08440
