296

C          1.34700      -13.75020        7.83970
C          2.19390      -12.95630        7.15390
C          1.54110      -11.86150        6.51460
C          2.10930      -10.87150        5.68490
C          3.53590      -10.73990        5.49750
C          4.52840      -10.96990        6.41340
C          5.84540      -10.72830        5.98100
C          5.96150      -10.29150        4.69030
S          7.48510       -9.89970        3.92800
C          6.96030       -8.85580        2.51730
C          6.58340       -9.66290        1.29330
Se         4.27860      -10.17110        3.85900
C          1.20310      -10.02220        5.05490
C         -0.19690      -10.06640        5.25280
C         -0.75730      -11.01030        6.13650
C         -2.17840      -11.09450        6.39740
C         -2.77790      -11.38090        7.59350
C         -4.18570      -11.42280        7.59020
C         -4.77070      -11.19580        6.37810
S         -6.49320      -11.25000        6.08640
C         -6.64290      -10.14670        4.63370
C         -6.37050       -8.69810        4.98100
Se        -3.47870      -10.91220        5.03990
C          0.14470      -11.88990        6.73700
S         -0.29760      -13.22590        7.76840
C         -0.86680       -9.07860        4.48630
C         -0.03600       -8.32680        3.71470
S          1.64530       -8.76430        3.93400
C         -0.36880       -7.31830        2.76730
C          0.50610       -6.55750        2.05250
C         -0.12130       -5.68480        1.13050
C          0.49580       -4.79280        0.23680
C          1.95820       -4.67460        0.18420
C          2.57810       -3.43100        0.26160
C          3.95490       -3.31470        0.25950
C          4.76390       -4.44210        0.17850
S          6.51960       -4.43940        0.17370
C          6.93810       -2.65930        0.20210
C          8.43820       -2.50760        0.03870
C          4.12980       -5.68470        0.09810
F          4.88330       -6.80060        0.03450
C          2.76080       -5.81350        0.09440
C         -0.35130       -4.02960       -0.55130
C         -1.76510       -4.12050       -0.48750
C         -2.38150       -5.00470        0.41460
C         -3.84010       -5.11910        0.52340
C         -4.64780       -5.25790       -0.60230
C         -6.01910       -5.38620       -0.49150
C         -6.63430       -5.38640        0.75470
S         -8.36250       -5.58180        1.05390
C         -9.13850       -5.21680       -0.55680
C         -9.03560       -3.74760       -0.91560
C         -5.81150       -5.25590        1.87460
C         -4.44710       -5.11860        1.77850
F         -6.37790       -5.25840        3.10040
C         -1.53390       -5.77040        1.20140
S         -2.03820       -6.97550        2.36080
C         -2.39000       -3.20640       -1.37270
C         -1.51400       -2.47030       -2.11380
S          0.15340       -2.85940       -1.74860
C         -1.87640       -1.39040       -2.97790
C         -3.09440       -1.19240       -3.55390
C         -3.28140        0.12420       -4.04310
C         -4.48640        0.70110       -4.47660
C         -5.73830       -0.05710       -4.59350
C         -6.21470       -0.84800       -3.54910
C         -7.40580       -1.52520       -3.67430
C         -8.17670       -1.44790       -4.83480
S         -9.68500       -2.36430       -4.82420
C        -10.09040       -2.64950       -6.59160
C        -11.09540       -3.78100       -6.68200
C         -7.70670       -0.62620       -5.85410
F         -8.40890       -0.45520       -6.99840
C         -6.51040        0.05540       -5.74410
C         -4.48650        2.07680       -4.62570
C         -3.33240        2.87920       -4.46300
C         -2.09810        2.29080       -4.12610
C         -0.92530        3.14190       -3.89150
C         -0.58690        4.14090       -4.80200
C          0.48090        4.98870       -4.58030
C          1.25910        4.86960       -3.43410
S          2.63090        5.88590       -3.01360
C          2.74740        7.09480       -4.37310
C          3.43970        6.52900       -5.59910
C          0.91290        3.86160       -2.53290
C         -0.15240        3.01580       -2.73720
F          1.64420        3.71560       -1.40290
C         -2.12280        0.92490       -3.87480
S         -0.82520       -0.00250       -3.16680
C         -3.66760        4.24730       -4.27890
C         -5.01320        4.46580       -4.17550
S         -5.94500        3.04980       -4.63390
C         -5.51440        5.36660       -3.16850
C         -6.13900        4.83460       -2.07470
C         -5.74360        5.44320       -0.85770
C         -5.69640        4.76420        0.37200
C         -5.97180        3.31120        0.41630
C         -6.88480        2.68530        1.25130
C         -6.99750        1.30410        1.27080
C         -6.18160        0.50290        0.48040
S         -6.25740       -1.25990        0.38280
C         -6.91900       -1.76560        2.00530
C         -5.93220       -1.50270        3.12380
C         -5.25130        1.14860       -0.33390
F         -4.40560        0.41480       -1.09030
C         -5.14580        2.51740       -0.38230
C         -4.93620        5.34260        1.37180
C         -4.21260        6.54770        1.18910
C         -4.19490        7.18140       -0.06750
C         -3.11230        8.14930       -0.33290
C         -3.03140        9.37790        0.30880
C         -1.91620       10.18470        0.16770
C         -0.83500        9.77930       -0.60700
S          0.66820       10.66750       -0.82630
C          0.59150       12.00850        0.40620
C          0.77950       11.50790        1.82490
C         -0.94770        8.55740       -1.27260
C         -2.05310        7.74960       -1.14690
F          0.07290        8.13950       -2.05350
C         -4.94610        6.59680       -1.07040
S         -4.70220        6.87550       -2.78650
C         -3.17920        6.68790        2.15210
C         -3.02190        5.59010        2.94800
S         -4.35600        4.45570        2.76670
C         -1.74500        5.12770        3.39240
C         -1.36810        3.81600        3.44270
C          0.01000        3.60960        3.17180
C          0.61810        2.39380        2.81010
C         -0.09370        1.11810        2.96250
C         -0.17600        0.20480        1.91130
C         -0.82840       -1.00060        2.07560
C         -1.42120       -1.32380        3.28660
S         -2.21120       -2.90650        3.50190
C         -0.75450       -3.87210        4.04730
C         -0.19190       -3.39960        5.37120
C         -1.37050       -0.39490        4.31810
F         -1.95810       -0.66170        5.49800
C         -0.71100        0.81000        4.17180
C          1.86560        2.48220        2.20820
C          2.53300        3.71260        1.98690
C          1.93610        4.92530        2.37120
C          2.50180        6.21770        1.96520
C          2.84540        6.42790        0.63170
C          3.35910        7.63560        0.20640
C          3.55540        8.67860        1.10310
S          4.25510       10.24340        0.69290
C          5.02580        9.96910       -0.93990
C          4.08320       10.23660       -2.09730
C          3.16950        8.46680        2.42810
C          2.64750        7.26950        2.86580
F          3.32070        9.46930        3.32130
C          0.69050        4.83590        2.96530
S         -0.36150        6.20340        3.23930
C          3.72230        3.54780        1.23950
C          3.94270        2.26120        0.84480
S          2.75390        1.15780        1.50290
C          4.84890        1.83090       -0.16930
C          5.64820        2.62610       -0.93600
C          6.21960        1.95640       -2.04650
C          7.01570        2.50690       -3.06460
C          7.21290        3.95930       -3.13640
C          6.10540        4.80030       -3.01010
C          6.25300        6.16810       -3.04610
C          7.50000        6.75970       -3.23280
S          7.53700        8.52960       -3.31100
C          9.05950        8.99080       -2.40770
C          9.03420        8.50970       -0.97100
C          8.58820        5.91030       -3.40560
F          9.82370        6.40870       -3.63080
C          8.46040        4.53530       -3.34530
C          7.48930        1.62220       -4.02360
C          7.12980        0.25060       -4.05920
C          6.27130       -0.28100       -3.08440
C          5.75570       -1.65560       -3.14070
C          4.38650       -1.88100       -3.01790
C          3.86010       -3.15610       -3.05490
C          4.68480       -4.26060       -3.23130
S          4.14640       -5.93240       -3.30210
C          2.32520       -5.81960       -3.33510
C          1.79180       -5.35580       -4.67720
C          6.05690       -4.02330       -3.35020
C          6.59510       -2.75600       -3.30660
F          6.89120       -5.06690       -3.51960
C          5.85970        0.58920       -2.08470
S          4.81680        0.18060       -0.74640
C          7.66800       -0.39960       -5.21000
C          8.40350        0.42210       -5.98470
S          8.48930        2.04450       -5.38960
H          1.57910      -14.63480        8.39970
H          3.24520      -13.15640        7.06340
H          4.31500      -11.24500        7.43270
H          6.70060      -10.84770        6.62350
H          6.12600       -8.24330        2.86700
H          7.81610       -8.21320        2.31380
H          5.74540      -10.32760        1.51180
H          6.28720       -8.98540        0.49580
H          7.42440      -10.26400        0.95650
H         -2.21400      -11.50010        8.50310
H         -4.76490      -11.60140        8.47930
H         -5.95130      -10.51980        3.87170
H         -7.66600      -10.28780        4.28750
H         -6.51430       -8.07080        4.10420
H         -7.04570       -8.36120        5.76380
H         -5.34530       -8.57190        5.32950
H         -1.93050       -8.90900        4.49870
H          1.56940       -6.61820        2.19780
H          1.98300       -2.53530        0.35220
H          4.38790       -2.33220        0.33250
H          6.40900       -2.18360       -0.62270
H          6.60210       -2.24550        1.15300
H          8.76680       -2.97280       -0.88760
H          8.96460       -2.98030        0.86450
H          8.70050       -1.45180        0.01330
H          2.32830       -6.79720       -0.00040
H         -4.19600       -5.29790       -1.58210
H         -6.60560       -5.50010       -1.38880
H        -10.17760       -5.51280       -0.41440
H         -8.69530       -5.86340       -1.31280
H         -9.49670       -3.56950       -1.88580
H         -9.54860       -3.14190       -0.17210
H         -7.99430       -3.43120       -0.95120
H         -3.87320       -4.97980        2.67980
H         -3.45240       -3.05250       -1.41030
H         -3.85510       -1.94890       -3.58950
H         -5.66540       -0.91460       -2.62480
H         -7.77000       -2.12850       -2.85930
H         -9.16240       -2.90480       -7.10080
H        -10.49820       -1.72790       -7.00390
H        -11.34820       -3.96310       -7.72410
H        -10.68430       -4.69380       -6.25630
H        -12.00490       -3.52790       -6.14170
H         -6.19140        0.67230       -6.57020
H         -1.16450        4.24970       -5.70780
H          0.69560        5.75060       -5.31110
H          1.74360        7.46270       -4.57810
H          3.32880        7.91420       -3.95120
H          3.48400        7.28800       -6.37770
H          4.45540        6.22680       -5.35250
H          2.91200        5.66130       -5.98880
H         -0.38690        2.28530       -1.98000
H         -2.94150        4.99760       -4.02010
H         -6.69830        3.91700       -2.11330
H         -7.52380        3.27860        1.88730
H         -7.73290        0.85240        1.91730
H         -7.87400       -1.26620        2.16260
H         -7.10200       -2.83250        1.88960
H         -6.33360       -1.88190        4.06080
H         -4.98880       -2.00820        2.92610
H         -5.73810       -0.43670        3.23200
H         -4.39830        2.96180       -1.02250
H         -3.84680        9.70570        0.93600
H         -1.89420       11.13140        0.68220
H          1.41220       12.66590        0.11940
H         -0.34680       12.54510        0.26780
H          0.04440       10.74660        2.07840
H          1.77160       11.08170        1.94310
H          0.67770       12.33600        2.52340
H         -2.06720        6.79620       -1.65150
H         -2.45950        7.48640        2.12260
H         -2.08200        3.01390        3.50990
H          0.25660        0.44720        0.95340
H         -0.89120       -1.70830        1.26270
H         -0.01150       -3.82370        3.25000
H         -1.13160       -4.89040        4.13000
H         -0.97430       -3.36280        6.12600
H          0.24830       -2.40840        5.27690
H          0.58320       -4.08810        5.70240
H         -0.66730        1.49140        5.00760
H          2.68030        5.64730       -0.09350
H          3.59350        7.75270       -0.83780
H          5.85930       10.67160       -0.96030
H          5.42270        8.95510       -0.95460
H          4.60320       10.04430       -3.03470
H          3.75810       11.27390       -2.08680
H          3.19510        9.61160       -2.04140
H          2.38130        7.15880        3.90530
H          4.36210        4.36540        0.96710
H          5.81150        3.66650       -0.72710
H          5.11910        4.37970       -2.89120
H          5.39260        6.80760       -2.92730
H          9.06270       10.07980       -2.45970
H          9.92030        8.60810       -2.95130
H          8.16570        8.90440       -0.44750
H          9.00090        7.42230       -0.92700
H          9.93280        8.84610       -0.45800
H          9.34550        3.92920       -3.45920
H          3.71140       -1.04640       -2.91140
H          2.79600       -3.27370       -2.94040
H          2.00530       -6.84050       -3.12540
H          2.00320       -5.17980       -2.51470
H          0.70390       -5.33200       -4.65140
H          2.15380       -4.35930       -4.91990
H          2.10760       -6.03690       -5.46380
H          7.66510       -2.63710       -3.37910
H          7.49150       -1.43380       -5.44180
H          8.91930        0.18400       -6.89430
