
  xtb     03052208333D
 energy: -342.210374649991 gnorm: 0.000251285767 xtb: 6.4.1 (unknown)
206227  0     0  0            999 V2000
   10.8218   -8.0247    7.9076 C   0  0  0  0  0  0  0  0  0  0  0  0
    9.4827   -8.0908    7.5509 C   0  0  0  0  0  0  0  0  0  0  0  0
    8.8782   -7.0548    6.8618 C   0  0  0  0  0  0  0  0  0  0  0  0
    9.5804   -5.9036    6.5011 C   0  0  0  0  0  0  0  0  0  0  0  0
   10.9349   -5.8404    6.8192 C   0  0  0  0  0  0  0  0  0  0  0  0
   11.9730   -4.8473    6.5708 C   0  0  0  0  0  0  0  0  0  0  0  0
   11.7963   -3.7109    5.8541 C   0  0  0  0  0  0  0  0  0  0  0  0
   12.6677   -2.6205    5.5401 C   0  0  0  0  0  0  0  0  0  0  0  0
   12.1759   -1.5065    4.7848 C   0  0  0  0  0  0  0  0  0  0  0  0
   13.1080   -0.5519    4.5823 C   0  0  0  0  0  0  0  0  0  0  0  0
   14.6218   -0.9711    5.3001 S   0  0  0  0  0  0  0  0  0  0  0  0
   13.9884   -2.4438    5.8799 C   0  0  0  0  0  0  0  0  0  0  0  0
   13.1963   -5.3839    7.2189 C   0  0  0  0  0  0  0  0  0  0  0  0
   14.3182   -4.9177    7.2921 O   0  0  0  0  0  0  0  0  0  0  0  0
   12.8605   -6.6047    7.7552 N   0  0  0  0  0  0  0  0  0  0  0  0
   13.7908   -7.4194    8.4949 C   0  0  0  0  0  0  0  0  0  0  0  0
   13.5800   -7.2918   10.0014 C   0  0  0  0  0  0  0  0  0  0  0  0
   11.5294   -6.8991    7.5348 C   0  0  0  0  0  0  0  0  0  0  0  0
    8.8562   -4.8601    5.7459 C   0  0  0  0  0  0  0  0  0  0  0  0
    8.4552   -5.1751    4.4461 C   0  0  0  0  0  0  0  0  0  0  0  0
    7.7237   -4.2982    3.6765 C   0  0  0  0  0  0  0  0  0  0  0  0
    7.3750   -3.0266    4.1431 C   0  0  0  0  0  0  0  0  0  0  0  0
    7.8541   -2.6503    5.4058 C   0  0  0  0  0  0  0  0  0  0  0  0
    7.7762   -1.4088    6.1649 C   0  0  0  0  0  0  0  0  0  0  0  0
    7.4976   -0.1865    5.6454 C   0  0  0  0  0  0  0  0  0  0  0  0
    7.2424    1.0846    6.2509 C   0  0  0  0  0  0  0  0  0  0  0  0
    6.7283    2.1607    5.4547 C   0  0  0  0  0  0  0  0  0  0  0  0
    6.4422    3.2641    6.1773 C   0  0  0  0  0  0  0  0  0  0  0  0
    6.8040    3.0474    7.8503 S   0  0  0  0  0  0  0  0  0  0  0  0
    7.3315    1.4498    7.5744 C   0  0  0  0  0  0  0  0  0  0  0  0
    8.2542   -1.7465    7.5240 C   0  0  0  0  0  0  0  0  0  0  0  0
    8.3009   -1.0653    8.5318 O   0  0  0  0  0  0  0  0  0  0  0  0
    8.7354   -3.0345    7.4698 N   0  0  0  0  0  0  0  0  0  0  0  0
    9.2218   -3.6787    8.6663 C   0  0  0  0  0  0  0  0  0  0  0  0
    8.1615   -4.5726    9.3026 C   0  0  0  0  0  0  0  0  0  0  0  0
    8.5127   -3.5972    6.2225 C   0  0  0  0  0  0  0  0  0  0  0  0
    6.4527   -2.2357    3.3507 C   0  0  0  0  0  0  0  0  0  0  0  0
    5.5090   -1.3651    3.7965 C   0  0  0  0  0  0  0  0  0  0  0  0
    4.7046   -0.7910    2.7835 C   0  0  0  0  0  0  0  0  0  0  0  0
    3.6957    0.1856    2.9331 C   0  0  0  0  0  0  0  0  0  0  0  0
    3.4765    0.9343    4.1525 C   0  0  0  0  0  0  0  0  0  0  0  0
    3.1277    2.2592    4.2105 C   0  0  0  0  0  0  0  0  0  0  0  0
    2.9607    2.8110    5.4919 C   0  0  0  0  0  0  0  0  0  0  0  0
    3.1457    1.9392    6.5280 C   0  0  0  0  0  0  0  0  0  0  0  0
    2.9794    2.3911    8.2083 S   0  0  0  0  0  0  0  0  0  0  0  0
    3.0910    0.7835    9.0718 C   0  0  0  0  0  0  0  0  0  0  0  0
    4.5205    0.3375    9.3023 C   0  0  0  0  0  0  0  0  0  0  0  0
    3.6278    0.2409    5.8995 Se  0  0  0  0  0  2  0  0  0  0  0  0
    2.9451    0.4462    1.7875 C   0  0  0  0  0  0  0  0  0  0  0  0
    3.2140   -0.1399    0.5272 C   0  0  0  0  0  0  0  0  0  0  0  0
    4.3052   -1.0186    0.3530 C   0  0  0  0  0  0  0  0  0  0  0  0
    4.6185   -1.6445   -0.9128 C   0  0  0  0  0  0  0  0  0  0  0  0
    5.8583   -1.9916   -1.3793 C   0  0  0  0  0  0  0  0  0  0  0  0
    5.8982   -2.6866   -2.6022 C   0  0  0  0  0  0  0  0  0  0  0  0
    4.6783   -2.9533   -3.1567 C   0  0  0  0  0  0  0  0  0  0  0  0
    4.4342   -3.8096   -4.6580 S   0  0  0  0  0  0  0  0  0  0  0  0
    2.6145   -3.6875   -4.8111 C   0  0  0  0  0  0  0  0  0  0  0  0
    2.1373   -4.4683   -6.0165 C   0  0  0  0  0  0  0  0  0  0  0  0
    3.2862   -2.2664   -2.1011 Se  0  0  0  0  0  2  0  0  0  0  0  0
    5.0250   -1.3153    1.5088 C   0  0  0  0  0  0  0  0  0  0  0  0
    6.3599   -2.4334    1.6121 S   0  0  0  0  0  0  0  0  0  0  0  0
    2.2579    0.2444   -0.4402 C   0  0  0  0  0  0  0  0  0  0  0  0
    1.2497    1.0218    0.0510 C   0  0  0  0  0  0  0  0  0  0  0  0
    1.4973    1.4226    1.7326 S   0  0  0  0  0  0  0  0  0  0  0  0
    0.0756    1.3970   -0.6676 C   0  0  0  0  0  0  0  0  0  0  0  0
   -0.3245    0.8560   -1.8554 C   0  0  0  0  0  0  0  0  0  0  0  0
   -1.5801    1.3253   -2.3055 C   0  0  0  0  0  0  0  0  0  0  0  0
   -2.2531    0.9618   -3.4905 C   0  0  0  0  0  0  0  0  0  0  0  0
   -1.6381    0.1391   -4.5104 C   0  0  0  0  0  0  0  0  0  0  0  0
   -2.2541   -0.7515   -5.3455 C   0  0  0  0  0  0  0  0  0  0  0  0
   -1.4490   -1.3470   -6.3392 C   0  0  0  0  0  0  0  0  0  0  0  0
   -0.1508   -0.9307   -6.3444 C   0  0  0  0  0  0  0  0  0  0  0  0
    1.1633   -1.3932   -7.4000 S   0  0  0  0  0  0  0  0  0  0  0  0
    0.2870   -2.3201   -8.7156 C   0  0  0  0  0  0  0  0  0  0  0  0
    1.2653   -2.6586   -9.8230 C   0  0  0  0  0  0  0  0  0  0  0  0
    0.1947    0.3091   -4.9827 Se  0  0  0  0  0  2  0  0  0  0  0  0
   -3.5388    1.4796   -3.6348 C   0  0  0  0  0  0  0  0  0  0  0  0
   -4.1300    2.3713   -2.7096 C   0  0  0  0  0  0  0  0  0  0  0  0
   -3.4196    2.8007   -1.5714 C   0  0  0  0  0  0  0  0  0  0  0  0
   -3.9408    3.7853   -0.6470 C   0  0  0  0  0  0  0  0  0  0  0  0
   -3.8004    3.8041    0.7125 C   0  0  0  0  0  0  0  0  0  0  0  0
   -4.3069    4.9398    1.3739 C   0  0  0  0  0  0  0  0  0  0  0  0
   -4.8579    5.8879    0.5618 C   0  0  0  0  0  0  0  0  0  0  0  0
   -5.6371    7.3381    1.1496 S   0  0  0  0  0  0  0  0  0  0  0  0
   -5.5579    8.4139   -0.3257 C   0  0  0  0  0  0  0  0  0  0  0  0
   -4.1484    8.8887   -0.6132 C   0  0  0  0  0  0  0  0  0  0  0  0
   -4.8138    5.3508   -1.2434 Se  0  0  0  0  0  2  0  0  0  0  0  0
   -2.1616    2.2308   -1.3872 C   0  0  0  0  0  0  0  0  0  0  0  0
   -1.0956    2.5288   -0.0378 S   0  0  0  0  0  0  0  0  0  0  0  0
   -5.4674    2.6979   -3.0736 C   0  0  0  0  0  0  0  0  0  0  0  0
   -5.8858    2.1075   -4.2195 C   0  0  0  0  0  0  0  0  0  0  0  0
   -4.6230    1.1448   -4.9577 S   0  0  0  0  0  0  0  0  0  0  0  0
   -7.1847    2.1958   -4.8734 C   0  0  0  0  0  0  0  0  0  0  0  0
   -7.2219    2.6217   -6.2059 C   0  0  0  0  0  0  0  0  0  0  0  0
   -8.4046    2.7308   -6.8990 C   0  0  0  0  0  0  0  0  0  0  0  0
   -9.6329    2.4478   -6.2941 C   0  0  0  0  0  0  0  0  0  0  0  0
   -9.6292    2.0820   -4.9491 C   0  0  0  0  0  0  0  0  0  0  0  0
  -10.6854    1.6940   -4.0357 C   0  0  0  0  0  0  0  0  0  0  0  0
  -12.0312    1.7626   -3.9788 C   0  0  0  0  0  0  0  0  0  0  0  0
  -12.9932    2.4894   -4.7612 C   0  0  0  0  0  0  0  0  0  0  0  0
  -14.3126    2.0035   -5.0052 C   0  0  0  0  0  0  0  0  0  0  0  0
  -15.0912    2.9014   -5.6480 C   0  0  0  0  0  0  0  0  0  0  0  0
  -14.2634    4.3843   -5.9382 S   0  0  0  0  0  0  0  0  0  0  0  0
  -12.8357    3.7678   -5.2259 C   0  0  0  0  0  0  0  0  0  0  0  0
   -9.9934    1.0939   -2.8628 C   0  0  0  0  0  0  0  0  0  0  0  0
  -10.4979    0.5614   -1.8971 O   0  0  0  0  0  0  0  0  0  0  0  0
   -8.6433    1.2938   -3.0348 N   0  0  0  0  0  0  0  0  0  0  0  0
   -7.7136    0.6418   -2.1416 C   0  0  0  0  0  0  0  0  0  0  0  0
   -7.1619   -0.6461   -2.7456 C   0  0  0  0  0  0  0  0  0  0  0  0
   -8.3987    1.8735   -4.2714 C   0  0  0  0  0  0  0  0  0  0  0  0
  -10.8444    2.5473   -7.1226 C   0  0  0  0  0  0  0  0  0  0  0  0
  -11.0987    3.7685   -7.7567 C   0  0  0  0  0  0  0  0  0  0  0  0
  -12.2261    3.9833   -8.5251 C   0  0  0  0  0  0  0  0  0  0  0  0
  -13.1771    2.9839   -8.6604 C   0  0  0  0  0  0  0  0  0  0  0  0
  -12.9350    1.7563   -8.0734 C   0  0  0  0  0  0  0  0  0  0  0  0
  -13.7234    0.5355   -8.0609 C   0  0  0  0  0  0  0  0  0  0  0  0
  -14.9981    0.4659   -8.5108 C   0  0  0  0  0  0  0  0  0  0  0  0
  -15.9533   -0.6009   -8.5294 C   0  0  0  0  0  0  0  0  0  0  0  0
  -15.7891   -1.9561   -8.1095 C   0  0  0  0  0  0  0  0  0  0  0  0
  -16.9088   -2.6921   -8.2666 C   0  0  0  0  0  0  0  0  0  0  0  0
  -18.2142   -1.7740   -8.9308 S   0  0  0  0  0  0  0  0  0  0  0  0
  -17.2318   -0.3828   -8.9977 C   0  0  0  0  0  0  0  0  0  0  0  0
  -12.8415   -0.4821   -7.4402 C   0  0  0  0  0  0  0  0  0  0  0  0
  -12.9930   -1.6840   -7.3335 O   0  0  0  0  0  0  0  0  0  0  0  0
  -11.7056    0.1697   -7.0054 N   0  0  0  0  0  0  0  0  0  0  0  0
  -10.5381   -0.6060   -6.6327 C   0  0  0  0  0  0  0  0  0  0  0  0
  -10.7376   -1.4076   -5.3507 C   0  0  0  0  0  0  0  0  0  0  0  0
  -11.7455    1.5130   -7.3564 C   0  0  0  0  0  0  0  0  0  0  0  0
   11.2885   -8.8323    8.4485 H   0  0  0  0  0  0  0  0  0  0  0  0
    8.9035   -8.9618    7.8181 H   0  0  0  0  0  0  0  0  0  0  0  0
    7.8324   -7.1254    6.5985 H   0  0  0  0  0  0  0  0  0  0  0  0
   10.8082   -3.5794    5.4315 H   0  0  0  0  0  0  0  0  0  0  0  0
   11.1639   -1.4440    4.4242 H   0  0  0  0  0  0  0  0  0  0  0  0
   13.0129    0.3778    4.0580 H   0  0  0  0  0  0  0  0  0  0  0  0
   14.6090   -3.1148    6.4393 H   0  0  0  0  0  0  0  0  0  0  0  0
   14.7910   -7.0671    8.2285 H   0  0  0  0  0  0  0  0  0  0  0  0
   13.6823   -8.4606    8.1765 H   0  0  0  0  0  0  0  0  0  0  0  0
   14.2931   -7.9188   10.5295 H   0  0  0  0  0  0  0  0  0  0  0  0
   12.5727   -7.5961   10.2774 H   0  0  0  0  0  0  0  0  0  0  0  0
   13.7270   -6.2597   10.3105 H   0  0  0  0  0  0  0  0  0  0  0  0
    8.7180   -6.1444    4.0496 H   0  0  0  0  0  0  0  0  0  0  0  0
    7.3877   -4.6020    2.6965 H   0  0  0  0  0  0  0  0  0  0  0  0
    7.3804   -0.1545    4.5689 H   0  0  0  0  0  0  0  0  0  0  0  0
    6.5719    2.0841    4.3928 H   0  0  0  0  0  0  0  0  0  0  0  0
    6.0368    4.1975    5.8422 H   0  0  0  0  0  0  0  0  0  0  0  0
    7.6868    0.8489    8.3876 H   0  0  0  0  0  0  0  0  0  0  0  0
    9.4780   -2.8678    9.3545 H   0  0  0  0  0  0  0  0  0  0  0  0
   10.1228   -4.2486    8.4387 H   0  0  0  0  0  0  0  0  0  0  0  0
    7.2784   -3.9866    9.5470 H   0  0  0  0  0  0  0  0  0  0  0  0
    8.5531   -5.0117   10.2160 H   0  0  0  0  0  0  0  0  0  0  0  0
    7.8764   -5.3749    8.6265 H   0  0  0  0  0  0  0  0  0  0  0  0
    5.3697   -1.1739    4.8465 H   0  0  0  0  0  0  0  0  0  0  0  0
    3.0227    2.8631    3.3251 H   0  0  0  0  0  0  0  0  0  0  0  0
    2.6957    3.8415    5.6529 H   0  0  0  0  0  0  0  0  0  0  0  0
    2.5744    0.9472   10.0175 H   0  0  0  0  0  0  0  0  0  0  0  0
    2.5287    0.0584    8.4771 H   0  0  0  0  0  0  0  0  0  0  0  0
    4.5295   -0.5932    9.8655 H   0  0  0  0  0  0  0  0  0  0  0  0
    5.0685    1.0909    9.8630 H   0  0  0  0  0  0  0  0  0  0  0  0
    5.0364    0.1686    8.3562 H   0  0  0  0  0  0  0  0  0  0  0  0
    6.7628   -1.7081   -0.8684 H   0  0  0  0  0  0  0  0  0  0  0  0
    6.8186   -2.9886   -3.0709 H   0  0  0  0  0  0  0  0  0  0  0  0
    2.3652   -2.6258   -4.9023 H   0  0  0  0  0  0  0  0  0  0  0  0
    2.1849   -4.0870   -3.8870 H   0  0  0  0  0  0  0  0  0  0  0  0
    2.4178   -5.5154   -5.9296 H   0  0  0  0  0  0  0  0  0  0  0  0
    2.5784   -4.0630   -6.9238 H   0  0  0  0  0  0  0  0  0  0  0  0
    1.0541   -4.3997   -6.0893 H   0  0  0  0  0  0  0  0  0  0  0  0
    2.3103   -0.0221   -1.4810 H   0  0  0  0  0  0  0  0  0  0  0  0
    0.2357    0.0836   -2.3529 H   0  0  0  0  0  0  0  0  0  0  0  0
   -3.2883   -1.0287   -5.2341 H   0  0  0  0  0  0  0  0  0  0  0  0
   -1.8467   -2.0694   -7.0302 H   0  0  0  0  0  0  0  0  0  0  0  0
   -0.5170   -1.6804   -9.0793 H   0  0  0  0  0  0  0  0  0  0  0  0
   -0.1279   -3.2235   -8.2682 H   0  0  0  0  0  0  0  0  0  0  0  0
    1.6982   -1.7519  -10.2391 H   0  0  0  0  0  0  0  0  0  0  0  0
    2.0716   -3.2828   -9.4447 H   0  0  0  0  0  0  0  0  0  0  0  0
    0.7513   -3.1970  -10.6163 H   0  0  0  0  0  0  0  0  0  0  0  0
   -3.3533    2.9891    1.2555 H   0  0  0  0  0  0  0  0  0  0  0  0
   -4.2563    5.0624    2.4417 H   0  0  0  0  0  0  0  0  0  0  0  0
   -6.2199    9.2479   -0.0953 H   0  0  0  0  0  0  0  0  0  0  0  0
   -5.9747    7.8459   -1.1636 H   0  0  0  0  0  0  0  0  0  0  0  0
   -3.4933    8.0436   -0.8232 H   0  0  0  0  0  0  0  0  0  0  0  0
   -4.1495    9.5471   -1.4794 H   0  0  0  0  0  0  0  0  0  0  0  0
   -3.7496    9.4312    0.2407 H   0  0  0  0  0  0  0  0  0  0  0  0
   -6.1043    3.3497   -2.4981 H   0  0  0  0  0  0  0  0  0  0  0  0
   -6.2876    2.8548   -6.6946 H   0  0  0  0  0  0  0  0  0  0  0  0
   -8.3920    3.0167   -7.9400 H   0  0  0  0  0  0  0  0  0  0  0  0
  -12.4647    1.2135   -3.1454 H   0  0  0  0  0  0  0  0  0  0  0  0
  -14.6341    1.0151   -4.7298 H   0  0  0  0  0  0  0  0  0  0  0  0
  -16.1093    2.7953   -5.9648 H   0  0  0  0  0  0  0  0  0  0  0  0
  -11.9730    4.3956   -5.1299 H   0  0  0  0  0  0  0  0  0  0  0  0
   -6.9023    1.3199   -1.8745 H   0  0  0  0  0  0  0  0  0  0  0  0
   -8.2911    0.4079   -1.2425 H   0  0  0  0  0  0  0  0  0  0  0  0
   -6.4679   -1.1094   -2.0496 H   0  0  0  0  0  0  0  0  0  0  0  0
   -7.9742   -1.3416   -2.9451 H   0  0  0  0  0  0  0  0  0  0  0  0
   -6.6389   -0.4465   -3.6779 H   0  0  0  0  0  0  0  0  0  0  0  0
  -10.3906    4.5718   -7.6133 H   0  0  0  0  0  0  0  0  0  0  0  0
  -12.3793    4.9415   -8.9968 H   0  0  0  0  0  0  0  0  0  0  0  0
  -14.0773    3.1602   -9.2286 H   0  0  0  0  0  0  0  0  0  0  0  0
  -15.3940    1.3909   -8.9185 H   0  0  0  0  0  0  0  0  0  0  0  0
  -14.8638   -2.3371   -7.7205 H   0  0  0  0  0  0  0  0  0  0  0  0
  -17.0648   -3.7274   -8.0379 H   0  0  0  0  0  0  0  0  0  0  0  0
  -17.6401    0.5346   -9.3754 H   0  0  0  0  0  0  0  0  0  0  0  0
  -10.3375   -1.3104   -7.4503 H   0  0  0  0  0  0  0  0  0  0  0  0
   -9.6888    0.0703   -6.5424 H   0  0  0  0  0  0  0  0  0  0  0  0
   -9.8271   -1.9592   -5.1297 H   0  0  0  0  0  0  0  0  0  0  0  0
  -11.5512   -2.1147   -5.4839 H   0  0  0  0  0  0  0  0  0  0  0  0
  -10.9698   -0.7611   -4.5105 H   0  0  0  0  0  0  0  0  0  0  0  0
  1  2  2  0  0  0  0
  2  3  1  0  0  0  0
  3  4  2  0  0  0  0
  4  5  1  0  0  0  0
  5  6  1  0  0  0  0
  6  7  2  0  0  0  0
  7  8  1  0  0  0  0
  8  9  1  0  0  0  0
  9 10  2  0  0  0  0
 10 11  1  0  0  0  0
 11 12  1  0  0  0  0
  6 13  1  0  0  0  0
 13 14  2  0  0  0  0
 13 15  1  0  0  0  0
 15 16  1  0  0  0  0
 16 17  1  0  0  0  0
 15 18  1  0  0  0  0
  4 19  1  0  0  0  0
 19 20  2  0  0  0  0
 20 21  1  0  0  0  0
 21 22  2  0  0  0  0
 22 23  1  0  0  0  0
 23 24  1  0  0  0  0
 24 25  2  0  0  0  0
 25 26  1  0  0  0  0
 26 27  1  0  0  0  0
 27 28  2  0  0  0  0
 28 29  1  0  0  0  0
 29 30  1  0  0  0  0
 24 31  1  0  0  0  0
 31 32  2  0  0  0  0
 31 33  1  0  0  0  0
 33 34  1  0  0  0  0
 34 35  1  0  0  0  0
 33 36  1  0  0  0  0
 22 37  1  0  0  0  0
 37 38  2  0  0  0  0
 38 39  1  0  0  0  0
 39 40  2  0  0  0  0
 40 41  1  0  0  0  0
 41 42  2  0  0  0  0
 42 43  1  0  0  0  0
 43 44  2  0  0  0  0
 44 45  1  0  0  0  0
 45 46  1  0  0  0  0
 46 47  1  0  0  0  0
 44 48  1  0  0  0  0
 40 49  1  0  0  0  0
 49 50  2  0  0  0  0
 50 51  1  0  0  0  0
 51 52  1  0  0  0  0
 52 53  2  0  0  0  0
 53 54  1  0  0  0  0
 54 55  2  0  0  0  0
 55 56  1  0  0  0  0
 56 57  1  0  0  0  0
 57 58  1  0  0  0  0
 55 59  1  0  0  0  0
 51 60  2  0  0  0  0
 60 61  1  0  0  0  0
 50 62  1  0  0  0  0
 62 63  2  0  0  0  0
 63 64  1  0  0  0  0
 63 65  1  0  0  0  0
 65 66  2  0  0  0  0
 66 67  1  0  0  0  0
 67 68  2  0  0  0  0
 68 69  1  0  0  0  0
 69 70  2  0  0  0  0
 70 71  1  0  0  0  0
 71 72  2  0  0  0  0
 72 73  1  0  0  0  0
 73 74  1  0  0  0  0
 74 75  1  0  0  0  0
 72 76  1  0  0  0  0
 68 77  1  0  0  0  0
 77 78  2  0  0  0  0
 78 79  1  0  0  0  0
 79 80  1  0  0  0  0
 80 81  2  0  0  0  0
 81 82  1  0  0  0  0
 82 83  2  0  0  0  0
 83 84  1  0  0  0  0
 84 85  1  0  0  0  0
 85 86  1  0  0  0  0
 83 87  1  0  0  0  0
 79 88  2  0  0  0  0
 88 89  1  0  0  0  0
 78 90  1  0  0  0  0
 90 91  2  0  0  0  0
 91 92  1  0  0  0  0
 91 93  1  0  0  0  0
 93 94  2  0  0  0  0
 94 95  1  0  0  0  0
 95 96  2  0  0  0  0
 96 97  1  0  0  0  0
 97 98  1  0  0  0  0
 98 99  2  0  0  0  0
 99100  1  0  0  0  0
100101  1  0  0  0  0
101102  2  0  0  0  0
102103  1  0  0  0  0
103104  1  0  0  0  0
 98105  1  0  0  0  0
105106  2  0  0  0  0
105107  1  0  0  0  0
107108  1  0  0  0  0
108109  1  0  0  0  0
107110  1  0  0  0  0
 96111  1  0  0  0  0
111112  2  0  0  0  0
112113  1  0  0  0  0
113114  2  0  0  0  0
114115  1  0  0  0  0
115116  1  0  0  0  0
116117  2  0  0  0  0
117118  1  0  0  0  0
118119  1  0  0  0  0
119120  2  0  0  0  0
120121  1  0  0  0  0
121122  1  0  0  0  0
116123  1  0  0  0  0
123124  2  0  0  0  0
123125  1  0  0  0  0
125126  1  0  0  0  0
126127  1  0  0  0  0
125128  1  0  0  0  0
 18  1  1  0  0  0  0
 36 19  1  0  0  0  0
 61 37  1  0  0  0  0
 89 65  1  0  0  0  0
110 93  1  0  0  0  0
128111  1  0  0  0  0
 18  5  2  0  0  0  0
 36 23  2  0  0  0  0
 60 39  1  0  0  0  0
 88 67  1  0  0  0  0
110 97  2  0  0  0  0
128115  2  0  0  0  0
 12  8  2  0  0  0  0
 30 26  2  0  0  0  0
 48 41  1  0  0  0  0
 64 49  1  0  0  0  0
 76 69  1  0  0  0  0
 92 77  1  0  0  0  0
104100  2  0  0  0  0
122118  2  0  0  0  0
 59 52  1  0  0  0  0
 87 80  1  0  0  0  0
  1129  1  0  0  0  0
  2130  1  0  0  0  0
  3131  1  0  0  0  0
  7132  1  0  0  0  0
  9133  1  0  0  0  0
 10134  1  0  0  0  0
 12135  1  0  0  0  0
 16136  1  0  0  0  0
 16137  1  0  0  0  0
 17138  1  0  0  0  0
 17139  1  0  0  0  0
 17140  1  0  0  0  0
 20141  1  0  0  0  0
 21142  1  0  0  0  0
 25143  1  0  0  0  0
 27144  1  0  0  0  0
 28145  1  0  0  0  0
 30146  1  0  0  0  0
 34147  1  0  0  0  0
 34148  1  0  0  0  0
 35149  1  0  0  0  0
 35150  1  0  0  0  0
 35151  1  0  0  0  0
 38152  1  0  0  0  0
 42153  1  0  0  0  0
 43154  1  0  0  0  0
 46155  1  0  0  0  0
 46156  1  0  0  0  0
 47157  1  0  0  0  0
 47158  1  0  0  0  0
 47159  1  0  0  0  0
 53160  1  0  0  0  0
 54161  1  0  0  0  0
 57162  1  0  0  0  0
 57163  1  0  0  0  0
 58164  1  0  0  0  0
 58165  1  0  0  0  0
 58166  1  0  0  0  0
 62167  1  0  0  0  0
 66168  1  0  0  0  0
 70169  1  0  0  0  0
 71170  1  0  0  0  0
 74171  1  0  0  0  0
 74172  1  0  0  0  0
 75173  1  0  0  0  0
 75174  1  0  0  0  0
 75175  1  0  0  0  0
 81176  1  0  0  0  0
 82177  1  0  0  0  0
 85178  1  0  0  0  0
 85179  1  0  0  0  0
 86180  1  0  0  0  0
 86181  1  0  0  0  0
 86182  1  0  0  0  0
 90183  1  0  0  0  0
 94184  1  0  0  0  0
 95185  1  0  0  0  0
 99186  1  0  0  0  0
101187  1  0  0  0  0
102188  1  0  0  0  0
104189  1  0  0  0  0
108190  1  0  0  0  0
108191  1  0  0  0  0
109192  1  0  0  0  0
109193  1  0  0  0  0
109194  1  0  0  0  0
112195  1  0  0  0  0
113196  1  0  0  0  0
114197  1  0  0  0  0
117198  1  0  0  0  0
119199  1  0  0  0  0
120200  1  0  0  0  0
122201  1  0  0  0  0
126202  1  0  0  0  0
126203  1  0  0  0  0
127204  1  0  0  0  0
127205  1  0  0  0  0
127206  1  0  0  0  0
M  END
