284

C         -8.44150      -20.94300        0.34070
C         -7.68750      -20.40050       -0.63640
C         -7.89270      -18.99580       -0.78380
C         -7.24490      -18.11470       -1.66390
C         -6.25790      -18.58990       -2.64180
C         -6.55360      -19.63650       -3.51450
C         -5.61690      -20.07840       -4.42250
C         -4.35040      -19.49770       -4.50500
S         -3.25960      -20.14660       -5.73030
C         -1.57620      -19.84110       -5.05920
C         -0.60560      -20.79200       -5.73160
C         -4.08170      -18.43350       -3.64970
F         -2.89340      -17.78830       -3.69000
C         -5.00740      -17.98880       -2.72750
C         -7.58150      -16.77260       -1.56130
C         -8.53540      -16.29270       -0.63220
C         -9.16810      -17.16840        0.26560
C        -10.10620      -16.63380        1.25870
C         -9.75090      -15.52460        2.02660
C        -10.65380      -14.92960        2.88260
C        -11.94910      -15.42230        3.00060
S        -13.19120      -14.67720        4.00760
C        -12.75790      -12.90210        3.92360
C        -12.78950      -12.37030        2.50440
C        -12.26910      -16.57530        2.28480
C        -11.37600      -17.17900        1.42510
F        -13.50190      -17.10470        2.40460
C         -8.83890      -18.51040        0.15280
S         -9.45100      -19.79900        1.15680
C         -8.74030      -14.89840       -0.75830
C         -7.95860      -14.31000       -1.70830
S         -6.94740      -15.47240       -2.54090
C         -7.86980      -12.90510       -1.94680
C         -8.43220      -11.93690       -1.16450
C         -8.08580      -10.61860       -1.53560
C         -8.46480       -9.41930       -0.89160
C         -9.24550       -9.38840        0.32710
C        -10.09180       -8.39170        0.72950
C        -10.62200       -8.49450        2.03260
C        -10.19760       -9.58290        2.73420
S        -10.56620      -10.07430        4.37010
C        -11.87340       -8.88390        4.84760
C        -12.40150       -9.24950        6.22060
Se        -9.05490      -10.66620        1.72080
C         -7.96600       -8.24780       -1.45970
C         -7.14470       -8.23890       -2.61230
C         -6.79820       -9.43470       -3.27710
C         -6.01590       -9.43080       -4.49350
C         -5.05340      -10.31810       -4.88800
C         -4.48590      -10.09640       -6.15790
C         -5.00080       -9.03570       -6.84940
S         -4.49160       -8.58590       -8.46200
C         -5.47010       -7.07370       -8.77690
C         -4.89080       -5.84440       -8.10690
Se        -6.33850       -8.16410       -5.85740
C         -7.25890      -10.60620       -2.68620
S         -6.91470      -12.22450       -3.23910
C         -6.65250       -6.94610       -2.89760
C         -7.07750       -5.98130       -2.03070
S         -8.14740       -6.63430       -0.81340
C         -6.64170       -4.62270       -2.04620
C         -5.77370       -4.08980       -2.95530
C         -5.38550       -2.76340       -2.66230
C         -4.42980       -1.99090       -3.33990
C         -3.67880       -2.55350       -4.47040
C         -2.99610       -3.75730       -4.32070
C         -2.29400       -4.31960       -5.36860
C         -2.25780       -3.69930       -6.61170
S         -1.42420       -4.31190       -8.03810
C         -0.49890       -5.77190       -7.44410
C         -1.34060       -7.03250       -7.37600
C         -2.93910       -2.48730       -6.74410
F         -2.92600       -1.86010       -7.93760
C         -3.63050       -1.90860       -5.70310
C         -4.18350       -0.72850       -2.83150
C         -4.82700       -0.21850       -1.67410
C         -5.78150       -0.99690       -0.99590
C         -6.43170       -0.52740        0.23400
C         -5.68430       -0.04600        1.30780
C         -6.30790        0.38760        2.45770
C         -7.69480        0.35200        2.58940
S         -8.37510        0.89470        4.12990
C         -9.88310        1.81730        3.65180
C         -9.57270        2.96110        2.70760
C         -8.42530       -0.16380        1.52360
C         -7.81550       -0.58670        0.35990
F         -9.77090       -0.26730        1.59120
C         -6.04160       -2.25710       -1.51430
S         -7.08800       -3.46620       -0.80880
C         -4.32570        1.06060       -1.32140
C         -3.31580        1.49360       -2.12890
S         -2.97430        0.37150       -3.43340
C         -2.46570        2.62200       -1.94460
C         -1.36280        2.94160       -2.67910
C         -0.59090        3.99200       -2.12790
C          0.66620        4.45700       -2.56520
C          1.34740        3.93410       -3.73230
C          2.11960        4.65570       -4.60190
C          2.78740        3.92350       -5.60330
C          2.58330        2.57600       -5.55660
S          3.24010        1.31730       -6.57710
C          3.57350        2.20620       -8.14000
C          2.30140        2.69610       -8.80180
Se         1.42300        2.09100       -4.16840
C          1.27080        5.41840       -1.76050
C          0.68160        5.94720       -0.58630
C         -0.59130        5.50530       -0.16830
C         -1.23580        5.96980        1.04130
C         -2.57640        6.17020        1.22460
C         -2.98270        6.52150        2.52630
C         -1.97790        6.59590        3.44660
S         -2.20850        7.11010        5.10160
C         -0.71880        6.41830        5.90360
C         -0.77940        4.90920        6.01920
Se        -0.30370        6.24190        2.65920
C         -1.18350        4.52110       -0.95620
S         -2.66380        3.68180       -0.56500
C          1.55240        6.84700        0.07540
C          2.77720        6.96280       -0.51200
S          2.89130        6.02370       -1.98440
C          3.91660        7.65340       -0.01020
C          5.18050        7.65370       -0.51940
C          6.12650        8.31850        0.29820
C          7.50480        8.49300        0.05100
C          8.15450        7.88850       -1.08910
C          7.92250        6.64830       -1.62050
C          8.67630        6.30720       -2.75770
C          9.54210        7.27470       -3.18580
S         10.57530        7.10880       -4.58350
C         11.47250        8.70290       -4.51810
C         12.46890        8.79020       -5.65550
Se         9.48100        8.79640       -2.07590
C          8.19390        9.26930        0.97630
C          7.59790        9.83330        2.12880
C          6.22260        9.64620        2.39010
C          5.54160       10.25140        3.51560
C          4.45540        9.75200        4.18070
C          3.85190       10.59520        5.13650
C          4.43520       11.81970        5.26540
S          3.99140       13.18130        6.27170
C          2.66970       12.50510        7.33520
C          3.19950       11.57960        8.41320
Se         5.92560       12.00320        4.14360
C          5.52990        8.87540        1.45640
S          3.82340        8.51460        1.51070
C          8.54680       10.52440        2.91840
C          9.80920       10.52260        2.39820
S          9.89590        9.63280        0.89710
C         10.96020       11.16180        2.94840
C         10.99720       11.92060        4.08060
C         12.27260       12.47170        4.35720
C         12.63920       13.27680        5.44850
C         11.62640       13.67140        6.43350
C         10.40660       14.20130        6.01300
C          9.39210       14.44680        6.91380
C          9.55970       14.16830        8.26580
S          8.25330       14.35140        9.44260
C          6.84210       13.65710        8.50470
C          7.10060       12.22790        8.07170
C         10.80950       13.71880        8.68550
F         11.02390       13.47780        9.99210
C         11.83260       13.46760        7.79460
C         13.97530       13.63760        5.53090
C         14.94400       13.23590        4.57820
C         14.57860       12.42350        3.49330
C         15.56630       11.92900        2.52700
C         15.34710       12.02410        1.15650
C         16.25960       11.52320        0.24770
C         17.42410       10.89880        0.68030
S         18.66000       10.20820       -0.36310
C         17.88690       10.25670       -2.02340
C         18.77950        9.50690       -2.99440
C         17.63540       10.81770        2.05870
C         16.73680       11.31600        2.97310
F         18.75660       10.22160        2.51350
C         13.23790       12.07690        3.39960
S         12.52440       11.06710        2.16660
C         16.22370       13.79700        4.86810
C         16.22310       14.56360        5.97720
S         14.67960       14.66460        6.75240
H         -8.47780      -21.96890        0.65170
H         -6.99020      -20.96080       -1.23220
H         -7.53070      -20.09420       -3.48710
H         -5.84810      -20.89010       -5.09480
H         -1.61890      -20.01640       -3.98530
H         -1.30970      -18.80370       -5.25480
H          0.39710      -20.62750       -5.34290
H         -0.59410      -20.62790       -6.80680
H         -0.88950      -21.82500       -5.54380
H         -4.73420      -17.17310       -2.07640
H         -8.74830      -15.12930        1.96000
H        -10.34640      -14.07010        3.45790
H        -11.79050      -12.74350        4.39820
H        -13.52810      -12.43020        4.53370
H        -12.02360      -12.84640        1.89470
H        -12.60520      -11.29790        2.50500
H        -13.76000      -12.55680        2.05010
H        -11.69120      -18.04440        0.86410
H         -9.45770      -14.35670       -0.17160
H         -9.08580      -12.17240       -0.34340
H        -10.37500       -7.57950        0.08190
H        -11.29420       -7.75340        2.42810
H        -12.65820       -8.94060        4.09290
H        -11.42740       -7.88930        4.84890
H        -13.17750       -8.54640        6.51490
H        -11.60230       -9.21550        6.95750
H        -12.82200      -10.25250        6.21430
H         -4.71020      -11.11390       -4.24890
H         -3.70360      -10.71540       -6.56160
H         -6.49100       -7.27780       -8.44000
H         -5.46760       -6.96620       -9.86110
H         -3.89340       -5.63660       -8.48480
H         -4.83600       -5.98050       -7.02570
H         -5.52380       -4.98330       -8.30960
H         -5.94480       -6.74190       -3.68060
H         -5.40810       -4.62500       -3.81130
H         -2.99840       -4.25320       -3.36150
H         -1.77350       -5.24840       -5.20370
H         -0.04800       -5.51530       -6.48640
H          0.29560       -5.88530       -8.18200
H         -0.72570       -7.86520       -7.04000
H         -1.74060       -7.27700       -8.35680
H         -2.17490       -6.92210       -6.68740
H         -4.14030       -0.97180       -5.86360
H         -4.60710       -0.02870        1.24430
H         -5.72680        0.76320        3.28570
H        -10.60550        1.12280        3.22900
H        -10.26080        2.18610        4.60550
H        -10.47810        3.53350        2.51600
H         -9.19490        2.58840        1.75710
H         -8.82530        3.62230        3.14120
H         -8.43320       -0.95890       -0.44260
H         -4.68080        1.63420       -0.48390
H         -1.11020        2.41260       -3.58290
H          2.19240        5.72920       -4.55230
H          3.41680        4.40410       -6.33220
H          4.26840        3.01740       -7.92660
H          4.07790        1.46270       -8.75680
H          1.63210        1.86180       -8.99880
H          2.54090        3.18240       -9.74540
H          1.78420        3.41040       -8.16420
H         -3.28280        6.09300        0.41560
H         -4.01010        6.71060        2.78490
H         -0.68770        6.89160        6.88450
H          0.14560        6.74660        5.31730
H         -1.65790        4.60710        6.58450
H          0.10970        4.54110        6.52690
H         -0.82740        4.45010        5.03210
H          1.30390        7.39810        0.96720
H          5.41510        7.20010       -1.46490
H          7.24180        5.94900       -1.16470
H          8.58660        5.35670       -3.25440
H         11.96970        8.75210       -3.54490
H         10.72260        9.49710       -4.58220
H         11.95960        8.71280       -6.61320
H         13.19610        7.98470       -5.58610
H         12.99400        9.74190       -5.61450
H          4.08870        8.75300        4.01900
H          2.98760       10.28040        5.69450
H          1.94290       12.01610        6.68800
H          2.21060       13.39110        7.77340
H          3.89900       12.10800        9.05650
H          3.71090       10.72360        7.97820
H          2.37370       11.21730        9.02230
H          8.31320       10.98600        3.86210
H         10.14100       12.07240        4.71050
H         10.25670       14.43020        4.96870
H          8.45390       14.84700        6.56190
H          6.01590       13.71280        9.21270
H          6.61610       14.30230        7.65700
H          7.94490       12.18030        7.38590
H          7.31870       11.60140        8.93360
H          6.22550       11.83150        7.56140
H         12.76540       13.07340        8.16550
H         14.45820       12.51440        0.79040
H         16.05590       11.62660       -0.80530
H         17.78000       11.30030       -2.32040
H         16.90790        9.78350       -1.94720
H         18.33840        9.51990       -3.98900
H         19.76270        9.96900       -3.04210
H         18.90050        8.47340       -2.67860
H         16.93740       11.19710        4.02630
H         17.09080       13.64170        4.25260
H         17.04750       15.09590        6.41010
