
  xtb     03052202483D
 energy: -486.859836961030 gnorm: 0.000441586600 xtb: 6.4.1 (unknown)
284313  0     0  0            999 V2000
   -4.7617   -3.8214    9.8243 C   0  0  0  0  0  0  0  0  0  0  0  0
   -5.0161   -4.9214    9.0875 C   0  0  0  0  0  0  0  0  0  0  0  0
   -5.2218   -4.6332    7.7061 C   0  0  0  0  0  0  0  0  0  0  0  0
   -5.4562   -5.5458    6.6574 C   0  0  0  0  0  0  0  0  0  0  0  0
   -5.4336   -6.9763    6.8704 C   0  0  0  0  0  0  0  0  0  0  0  0
   -4.5757   -7.6919    7.6579 C   0  0  0  0  0  0  0  0  0  0  0  0
   -4.7811   -9.0852    7.6907 C   0  0  0  0  0  0  0  0  0  0  0  0
   -5.8259   -9.5337    6.9349 C   0  0  0  0  0  0  0  0  0  0  0  0
   -6.3427  -11.2038    6.8911 S   0  0  0  0  0  0  0  0  0  0  0  0
   -7.3427  -11.2343    5.3621 C   0  0  0  0  0  0  0  0  0  0  0  0
   -6.4874  -11.1389    4.1155 C   0  0  0  0  0  0  0  0  0  0  0  0
   -6.6951   -8.1121    6.0502 Se  0  0  0  0  0  2  0  0  0  0  0  0
   -5.6881   -4.9894    5.4040 C   0  0  0  0  0  0  0  0  0  0  0  0
   -5.6596   -3.5978    5.1603 C   0  0  0  0  0  0  0  0  0  0  0  0
   -5.3540   -2.6839    6.1884 C   0  0  0  0  0  0  0  0  0  0  0  0
   -5.2011   -1.2665    5.9419 C   0  0  0  0  0  0  0  0  0  0  0  0
   -5.5073   -0.2348    6.7834 C   0  0  0  0  0  0  0  0  0  0  0  0
   -5.1435    1.0611    6.3601 C   0  0  0  0  0  0  0  0  0  0  0  0
   -4.5028    1.1093    5.1592 C   0  0  0  0  0  0  0  0  0  0  0  0
   -3.7957    2.4593    4.2988 S   0  0  0  0  0  0  0  0  0  0  0  0
   -4.2853    3.9026    5.2973 C   0  0  0  0  0  0  0  0  0  0  0  0
   -5.7351    4.2824    5.0734 C   0  0  0  0  0  0  0  0  0  0  0  0
   -4.3417   -0.5926    4.3910 Se  0  0  0  0  0  2  0  0  0  0  0  0
   -5.1566   -3.2425    7.4513 C   0  0  0  0  0  0  0  0  0  0  0  0
   -4.7678   -2.3595    8.9041 S   0  0  0  0  0  0  0  0  0  0  0  0
   -5.9391   -3.3011    3.8086 C   0  0  0  0  0  0  0  0  0  0  0  0
   -6.1162   -4.4002    3.0183 C   0  0  0  0  0  0  0  0  0  0  0  0
   -5.9859   -5.8841    3.9332 S   0  0  0  0  0  0  0  0  0  0  0  0
   -6.2837   -4.3374    1.6019 C   0  0  0  0  0  0  0  0  0  0  0  0
   -6.4706   -3.1767    0.9102 C   0  0  0  0  0  0  0  0  0  0  0  0
   -6.3912   -3.3239   -0.4922 C   0  0  0  0  0  0  0  0  0  0  0  0
   -6.3636   -2.2832   -1.4366 C   0  0  0  0  0  0  0  0  0  0  0  0
   -6.3656   -0.9024   -0.9243 C   0  0  0  0  0  0  0  0  0  0  0  0
   -5.3889   -0.5353    0.0036 C   0  0  0  0  0  0  0  0  0  0  0  0
   -5.4499    0.6821    0.6482 C   0  0  0  0  0  0  0  0  0  0  0  0
   -6.4834    1.5691    0.3800 C   0  0  0  0  0  0  0  0  0  0  0  0
   -6.6014    3.0701    1.3278 S   0  0  0  0  0  0  0  0  0  0  0  0
   -8.1134    2.6677    2.2819 C   0  0  0  0  0  0  0  0  0  0  0  0
   -7.9193    1.4378    3.1477 C   0  0  0  0  0  0  0  0  0  0  0  0
   -7.4098    1.2266   -0.5976 C   0  0  0  0  0  0  0  0  0  0  0  0
   -8.4155    2.0711   -0.8968 F   0  0  0  0  0  0  0  0  0  0  0  0
   -7.3639    0.0066   -1.2486 C   0  0  0  0  0  0  0  0  0  0  0  0
   -6.2273   -2.6534   -2.7608 C   0  0  0  0  0  0  0  0  0  0  0  0
   -6.0740   -4.0098   -3.1530 C   0  0  0  0  0  0  0  0  0  0  0  0
   -6.0128   -5.0413   -2.1976 C   0  0  0  0  0  0  0  0  0  0  0  0
   -5.6104   -6.3994   -2.5820 C   0  0  0  0  0  0  0  0  0  0  0  0
   -6.2831   -7.5276   -2.1242 C   0  0  0  0  0  0  0  0  0  0  0  0
   -5.8731   -8.7987   -2.4798 C   0  0  0  0  0  0  0  0  0  0  0  0
   -4.7772   -8.9906   -3.3144 C   0  0  0  0  0  0  0  0  0  0  0  0
   -4.1363  -10.5509   -3.8238 S   0  0  0  0  0  0  0  0  0  0  0  0
   -5.4876  -11.7272   -3.4747 C   0  0  0  0  0  0  0  0  0  0  0  0
   -6.6731  -11.5321   -4.4005 C   0  0  0  0  0  0  0  0  0  0  0  0
   -4.1037   -7.8499   -3.7529 C   0  0  0  0  0  0  0  0  0  0  0  0
   -4.4924   -6.5805   -3.3975 C   0  0  0  0  0  0  0  0  0  0  0  0
   -3.0312   -7.9811   -4.5727 F   0  0  0  0  0  0  0  0  0  0  0  0
   -6.2063   -4.6736   -0.8747 C   0  0  0  0  0  0  0  0  0  0  0  0
   -6.0920   -5.7103    0.5298 S   0  0  0  0  0  0  0  0  0  0  0  0
   -5.8401   -4.1273   -4.5426 C   0  0  0  0  0  0  0  0  0  0  0  0
   -5.7053   -2.9296   -5.1864 C   0  0  0  0  0  0  0  0  0  0  0  0
   -6.0288   -1.5740   -4.1188 S   0  0  0  0  0  0  0  0  0  0  0  0
   -5.0475   -2.7528   -6.4427 C   0  0  0  0  0  0  0  0  0  0  0  0
   -4.3536   -3.7378   -7.0897 C   0  0  0  0  0  0  0  0  0  0  0  0
   -3.3717   -3.2534   -7.9810 C   0  0  0  0  0  0  0  0  0  0  0  0
   -2.2951   -3.9869   -8.5214 C   0  0  0  0  0  0  0  0  0  0  0  0
   -2.1683   -5.4294   -8.5119 C   0  0  0  0  0  0  0  0  0  0  0  0
   -1.5493   -6.1390   -9.5055 C   0  0  0  0  0  0  0  0  0  0  0  0
   -1.4473   -7.5280   -9.3038 C   0  0  0  0  0  0  0  0  0  0  0  0
   -1.9589   -7.9832   -8.1267 C   0  0  0  0  0  0  0  0  0  0  0  0
   -1.9234   -9.6539   -7.6055 S   0  0  0  0  0  0  0  0  0  0  0  0
   -3.7021   -9.9043   -7.2669 C   0  0  0  0  0  0  0  0  0  0  0  0
   -4.5252   -9.8737   -8.5379 C   0  0  0  0  0  0  0  0  0  0  0  0
   -2.6392   -6.5707   -7.0846 Se  0  0  0  0  0  2  0  0  0  0  0  0
   -1.2191   -3.2132   -8.9455 C   0  0  0  0  0  0  0  0  0  0  0  0
   -1.2216   -1.7995   -9.0168 C   0  0  0  0  0  0  0  0  0  0  0  0
   -2.4023   -1.0836   -8.7053 C   0  0  0  0  0  0  0  0  0  0  0  0
   -2.5822    0.3369   -8.8819 C   0  0  0  0  0  0  0  0  0  0  0  0
   -3.7912    0.9503   -9.1007 C   0  0  0  0  0  0  0  0  0  0  0  0
   -3.7794    2.3492   -9.2209 C   0  0  0  0  0  0  0  0  0  0  0  0
   -2.5492    2.9299   -9.0891 C   0  0  0  0  0  0  0  0  0  0  0  0
   -2.2537    4.6448   -9.1956 S   0  0  0  0  0  0  0  0  0  0  0  0
   -0.4387    4.6811   -8.9543 C   0  0  0  0  0  0  0  0  0  0  0  0
    0.0685    6.1066   -9.0146 C   0  0  0  0  0  0  0  0  0  0  0  0
   -1.2175    1.6384   -8.8068 Se  0  0  0  0  0  2  0  0  0  0  0  0
   -3.4035   -1.8431   -8.0918 C   0  0  0  0  0  0  0  0  0  0  0  0
   -4.6803   -1.1734   -7.0993 S   0  0  0  0  0  0  0  0  0  0  0  0
    0.0974   -1.2862   -9.1352 C   0  0  0  0  0  0  0  0  0  0  0  0
    1.0651   -2.2435   -9.0483 C   0  0  0  0  0  0  0  0  0  0  0  0
    0.3942   -3.8595   -9.1107 S   0  0  0  0  0  0  0  0  0  0  0  0
    2.3682   -2.0757   -8.4759 C   0  0  0  0  0  0  0  0  0  0  0  0
    2.7856   -2.8770   -7.4561 C   0  0  0  0  0  0  0  0  0  0  0  0
    3.7983   -2.3101   -6.6494 C   0  0  0  0  0  0  0  0  0  0  0  0
    4.2094   -2.7864   -5.3862 C   0  0  0  0  0  0  0  0  0  0  0  0
    3.7316   -4.0515   -4.8632 C   0  0  0  0  0  0  0  0  0  0  0  0
    3.2800   -4.2994   -3.5946 C   0  0  0  0  0  0  0  0  0  0  0  0
    2.7532   -5.5839   -3.3630 C   0  0  0  0  0  0  0  0  0  0  0  0
    2.7635   -6.4223   -4.4388 C   0  0  0  0  0  0  0  0  0  0  0  0
    2.1234   -8.0519   -4.4280 S   0  0  0  0  0  0  0  0  0  0  0  0
    1.0219   -8.0061   -5.8966 C   0  0  0  0  0  0  0  0  0  0  0  0
    1.7375   -8.3928   -7.1724 C   0  0  0  0  0  0  0  0  0  0  0  0
    3.5970   -5.6098   -5.9200 Se  0  0  0  0  0  2  0  0  0  0  0  0
    4.9592   -1.8894   -4.6318 C   0  0  0  0  0  0  0  0  0  0  0  0
    5.4224   -0.6476   -5.1306 C   0  0  0  0  0  0  0  0  0  0  0  0
    5.1040   -0.2290   -6.4432 C   0  0  0  0  0  0  0  0  0  0  0  0
    5.6427    0.9876   -7.0057 C   0  0  0  0  0  0  0  0  0  0  0  0
    5.0478    1.8672   -7.8682 C   0  0  0  0  0  0  0  0  0  0  0  0
    5.8543    2.9228   -8.3326 C   0  0  0  0  0  0  0  0  0  0  0  0
    7.1403    2.9208   -7.8709 C   0  0  0  0  0  0  0  0  0  0  0  0
    8.2961    4.1806   -8.2340 S   0  0  0  0  0  0  0  0  0  0  0  0
    9.8684    3.4043   -7.7228 C   0  0  0  0  0  0  0  0  0  0  0  0
   10.3247    2.3355   -8.6948 C   0  0  0  0  0  0  0  0  0  0  0  0
    7.4400    1.4821   -6.6951 Se  0  0  0  0  0  2  0  0  0  0  0  0
    4.2075   -1.0454   -7.1326 C   0  0  0  0  0  0  0  0  0  0  0  0
    3.3298   -0.6214   -8.5896 S   0  0  0  0  0  0  0  0  0  0  0  0
    6.0112    0.1417   -4.1068 C   0  0  0  0  0  0  0  0  0  0  0  0
    5.9718   -0.4403   -2.8759 C   0  0  0  0  0  0  0  0  0  0  0  0
    5.3307   -2.0674   -2.9375 S   0  0  0  0  0  0  0  0  0  0  0  0
    6.1122    0.2012   -1.6049 C   0  0  0  0  0  0  0  0  0  0  0  0
    5.3500   -0.0725   -0.5093 C   0  0  0  0  0  0  0  0  0  0  0  0
    5.4605    0.8973    0.5163 C   0  0  0  0  0  0  0  0  0  0  0  0
    4.7042    0.9846    1.6937 C   0  0  0  0  0  0  0  0  0  0  0  0
    3.5506    0.1248    1.9835 C   0  0  0  0  0  0  0  0  0  0  0  0
    2.5528   -0.0592    1.0298 C   0  0  0  0  0  0  0  0  0  0  0  0
    1.3633   -0.6845    1.3495 C   0  0  0  0  0  0  0  0  0  0  0  0
    1.1212   -1.1389    2.6415 C   0  0  0  0  0  0  0  0  0  0  0  0
   -0.3987   -1.8303    3.2106 S   0  0  0  0  0  0  0  0  0  0  0  0
   -1.5935   -1.3499    1.9166 C   0  0  0  0  0  0  0  0  0  0  0  0
   -1.8014    0.1504    1.8431 C   0  0  0  0  0  0  0  0  0  0  0  0
    2.1616   -1.0197    3.5641 C   0  0  0  0  0  0  0  0  0  0  0  0
    1.9875   -1.5043    4.8104 F   0  0  0  0  0  0  0  0  0  0  0  0
    3.3523   -0.4007    3.2593 C   0  0  0  0  0  0  0  0  0  0  0  0
    4.9775    2.0624    2.5218 C   0  0  0  0  0  0  0  0  0  0  0  0
    5.9541    3.0468    2.2360 C   0  0  0  0  0  0  0  0  0  0  0  0
    6.7076    2.9580    1.0513 C   0  0  0  0  0  0  0  0  0  0  0  0
    7.7355    3.9550    0.7314 C   0  0  0  0  0  0  0  0  0  0  0  0
    8.7121    4.2887    1.6698 C   0  0  0  0  0  0  0  0  0  0  0  0
    9.7031    5.1940    1.3600 C   0  0  0  0  0  0  0  0  0  0  0  0
    9.7544    5.8183    0.1142 C   0  0  0  0  0  0  0  0  0  0  0  0
   11.0511    6.9924   -0.1415 S   0  0  0  0  0  0  0  0  0  0  0  0
   11.5287    6.7789   -1.8959 C   0  0  0  0  0  0  0  0  0  0  0  0
   11.9555    5.3575   -2.2022 C   0  0  0  0  0  0  0  0  0  0  0  0
    8.7524    5.5029   -0.7983 C   0  0  0  0  0  0  0  0  0  0  0  0
    7.7696    4.5773   -0.5114 C   0  0  0  0  0  0  0  0  0  0  0  0
    8.7012    6.1019   -2.0085 F   0  0  0  0  0  0  0  0  0  0  0  0
    6.4141    1.8985    0.2036 C   0  0  0  0  0  0  0  0  0  0  0  0
    7.0986    1.6309   -1.3841 S   0  0  0  0  0  0  0  0  0  0  0  0
    5.9133    4.1145    3.1740 C   0  0  0  0  0  0  0  0  0  0  0  0
    4.9460    3.9677    4.1222 C   0  0  0  0  0  0  0  0  0  0  0  0
    4.0617    2.4636    3.9460 S   0  0  0  0  0  0  0  0  0  0  0  0
    4.5098    4.8701    5.1372 C   0  0  0  0  0  0  0  0  0  0  0  0
    3.4017    4.7062    5.9131 C   0  0  0  0  0  0  0  0  0  0  0  0
    3.1302    5.8043    6.7652 C   0  0  0  0  0  0  0  0  0  0  0  0
    2.0370    5.9690    7.6316 C   0  0  0  0  0  0  0  0  0  0  0  0
    0.9698    4.9623    7.6923 C   0  0  0  0  0  0  0  0  0  0  0  0
    0.3970    4.4637    6.5214 C   0  0  0  0  0  0  0  0  0  0  0  0
   -0.5715    3.4821    6.5651 C   0  0  0  0  0  0  0  0  0  0  0  0
   -1.0020    2.9620    7.7803 C   0  0  0  0  0  0  0  0  0  0  0  0
   -2.2259    1.6847    7.8892 S   0  0  0  0  0  0  0  0  0  0  0  0
   -1.5948    0.4766    6.6690 C   0  0  0  0  0  0  0  0  0  0  0  0
   -0.2079   -0.0165    7.0173 C   0  0  0  0  0  0  0  0  0  0  0  0
   -0.4599    3.4997    8.9444 C   0  0  0  0  0  0  0  0  0  0  0  0
   -0.8693    3.0434   10.1421 F   0  0  0  0  0  0  0  0  0  0  0  0
    0.5124    4.4784    8.9146 C   0  0  0  0  0  0  0  0  0  0  0  0
    2.0256    7.1293    8.3938 C   0  0  0  0  0  0  0  0  0  0  0  0
    3.0224    8.1306    8.2920 C   0  0  0  0  0  0  0  0  0  0  0  0
    4.0895    7.9834    7.3923 C   0  0  0  0  0  0  0  0  0  0  0  0
    5.1042    9.0302    7.2192 C   0  0  0  0  0  0  0  0  0  0  0  0
    6.4613    8.7290    7.2684 C   0  0  0  0  0  0  0  0  0  0  0  0
    7.4199    9.7088    7.0948 C   0  0  0  0  0  0  0  0  0  0  0  0
    7.0543   11.0299    6.8646 C   0  0  0  0  0  0  0  0  0  0  0  0
    8.1575   12.3773    6.6048 S   0  0  0  0  0  0  0  0  0  0  0  0
    9.8058   11.6994    7.0000 C   0  0  0  0  0  0  0  0  0  0  0  0
   10.0104   11.5088    8.4912 C   0  0  0  0  0  0  0  0  0  0  0  0
    5.6881   11.3154    6.8075 C   0  0  0  0  0  0  0  0  0  0  0  0
    4.7234   10.3497    6.9800 C   0  0  0  0  0  0  0  0  0  0  0  0
    5.2950   12.5841    6.5726 F   0  0  0  0  0  0  0  0  0  0  0  0
    4.1236    6.8079    6.6572 C   0  0  0  0  0  0  0  0  0  0  0  0
    5.3207    6.3904    5.4526 S   0  0  0  0  0  0  0  0  0  0  0  0
    2.7733    9.2109    9.1907 C   0  0  0  0  0  0  0  0  0  0  0  0
    1.6403    9.0517    9.9032 C   0  0  0  0  0  0  0  0  0  0  0  0
    0.7974    7.5833    9.5476 S   0  0  0  0  0  0  0  0  0  0  0  0
   -4.5758   -3.7616   10.8788 H   0  0  0  0  0  0  0  0  0  0  0  0
   -5.0842   -5.9099    9.5025 H   0  0  0  0  0  0  0  0  0  0  0  0
   -3.7502   -7.2281    8.1715 H   0  0  0  0  0  0  0  0  0  0  0  0
   -4.1571   -9.7535    8.2585 H   0  0  0  0  0  0  0  0  0  0  0  0
   -8.0579  -10.4081    5.4283 H   0  0  0  0  0  0  0  0  0  0  0  0
   -7.8825  -12.1797    5.4041 H   0  0  0  0  0  0  0  0  0  0  0  0
   -5.9429  -10.1948    4.0941 H   0  0  0  0  0  0  0  0  0  0  0  0
   -5.7690  -11.9548    4.0850 H   0  0  0  0  0  0  0  0  0  0  0  0
   -7.1183  -11.1907    3.2306 H   0  0  0  0  0  0  0  0  0  0  0  0
   -6.0261   -0.3864    7.7144 H   0  0  0  0  0  0  0  0  0  0  0  0
   -5.3414    1.9246    6.9695 H   0  0  0  0  0  0  0  0  0  0  0  0
   -4.0616    3.6736    6.3389 H   0  0  0  0  0  0  0  0  0  0  0  0
   -3.6177    4.6944    4.9570 H   0  0  0  0  0  0  0  0  0  0  0  0
   -6.4020    3.4882    5.4027 H   0  0  0  0  0  0  0  0  0  0  0  0
   -5.9688    5.1851    5.6343 H   0  0  0  0  0  0  0  0  0  0  0  0
   -5.9133    4.4697    4.0162 H   0  0  0  0  0  0  0  0  0  0  0  0
   -6.0180   -2.2984    3.4281 H   0  0  0  0  0  0  0  0  0  0  0  0
   -6.6457   -2.2304    1.3852 H   0  0  0  0  0  0  0  0  0  0  0  0
   -4.5929   -1.2269    0.2375 H   0  0  0  0  0  0  0  0  0  0  0  0
   -4.7226    0.9496    1.4010 H   0  0  0  0  0  0  0  0  0  0  0  0
   -8.9354    2.5440    1.5781 H   0  0  0  0  0  0  0  0  0  0  0  0
   -8.2939    3.5545    2.8883 H   0  0  0  0  0  0  0  0  0  0  0  0
   -7.0381    1.5474    3.7772 H   0  0  0  0  0  0  0  0  0  0  0  0
   -7.7894    0.5484    2.5328 H   0  0  0  0  0  0  0  0  0  0  0  0
   -8.7883    1.2917    3.7862 H   0  0  0  0  0  0  0  0  0  0  0  0
   -8.1245   -0.2345   -1.9748 H   0  0  0  0  0  0  0  0  0  0  0  0
   -7.1479   -7.4121   -1.4891 H   0  0  0  0  0  0  0  0  0  0  0  0
   -6.4171   -9.6452   -2.0938 H   0  0  0  0  0  0  0  0  0  0  0  0
   -5.0240  -12.7002   -3.6371 H   0  0  0  0  0  0  0  0  0  0  0  0
   -5.7604  -11.6460   -2.4235 H   0  0  0  0  0  0  0  0  0  0  0  0
   -7.4406  -12.2711   -4.1791 H   0  0  0  0  0  0  0  0  0  0  0  0
   -6.3648  -11.6516   -5.4367 H   0  0  0  0  0  0  0  0  0  0  0  0
   -7.1024  -10.5393   -4.2826 H   0  0  0  0  0  0  0  0  0  0  0  0
   -3.9061   -5.7433   -3.7440 H   0  0  0  0  0  0  0  0  0  0  0  0
   -5.7322   -5.0728   -5.0401 H   0  0  0  0  0  0  0  0  0  0  0  0
   -4.4657   -4.7811   -6.8499 H   0  0  0  0  0  0  0  0  0  0  0  0
   -1.2160   -5.6750  -10.4186 H   0  0  0  0  0  0  0  0  0  0  0  0
   -1.0162   -8.1931  -10.0326 H   0  0  0  0  0  0  0  0  0  0  0  0
   -4.0073   -9.1218   -6.5712 H   0  0  0  0  0  0  0  0  0  0  0  0
   -3.7560  -10.8713   -6.7700 H   0  0  0  0  0  0  0  0  0  0  0  0
   -4.4329   -8.9047   -9.0276 H   0  0  0  0  0  0  0  0  0  0  0  0
   -5.5750  -10.0448   -8.3064 H   0  0  0  0  0  0  0  0  0  0  0  0
   -4.1886  -10.6430   -9.2293 H   0  0  0  0  0  0  0  0  0  0  0  0
   -4.7027    0.3893   -9.2204 H   0  0  0  0  0  0  0  0  0  0  0  0
   -4.6688    2.9265   -9.4046 H   0  0  0  0  0  0  0  0  0  0  0  0
   -0.2321    4.2257   -7.9813 H   0  0  0  0  0  0  0  0  0  0  0  0
    0.0042    4.0667   -9.7442 H   0  0  0  0  0  0  0  0  0  0  0  0
   -0.3986    6.7094   -8.2392 H   0  0  0  0  0  0  0  0  0  0  0  0
    1.1461    6.1212   -8.8673 H   0  0  0  0  0  0  0  0  0  0  0  0
   -0.1588    6.5505   -9.9810 H   0  0  0  0  0  0  0  0  0  0  0  0
    0.3517   -0.2383   -9.1238 H   0  0  0  0  0  0  0  0  0  0  0  0
    2.2658   -3.7870   -7.2135 H   0  0  0  0  0  0  0  0  0  0  0  0
    3.2437   -3.5371   -2.8356 H   0  0  0  0  0  0  0  0  0  0  0  0
    2.3277   -5.8774   -2.4189 H   0  0  0  0  0  0  0  0  0  0  0  0
    0.2236   -8.7106   -5.6655 H   0  0  0  0  0  0  0  0  0  0  0  0
    0.6070   -6.9984   -5.9512 H   0  0  0  0  0  0  0  0  0  0  0  0
    2.5485   -7.6940   -7.3908 H   0  0  0  0  0  0  0  0  0  0  0  0
    1.0352   -8.3772   -8.0033 H   0  0  0  0  0  0  0  0  0  0  0  0
    2.1543   -9.3930   -7.0850 H   0  0  0  0  0  0  0  0  0  0  0  0
    4.0133    1.7844   -8.1534 H   0  0  0  0  0  0  0  0  0  0  0  0
    5.4924    3.6789   -9.0076 H   0  0  0  0  0  0  0  0  0  0  0  0
   10.5799    4.2282   -7.6759 H   0  0  0  0  0  0  0  0  0  0  0  0
    9.7181    3.0021   -6.7158 H   0  0  0  0  0  0  0  0  0  0  0  0
   11.2741    1.9184   -8.3659 H   0  0  0  0  0  0  0  0  0  0  0  0
   10.4509    2.7564   -9.6896 H   0  0  0  0  0  0  0  0  0  0  0  0
    9.5946    1.5282   -8.7500 H   0  0  0  0  0  0  0  0  0  0  0  0
    6.3372    1.1598   -4.2396 H   0  0  0  0  0  0  0  0  0  0  0  0
    4.6942   -0.9225   -0.4544 H   0  0  0  0  0  0  0  0  0  0  0  0
    2.6873    0.3345    0.0337 H   0  0  0  0  0  0  0  0  0  0  0  0
    0.6155   -0.7976    0.5817 H   0  0  0  0  0  0  0  0  0  0  0  0
   -1.2631   -1.7730    0.9682 H   0  0  0  0  0  0  0  0  0  0  0  0
   -2.5132   -1.8548    2.2216 H   0  0  0  0  0  0  0  0  0  0  0  0
   -2.4267    0.3958    0.9873 H   0  0  0  0  0  0  0  0  0  0  0  0
   -0.8551    0.6767    1.7399 H   0  0  0  0  0  0  0  0  0  0  0  0
   -2.2915    0.5099    2.7482 H   0  0  0  0  0  0  0  0  0  0  0  0
    4.1137   -0.3277    4.0195 H   0  0  0  0  0  0  0  0  0  0  0  0
    8.7093    3.8072    2.6358 H   0  0  0  0  0  0  0  0  0  0  0  0
   10.4672    5.4360    2.0823 H   0  0  0  0  0  0  0  0  0  0  0  0
   10.7074    7.1048   -2.5302 H   0  0  0  0  0  0  0  0  0  0  0  0
   12.3619    7.4726   -2.0097 H   0  0  0  0  0  0  0  0  0  0  0  0
   12.7555    5.0462   -1.5336 H   0  0  0  0  0  0  0  0  0  0  0  0
   12.3131    5.2970   -3.2281 H   0  0  0  0  0  0  0  0  0  0  0  0
   11.1217    4.6673   -2.0887 H   0  0  0  0  0  0  0  0  0  0  0  0
    7.0161    4.3792   -1.2573 H   0  0  0  0  0  0  0  0  0  0  0  0
    6.5406    4.9863    3.1147 H   0  0  0  0  0  0  0  0  0  0  0  0
    2.7969    3.8182    5.8742 H   0  0  0  0  0  0  0  0  0  0  0  0
    0.6984    4.8677    5.5668 H   0  0  0  0  0  0  0  0  0  0  0  0
   -1.0006    3.1130    5.6459 H   0  0  0  0  0  0  0  0  0  0  0  0
   -2.3218   -0.3351    6.7185 H   0  0  0  0  0  0  0  0  0  0  0  0
   -1.6279    0.9253    5.6765 H   0  0  0  0  0  0  0  0  0  0  0  0
    0.5179    0.7931    6.9574 H   0  0  0  0  0  0  0  0  0  0  0  0
   -0.1914   -0.4241    8.0257 H   0  0  0  0  0  0  0  0  0  0  0  0
    0.0872   -0.7977    6.3212 H   0  0  0  0  0  0  0  0  0  0  0  0
    0.9263    4.8298    9.8463 H   0  0  0  0  0  0  0  0  0  0  0  0
    6.7764    7.7152    7.4626 H   0  0  0  0  0  0  0  0  0  0  0  0
    8.4593    9.4276    7.1362 H   0  0  0  0  0  0  0  0  0  0  0  0
   10.4902   12.4529    6.6100 H   0  0  0  0  0  0  0  0  0  0  0  0
    9.9476   10.7789    6.4355 H   0  0  0  0  0  0  0  0  0  0  0  0
    9.2902   10.8032    8.8997 H   0  0  0  0  0  0  0  0  0  0  0  0
   11.0136   11.1323    8.6822 H   0  0  0  0  0  0  0  0  0  0  0  0
    9.8905   12.4573    9.0093 H   0  0  0  0  0  0  0  0  0  0  0  0
    3.6831   10.6248    6.9034 H   0  0  0  0  0  0  0  0  0  0  0  0
    3.4306   10.0545    9.2970 H   0  0  0  0  0  0  0  0  0  0  0  0
    1.2283    9.7106   10.6424 H   0  0  0  0  0  0  0  0  0  0  0  0
  1  2  2  0  0  0  0
  2  3  1  0  0  0  0
  3  4  2  0  0  0  0
  4  5  1  0  0  0  0
  5  6  2  0  0  0  0
  6  7  1  0  0  0  0
  7  8  2  0  0  0  0
  8  9  1  0  0  0  0
  9 10  1  0  0  0  0
 10 11  1  0  0  0  0
  8 12  1  0  0  0  0
  4 13  1  0  0  0  0
 13 14  2  0  0  0  0
 14 15  1  0  0  0  0
 15 16  1  0  0  0  0
 16 17  2  0  0  0  0
 17 18  1  0  0  0  0
 18 19  2  0  0  0  0
 19 20  1  0  0  0  0
 20 21  1  0  0  0  0
 21 22  1  0  0  0  0
 19 23  1  0  0  0  0
 15 24  2  0  0  0  0
 24 25  1  0  0  0  0
 14 26  1  0  0  0  0
 26 27  2  0  0  0  0
 27 28  1  0  0  0  0
 27 29  1  0  0  0  0
 29 30  2  0  0  0  0
 30 31  1  0  0  0  0
 31 32  2  0  0  0  0
 32 33  1  0  0  0  0
 33 34  2  0  0  0  0
 34 35  1  0  0  0  0
 35 36  2  0  0  0  0
 36 37  1  0  0  0  0
 37 38  1  0  0  0  0
 38 39  1  0  0  0  0
 36 40  1  0  0  0  0
 40 41  1  0  0  0  0
 40 42  2  0  0  0  0
 32 43  1  0  0  0  0
 43 44  2  0  0  0  0
 44 45  1  0  0  0  0
 45 46  1  0  0  0  0
 46 47  2  0  0  0  0
 47 48  1  0  0  0  0
 48 49  2  0  0  0  0
 49 50  1  0  0  0  0
 50 51  1  0  0  0  0
 51 52  1  0  0  0  0
 49 53  1  0  0  0  0
 53 54  2  0  0  0  0
 53 55  1  0  0  0  0
 45 56  2  0  0  0  0
 56 57  1  0  0  0  0
 44 58  1  0  0  0  0
 58 59  2  0  0  0  0
 59 60  1  0  0  0  0
 59 61  1  0  0  0  0
 61 62  2  0  0  0  0
 62 63  1  0  0  0  0
 63 64  2  0  0  0  0
 64 65  1  0  0  0  0
 65 66  2  0  0  0  0
 66 67  1  0  0  0  0
 67 68  2  0  0  0  0
 68 69  1  0  0  0  0
 69 70  1  0  0  0  0
 70 71  1  0  0  0  0
 68 72  1  0  0  0  0
 64 73  1  0  0  0  0
 73 74  2  0  0  0  0
 74 75  1  0  0  0  0
 75 76  1  0  0  0  0
 76 77  2  0  0  0  0
 77 78  1  0  0  0  0
 78 79  2  0  0  0  0
 79 80  1  0  0  0  0
 80 81  1  0  0  0  0
 81 82  1  0  0  0  0
 79 83  1  0  0  0  0
 75 84  2  0  0  0  0
 84 85  1  0  0  0  0
 74 86  1  0  0  0  0
 86 87  2  0  0  0  0
 87 88  1  0  0  0  0
 87 89  1  0  0  0  0
 89 90  2  0  0  0  0
 90 91  1  0  0  0  0
 91 92  2  0  0  0  0
 92 93  1  0  0  0  0
 93 94  2  0  0  0  0
 94 95  1  0  0  0  0
 95 96  2  0  0  0  0
 96 97  1  0  0  0  0
 97 98  1  0  0  0  0
 98 99  1  0  0  0  0
 96100  1  0  0  0  0
 92101  1  0  0  0  0
101102  2  0  0  0  0
102103  1  0  0  0  0
103104  1  0  0  0  0
104105  2  0  0  0  0
105106  1  0  0  0  0
106107  2  0  0  0  0
107108  1  0  0  0  0
108109  1  0  0  0  0
109110  1  0  0  0  0
107111  1  0  0  0  0
103112  2  0  0  0  0
112113  1  0  0  0  0
102114  1  0  0  0  0
114115  2  0  0  0  0
115116  1  0  0  0  0
115117  1  0  0  0  0
117118  2  0  0  0  0
118119  1  0  0  0  0
119120  2  0  0  0  0
120121  1  0  0  0  0
121122  2  0  0  0  0
122123  1  0  0  0  0
123124  2  0  0  0  0
124125  1  0  0  0  0
125126  1  0  0  0  0
126127  1  0  0  0  0
124128  1  0  0  0  0
128129  1  0  0  0  0
128130  2  0  0  0  0
120131  1  0  0  0  0
131132  2  0  0  0  0
132133  1  0  0  0  0
133134  1  0  0  0  0
134135  2  0  0  0  0
135136  1  0  0  0  0
136137  2  0  0  0  0
137138  1  0  0  0  0
138139  1  0  0  0  0
139140  1  0  0  0  0
137141  1  0  0  0  0
141142  2  0  0  0  0
141143  1  0  0  0  0
133144  2  0  0  0  0
144145  1  0  0  0  0
132146  1  0  0  0  0
146147  2  0  0  0  0
147148  1  0  0  0  0
147149  1  0  0  0  0
149150  2  0  0  0  0
150151  1  0  0  0  0
151152  2  0  0  0  0
152153  1  0  0  0  0
153154  2  0  0  0  0
154155  1  0  0  0  0
155156  2  0  0  0  0
156157  1  0  0  0  0
157158  1  0  0  0  0
158159  1  0  0  0  0
156160  1  0  0  0  0
160161  1  0  0  0  0
160162  2  0  0  0  0
152163  1  0  0  0  0
163164  2  0  0  0  0
164165  1  0  0  0  0
165166  1  0  0  0  0
166167  2  0  0  0  0
167168  1  0  0  0  0
168169  2  0  0  0  0
169170  1  0  0  0  0
170171  1  0  0  0  0
171172  1  0  0  0  0
169173  1  0  0  0  0
173174  2  0  0  0  0
173175  1  0  0  0  0
165176  2  0  0  0  0
176177  1  0  0  0  0
164178  1  0  0  0  0
178179  2  0  0  0  0
179180  1  0  0  0  0
 25  1  1  0  0  0  0
 57 29  1  0  0  0  0
 85 61  1  0  0  0  0
113 89  1  0  0  0  0
145117  1  0  0  0  0
177149  1  0  0  0  0
 24  3  1  0  0  0  0
 56 31  1  0  0  0  0
 84 63  1  0  0  0  0
112 91  1  0  0  0  0
144119  1  0  0  0  0
176151  1  0  0  0  0
 12  5  1  0  0  0  0
 28 13  1  0  0  0  0
 42 33  1  0  0  0  0
 60 43  1  0  0  0  0
 72 65  1  0  0  0  0
 88 73  1  0  0  0  0
100 93  1  0  0  0  0
116101  1  0  0  0  0
130121  1  0  0  0  0
148131  1  0  0  0  0
162153  1  0  0  0  0
180163  1  0  0  0  0
 23 16  1  0  0  0  0
 54 46  1  0  0  0  0
 83 76  1  0  0  0  0
111104  1  0  0  0  0
142134  1  0  0  0  0
174166  1  0  0  0  0
  1181  1  0  0  0  0
  2182  1  0  0  0  0
  6183  1  0  0  0  0
  7184  1  0  0  0  0
 10185  1  0  0  0  0
 10186  1  0  0  0  0
 11187  1  0  0  0  0
 11188  1  0  0  0  0
 11189  1  0  0  0  0
 17190  1  0  0  0  0
 18191  1  0  0  0  0
 21192  1  0  0  0  0
 21193  1  0  0  0  0
 22194  1  0  0  0  0
 22195  1  0  0  0  0
 22196  1  0  0  0  0
 26197  1  0  0  0  0
 30198  1  0  0  0  0
 34199  1  0  0  0  0
 35200  1  0  0  0  0
 38201  1  0  0  0  0
 38202  1  0  0  0  0
 39203  1  0  0  0  0
 39204  1  0  0  0  0
 39205  1  0  0  0  0
 42206  1  0  0  0  0
 47207  1  0  0  0  0
 48208  1  0  0  0  0
 51209  1  0  0  0  0
 51210  1  0  0  0  0
 52211  1  0  0  0  0
 52212  1  0  0  0  0
 52213  1  0  0  0  0
 54214  1  0  0  0  0
 58215  1  0  0  0  0
 62216  1  0  0  0  0
 66217  1  0  0  0  0
 67218  1  0  0  0  0
 70219  1  0  0  0  0
 70220  1  0  0  0  0
 71221  1  0  0  0  0
 71222  1  0  0  0  0
 71223  1  0  0  0  0
 77224  1  0  0  0  0
 78225  1  0  0  0  0
 81226  1  0  0  0  0
 81227  1  0  0  0  0
 82228  1  0  0  0  0
 82229  1  0  0  0  0
 82230  1  0  0  0  0
 86231  1  0  0  0  0
 90232  1  0  0  0  0
 94233  1  0  0  0  0
 95234  1  0  0  0  0
 98235  1  0  0  0  0
 98236  1  0  0  0  0
 99237  1  0  0  0  0
 99238  1  0  0  0  0
 99239  1  0  0  0  0
105240  1  0  0  0  0
106241  1  0  0  0  0
109242  1  0  0  0  0
109243  1  0  0  0  0
110244  1  0  0  0  0
110245  1  0  0  0  0
110246  1  0  0  0  0
114247  1  0  0  0  0
118248  1  0  0  0  0
122249  1  0  0  0  0
123250  1  0  0  0  0
126251  1  0  0  0  0
126252  1  0  0  0  0
127253  1  0  0  0  0
127254  1  0  0  0  0
127255  1  0  0  0  0
130256  1  0  0  0  0
135257  1  0  0  0  0
136258  1  0  0  0  0
139259  1  0  0  0  0
139260  1  0  0  0  0
140261  1  0  0  0  0
140262  1  0  0  0  0
140263  1  0  0  0  0
142264  1  0  0  0  0
146265  1  0  0  0  0
150266  1  0  0  0  0
154267  1  0  0  0  0
155268  1  0  0  0  0
158269  1  0  0  0  0
158270  1  0  0  0  0
159271  1  0  0  0  0
159272  1  0  0  0  0
159273  1  0  0  0  0
162274  1  0  0  0  0
167275  1  0  0  0  0
168276  1  0  0  0  0
171277  1  0  0  0  0
171278  1  0  0  0  0
172279  1  0  0  0  0
172280  1  0  0  0  0
172281  1  0  0  0  0
174282  1  0  0  0  0
178283  1  0  0  0  0
179284  1  0  0  0  0
M  END
