142

C          4.57570        4.77120        8.32760
S          2.89990        4.60640        8.72180
C          3.16190        3.29630        9.86290
C          4.49950        3.06630        9.92030
C          5.28360        3.87760        9.05450
O          6.58100        3.48530        9.18970
C          6.58190        2.46530       10.08150
S          7.91320        1.66100       10.50480
O          5.34590        2.20020       10.54980
C          2.04140        2.65780       10.53570
C          1.11000        1.94560        9.88910
C          1.15450        1.58540        8.49740
C          0.10290        1.26310        7.69510
C          0.46800        0.94650        6.36140
C         -0.37310        0.61130        5.28260
C         -1.81620        0.54860        5.36990
C         -2.62890       -0.35420        4.73960
C         -4.01370       -0.14990        4.87670
C         -4.36610        0.94950        5.60800
S         -6.01630        1.43910        5.89860
C         -5.74600        2.92290        6.93650
C         -7.07430        3.54150        7.31860
Se        -2.84940        1.85740        6.25460
C          0.26460        0.37580        4.06690
C          1.66760        0.41200        3.88160
C          2.51630        0.66200        4.98540
C          3.95030        0.58660        4.86940
C          4.66500       -0.24360        4.04440
C          6.06270       -0.12740        4.09710
C          6.53840        0.80510        4.97850
S          8.24340        1.10170        5.20660
C          8.26260        2.24710        6.62660
C          7.98490        3.68000        6.22130
Se         5.12610        1.65980        5.88910
C          1.87050        0.97200        6.18110
S          2.68180        1.42780        7.64810
C          2.01940        0.26030        2.51660
C          0.94700        0.10190        1.68990
S         -0.57040        0.10810        2.56320
C          0.90990       -0.08030        0.27890
C         -0.21010       -0.03770       -0.49770
C          0.02210       -0.31060       -1.86350
C         -0.92770       -0.35270       -2.90750
C         -2.34760       -0.21290       -2.68370
C         -3.28580        0.26090       -3.56390
C         -4.62500        0.20060       -3.13860
C         -4.81680       -0.34730       -1.90070
S         -6.38070       -0.57250       -1.15390
C         -5.92500       -0.67360        0.61290
C         -5.49530        0.66580        1.17260
Se        -3.19090       -0.88600       -1.13550
C         -0.41880       -0.63830       -4.17080
C          0.94520       -0.92660       -4.42730
C          1.90130       -0.83430       -3.38640
C          3.30430       -1.03960       -3.63700
C          4.00480       -0.69840       -4.76610
C          5.36660       -1.03970       -4.77950
C          5.81620       -1.67730       -3.65460
S          7.48280       -2.13430       -3.41750
C          7.38060       -3.17530       -1.91980
C          6.80750       -4.54690       -2.21260
Se         4.44170       -1.86840       -2.38050
C          1.39280       -0.54560       -2.12250
S          2.34260       -0.42710       -0.66140
C          1.14450       -1.41080       -5.74180
C         -0.00620       -1.46050       -6.47930
S         -1.39010       -0.85430       -5.60120
C         -0.20270       -1.99180       -7.77750
S         -1.81760       -2.13810       -8.44220
C         -1.30100       -2.96480       -9.90140
C          0.07420       -3.05090       -9.84420
C          0.67460       -2.53790       -8.68100
O          2.01880       -2.74240       -8.77710
C          2.22430       -3.35610       -9.96620
S          3.67450       -3.79180      -10.51740
O          1.06360       -3.55710      -10.63170
C         -2.11960       -3.37420      -10.98600
C         -3.46340       -3.50460      -11.10090
C         -4.52810       -3.41990      -10.16280
S         -4.46400       -3.45840       -8.40440
C         -6.20850       -3.44420       -8.17790
C         -6.76920       -3.42150       -9.43880
C         -5.86400       -3.42230      -10.50770
O         -6.58190       -3.40620      -11.66470
C         -7.88640       -3.39540      -11.30280
S         -9.11570       -3.37730      -12.34430
O         -8.02890       -3.40310       -9.95690
C         -6.96570       -3.45540       -6.97920
C         -6.65450       -3.47990       -5.65990
C         -5.44110       -3.50170       -4.92410
S         -3.77800       -3.41880       -5.48240
C         -3.07420       -3.53170       -3.88220
C         -4.10480       -3.60720       -2.98030
C         -5.38940       -3.59830       -3.54860
O         -6.29420       -3.74530       -2.54140
C         -5.58150       -3.84020       -1.40030
S         -6.21930       -4.08540        0.06130
O         -4.25090       -3.74100       -1.63000
C         -1.65500       -3.57910       -3.68500
C         -1.07170       -3.56700       -2.48740
H          4.90270        5.49600        7.61290
H          1.96700        2.81290       11.60320
H          0.25150        1.57740       10.43460
H         -0.91400        1.26460        8.05170
H         -2.23650       -1.20110        4.20280
H         -4.74600       -0.80960        4.44390
H         -5.13560        3.61850        6.35340
H         -5.18670        2.60080        7.81980
H         -7.67780        2.83100        7.87870
H         -6.90740        4.42170        7.93530
H         -7.62570        3.83680        6.42910
H          4.18690       -0.99120        3.43450
H          6.72200       -0.73510        3.50170
H          7.52660        1.87390        7.34230
H          9.25720        2.14440        7.05860
H          6.99400        3.76860        5.77190
H          8.02430        4.31810        7.10100
H          8.72450        4.02160        5.50120
H          3.02370        0.32300        2.13940
H         -1.16620        0.22580       -0.07800
H         -3.01980        0.72650       -4.49750
H         -5.44230        0.57480       -3.73040
H         -5.13500       -1.42670        0.70350
H         -6.82240       -1.04780        1.10410
H         -6.28880        1.40030        1.05640
H         -4.60470        1.03090        0.65940
H         -5.26250        0.56460        2.23060
H          3.55030       -0.15580       -5.57790
H          6.01560       -0.82000       -5.60930
H          8.40660       -3.24300       -1.55980
H          6.77710       -2.62890       -1.18770
H          7.41190       -5.05990       -2.95690
H          5.78750       -4.46560       -2.58940
H          6.79140       -5.14170       -1.30190
H          2.08310       -1.77470       -6.11700
H         -1.53870       -3.60440      -11.87130
H         -3.83170       -3.73840      -12.09330
H         -8.02770       -3.44690       -7.19990
H         -7.50510       -3.49580       -4.98710
H         -1.06660       -3.63190       -4.59040
H         -0.00180       -3.60980       -2.38690
H         -1.64680       -3.51370       -1.57720
