170

C         10.65400        2.20300       14.68140
C         11.25270        1.12640       14.05890
C         10.62700        0.50590       12.98410
N         11.25140       -0.68010       12.45650
O         12.45320       -0.77890       12.57940
O         10.53400       -1.52140       11.95750
C          9.40220        0.97120       12.48750
C          8.81310        2.05450       13.14360
C          9.42260        2.65480       14.22790
C          8.74640        0.43110       11.30680
C          7.41640        0.19270       11.16590
C          7.05060       -0.25580        9.86980
C          5.76860       -0.62670        9.41310
C          4.63420       -0.69600       10.30520
C          4.61450       -1.14380       11.59820
C          3.37920       -1.06010       12.26670
C          2.35910       -0.52760       11.52880
S          0.73680       -0.29240       12.12930
C         -0.06260        0.41490       10.64190
C         -1.51820        0.72320       10.92360
Se         2.92420       -0.09000        9.78550
C          5.66790       -0.91320        8.05530
C          6.76940       -0.90080        7.17050
C          8.06880       -0.61880        7.64350
C          9.23080       -0.69570        6.78690
C         10.34740        0.09580        6.81010
C         11.34110       -0.20590        5.85960
C         11.06970       -1.27380        5.05200
S         12.13970       -1.87800        3.81060
C         10.94250       -2.70380        2.69780
C         10.05160       -1.71270        1.97790
Se         9.42240       -2.06180        5.49750
C          8.16090       -0.27820        8.99240
S          9.62660        0.15310        9.82360
C          6.37000       -1.17390        5.83860
C          5.04210       -1.43920        5.69530
S          4.19720       -1.34280        7.22760
C          4.33610       -1.74210        4.47380
C          5.02980       -2.02470        3.29850
C          4.35600       -2.26340        2.11250
N          5.16250       -2.64120        0.98190
O          4.65510       -3.33680        0.12800
O          6.31880       -2.26910        0.96870
C          2.95420       -2.20910        2.04000
C          2.27070       -1.97950        3.24100
C          2.93680       -1.76320        4.42450
C          2.18510       -2.25700        0.81430
C          0.91950       -2.73760        0.67080
C          0.34010       -2.46690       -0.59450
C         -0.95140       -2.80240       -1.04700
C         -1.91500       -3.53480       -0.25250
C         -2.80770       -4.45930       -0.71990
C         -3.71840       -4.98410        0.21910
C         -3.60380       -4.46780        1.47540
S         -4.51150       -4.83550        2.92340
C         -6.02610       -5.61510        2.26260
C         -6.89210       -4.63300        1.49910
Se        -2.22320       -3.20670        1.58960
C         -1.29250       -2.32840       -2.31300
C         -0.41430       -1.59120       -3.14040
C          0.91690       -1.35320       -2.73040
C          1.88020       -0.73700       -3.60850
C          1.96800       -0.88650       -4.96890
C          3.02080       -0.20300       -5.60140
C          3.81670        0.53290       -4.76760
S          5.13740        1.53260       -5.32090
C          6.08900        1.76190       -3.77730
C          6.81230        0.49970       -3.35490
Se         3.24430        0.39870       -2.97670
C          1.23080       -1.75920       -1.43530
S          2.75100       -1.47550       -0.64500
C         -1.07500       -1.08140       -4.28650
C         -2.39140       -1.42530       -4.36770
S         -2.87600       -2.44370       -3.02680
C         -3.36780       -1.02100       -5.35240
C         -4.59930       -1.67230       -5.43730
C         -5.55310       -1.26210       -6.34870
N         -6.73580       -2.07990       -6.47130
O         -7.32530       -2.37970       -5.45430
O         -7.05190       -2.45610       -7.58050
C         -5.34770       -0.13550       -7.16550
C         -4.09430        0.47860       -7.10480
C         -3.12410        0.04270       -6.23220
C         -6.42440        0.38930       -7.96700
C         -7.75000        0.25680       -7.68820
C         -8.60260        0.73990       -8.70650
C        -10.00220        0.59810       -8.76190
C        -10.69730       -0.26700       -7.83280
C        -11.97420       -0.12490       -7.35490
C        -12.44010       -1.17180       -6.54040
C        -11.55490       -2.19170       -6.35580
S        -11.81860       -3.62320       -5.37140
C        -11.58540       -2.89150       -3.70390
C        -10.22930       -2.23500       -3.55080
Se        -9.93860       -1.89890       -7.24760
C        -10.62620        1.24360       -9.82690
C         -9.91730        1.96380      -10.81950
C         -8.50940        2.03550      -10.79560
C         -7.73580        2.75330      -11.78760
C         -6.53830        2.38010      -12.32920
C         -5.92520        3.31640      -13.18550
C         -6.60330        4.48970      -13.34340
S         -6.10030        5.76670      -14.42700
C         -6.98190        7.20510      -13.72440
C         -6.39020        7.64950      -12.40250
Se        -8.22070        4.47990      -12.37540
C         -7.88300        1.38440       -9.73530
S         -6.16230        1.26340       -9.46080
C        -10.79840        2.46700      -11.82200
C        -12.09100        2.15500      -11.59840
S        -12.33660        1.22860      -10.16170
H         11.13710        2.68120       15.51850
H         12.19980        0.73490       14.39840
H          7.87210        2.43200       12.77360
H          8.94110        3.48850       14.71590
H          6.71200        0.32560       11.96660
H          5.48100       -1.58490       12.06170
H          3.24010       -1.39130       13.28110
H          0.04210       -0.32140        9.83960
H          0.49300        1.32000       10.37820
H         -1.98400        1.14520       10.03590
H         -1.60460        1.43860       11.73810
H         -2.05170       -0.18250       11.20170
H         10.43590        0.94770        7.46280
H         12.24270        0.37240        5.75680
H         10.36380       -3.40260        3.31040
H         11.55770       -3.26920        1.99930
H          9.50600       -1.09610        2.69280
H         10.64540       -1.05880        1.34380
H          9.32490       -2.23830        1.36220
H          7.04130       -1.11500        5.00010
H          6.10710       -2.08630        3.28810
H          1.19240       -1.93810        3.22030
H          2.37640       -1.57880        5.32900
H          0.42580       -3.30670        1.44010
H         -2.79120       -4.81110       -1.73770
H         -4.43630       -5.73830       -0.05200
H         -6.53740       -5.98120        3.15280
H         -5.72790       -6.46700        1.65290
H         -7.79270       -5.13300        1.14850
H         -7.18080       -3.80480        2.14220
H         -6.36050       -4.23240        0.63840
H          1.31620       -1.54810       -5.51460
H          3.20400       -0.26420       -6.66020
H          5.38360        2.10270       -3.01250
H          6.78900        2.56590       -4.00200
H          6.10340       -0.30210       -3.14770
H          7.38610        0.68880       -2.45030
H          7.48960        0.16940       -4.13880
H         -0.58640       -0.44650       -5.00160
H         -4.80800       -2.52290       -4.80470
H         -3.90690        1.32740       -7.74510
H         -2.17470        0.55280       -6.20210
H         -8.12050       -0.10870       -6.74550
H        -12.57250        0.74750       -7.55710
H        -13.42190       -1.17530       -6.09760
H        -12.39870       -2.18510       -3.53570
H        -11.69760       -3.73960       -3.02950
H        -10.16290       -1.34170       -4.17140
H         -9.43280       -2.91260       -3.85140
H        -10.07300       -1.94420       -2.51390
H         -6.09810        1.41610      -12.13870
H         -4.98550        3.12980      -13.67550
H         -6.89140        7.98220      -14.48250
H         -8.03460        6.92240      -13.62390
H         -6.46950        6.85580      -11.66020
H         -5.34040        7.90610      -12.52420
H         -6.92510        8.52170      -12.03270
H        -10.47200        3.01530      -12.68920
H        -12.94290        2.40990      -12.19790
