
  xtb     03072219323D
 energy: -474.117730258721 gnorm: 0.000716512842 xtb: 6.4.1 (unknown)
278307  0     0  0            999 V2000
   -7.8408    5.1243    7.2435 C   0  0  0  0  0  0  0  0  0  0  0  0
   -7.3179    4.9797    6.0093 C   0  0  0  0  0  0  0  0  0  0  0  0
   -6.7231    3.6994    5.8047 C   0  0  0  0  0  0  0  0  0  0  0  0
   -6.1161    3.2046    4.6394 C   0  0  0  0  0  0  0  0  0  0  0  0
   -5.8101    4.0654    3.4915 C   0  0  0  0  0  0  0  0  0  0  0  0
   -5.1684    5.2904    3.6893 C   0  0  0  0  0  0  0  0  0  0  0  0
   -4.7665    6.0530    2.6187 C   0  0  0  0  0  0  0  0  0  0  0  0
   -4.9874    5.6487    1.2976 C   0  0  0  0  0  0  0  0  0  0  0  0
   -4.3794    6.7770    0.0886 S   0  0  0  0  0  0  0  0  0  0  0  0
   -4.7052    6.0909   -1.5748 C   0  0  0  0  0  0  0  0  0  0  0  0
   -3.7052    5.0261   -1.9748 C   0  0  0  0  0  0  0  0  0  0  0  0
   -5.6519    4.4403    1.1180 C   0  0  0  0  0  0  0  0  0  0  0  0
   -5.9404    3.9647   -0.1167 F   0  0  0  0  0  0  0  0  0  0  0  0
   -6.0506    3.6573    2.1856 C   0  0  0  0  0  0  0  0  0  0  0  0
   -5.7139    1.8772    4.6724 C   0  0  0  0  0  0  0  0  0  0  0  0
   -5.7973    1.0672    5.8312 C   0  0  0  0  0  0  0  0  0  0  0  0
   -6.3563    1.5797    7.0131 C   0  0  0  0  0  0  0  0  0  0  0  0
   -6.3680    0.7747    8.2392 C   0  0  0  0  0  0  0  0  0  0  0  0
   -6.7990   -0.5528    8.2367 C   0  0  0  0  0  0  0  0  0  0  0  0
   -6.6883   -1.3286    9.3684 C   0  0  0  0  0  0  0  0  0  0  0  0
   -6.1675   -0.8186   10.5596 C   0  0  0  0  0  0  0  0  0  0  0  0
   -6.0739   -1.9594   11.9049 S   0  0  0  0  0  0  0  0  0  0  0  0
   -4.7986   -1.3165   13.0492 C   0  0  0  0  0  0  0  0  0  0  0  0
   -3.4236   -1.2512   12.4157 C   0  0  0  0  0  0  0  0  0  0  0  0
   -5.8179    0.5279   10.5685 C   0  0  0  0  0  0  0  0  0  0  0  0
   -5.8947    1.3087    9.4322 C   0  0  0  0  0  0  0  0  0  0  0  0
   -5.3691    1.1320   11.6921 F   0  0  0  0  0  0  0  0  0  0  0  0
   -6.8303    2.8842    6.9571 C   0  0  0  0  0  0  0  0  0  0  0  0
   -7.6425    3.7304    8.2489 S   0  0  0  0  0  0  0  0  0  0  0  0
   -5.1772   -0.1951    5.6390 C   0  0  0  0  0  0  0  0  0  0  0  0
   -4.6676   -0.3706    4.3898 C   0  0  0  0  0  0  0  0  0  0  0  0
   -4.9418    1.0206    3.3607 S   0  0  0  0  0  0  0  0  0  0  0  0
   -3.9166   -1.4759    3.9011 C   0  0  0  0  0  0  0  0  0  0  0  0
   -3.2482   -1.5672    2.7185 C   0  0  0  0  0  0  0  0  0  0  0  0
   -2.4715   -2.7444    2.5876 C   0  0  0  0  0  0  0  0  0  0  0  0
   -1.6008   -3.0946    1.5280 C   0  0  0  0  0  0  0  0  0  0  0  0
   -1.5934   -2.3404    0.3004 C   0  0  0  0  0  0  0  0  0  0  0  0
   -2.6425   -1.6426   -0.2448 C   0  0  0  0  0  0  0  0  0  0  0  0
   -2.3653   -0.9091   -1.4122 C   0  0  0  0  0  0  0  0  0  0  0  0
   -1.0819   -1.0126   -1.8681 C   0  0  0  0  0  0  0  0  0  0  0  0
   -0.4392   -0.1192   -3.2275 S   0  0  0  0  0  0  0  0  0  0  0  0
    0.5916   -1.4025   -4.0173 C   0  0  0  0  0  0  0  0  0  0  0  0
   -0.2572   -2.5138   -4.5971 C   0  0  0  0  0  0  0  0  0  0  0  0
   -0.0366   -2.1201   -0.7531 Se  0  0  0  0  0  2  0  0  0  0  0  0
   -0.6918   -4.1104    1.8213 C   0  0  0  0  0  0  0  0  0  0  0  0
   -0.6767   -4.8234    3.0430 C   0  0  0  0  0  0  0  0  0  0  0  0
   -1.6967   -4.6252    4.0009 C   0  0  0  0  0  0  0  0  0  0  0  0
   -1.7777   -5.4403    5.1846 C   0  0  0  0  0  0  0  0  0  0  0  0
   -1.3808   -6.7478    5.3107 C   0  0  0  0  0  0  0  0  0  0  0  0
   -1.5461   -7.3310    6.5786 C   0  0  0  0  0  0  0  0  0  0  0  0
   -2.0925   -6.5104    7.5262 C   0  0  0  0  0  0  0  0  0  0  0  0
   -2.3721   -6.9974    9.1824 S   0  0  0  0  0  0  0  0  0  0  0  0
   -3.7795   -5.9277    9.6634 C   0  0  0  0  0  0  0  0  0  0  0  0
   -3.3388   -4.5887   10.2178 C   0  0  0  0  0  0  0  0  0  0  0  0
   -2.4417   -4.7957    6.8275 Se  0  0  0  0  0  2  0  0  0  0  0  0
   -2.5356   -3.5401    3.7547 C   0  0  0  0  0  0  0  0  0  0  0  0
   -3.6696   -2.8886    4.9062 S   0  0  0  0  0  0  0  0  0  0  0  0
    0.5400   -5.5291    3.2261 C   0  0  0  0  0  0  0  0  0  0  0  0
    1.4124   -5.3999    2.1891 C   0  0  0  0  0  0  0  0  0  0  0  0
    0.6974   -4.5179    0.8453 S   0  0  0  0  0  0  0  0  0  0  0  0
    2.8362   -5.5397    2.2560 C   0  0  0  0  0  0  0  0  0  0  0  0
    3.5420   -5.1981    3.3734 C   0  0  0  0  0  0  0  0  0  0  0  0
    4.9090   -4.9209    3.1330 C   0  0  0  0  0  0  0  0  0  0  0  0
    5.7935   -4.2885    4.0453 C   0  0  0  0  0  0  0  0  0  0  0  0
    5.5435   -4.3098    5.4622 C   0  0  0  0  0  0  0  0  0  0  0  0
    5.9948   -3.4570    6.4379 C   0  0  0  0  0  0  0  0  0  0  0  0
    5.6022   -3.7517    7.7553 C   0  0  0  0  0  0  0  0  0  0  0  0
    4.8402   -4.8775    7.9020 C   0  0  0  0  0  0  0  0  0  0  0  0
    4.2524   -5.4758    9.4342 S   0  0  0  0  0  0  0  0  0  0  0  0
    2.8171   -6.4806    8.9048 C   0  0  0  0  0  0  0  0  0  0  0  0
    1.6642   -5.6284    8.4151 C   0  0  0  0  0  0  0  0  0  0  0  0
    4.5740   -5.7332    6.2508 Se  0  0  0  0  0  2  0  0  0  0  0  0
    6.8344   -3.5854    3.4313 C   0  0  0  0  0  0  0  0  0  0  0  0
    7.1630   -3.7688    2.0685 C   0  0  0  0  0  0  0  0  0  0  0  0
    6.4497   -4.6641    1.2348 C   0  0  0  0  0  0  0  0  0  0  0  0
    6.9189   -4.9527   -0.0960 C   0  0  0  0  0  0  0  0  0  0  0  0
    6.2156   -5.1836   -1.2474 C   0  0  0  0  0  0  0  0  0  0  0  0
    6.9827   -5.4253   -2.4024 C   0  0  0  0  0  0  0  0  0  0  0  0
    8.3378   -5.4295   -2.2139 C   0  0  0  0  0  0  0  0  0  0  0  0
    9.4938   -5.7220   -3.4938 S   0  0  0  0  0  0  0  0  0  0  0  0
   11.0907   -5.4787   -2.6370 C   0  0  0  0  0  0  0  0  0  0  0  0
   11.4390   -4.0169   -2.4425 C   0  0  0  0  0  0  0  0  0  0  0  0
    8.7748   -5.1111   -0.4139 Se  0  0  0  0  0  2  0  0  0  0  0  0
    5.2397   -5.1003    1.7697 C   0  0  0  0  0  0  0  0  0  0  0  0
    3.8723   -5.7029    0.8607 S   0  0  0  0  0  0  0  0  0  0  0  0
    8.0195   -2.7526    1.5861 C   0  0  0  0  0  0  0  0  0  0  0  0
    8.2978   -1.7769    2.5022 C   0  0  0  0  0  0  0  0  0  0  0  0
    7.7047   -2.2146    4.0893 S   0  0  0  0  0  0  0  0  0  0  0  0
    8.5516   -0.4248    2.1016 C   0  0  0  0  0  0  0  0  0  0  0  0
    8.9226   -0.0432    0.8433 C   0  0  0  0  0  0  0  0  0  0  0  0
    8.4057    1.2196    0.4559 C   0  0  0  0  0  0  0  0  0  0  0  0
    8.2496    1.6610   -0.8720 C   0  0  0  0  0  0  0  0  0  0  0  0
    8.8942    0.9160   -1.9636 C   0  0  0  0  0  0  0  0  0  0  0  0
   10.2688    0.6818   -1.9642 C   0  0  0  0  0  0  0  0  0  0  0  0
   10.8512   -0.0792   -2.9544 C   0  0  0  0  0  0  0  0  0  0  0  0
   10.0947   -0.6384   -3.9860 C   0  0  0  0  0  0  0  0  0  0  0  0
   10.9741   -1.5669   -5.2027 S   0  0  0  0  0  0  0  0  0  0  0  0
    9.7492   -2.7699   -5.8606 C   0  0  0  0  0  0  0  0  0  0  0  0
   10.4953   -3.8927   -6.5531 C   0  0  0  0  0  0  0  0  0  0  0  0
    8.7286   -0.3772   -3.9845 C   0  0  0  0  0  0  0  0  0  0  0  0
    7.9225   -0.8542   -4.9602 F   0  0  0  0  0  0  0  0  0  0  0  0
    8.1318    0.3722   -2.9909 C   0  0  0  0  0  0  0  0  0  0  0  0
    7.3149    2.6628   -1.0834 C   0  0  0  0  0  0  0  0  0  0  0  0
    6.6065    3.2802   -0.0228 C   0  0  0  0  0  0  0  0  0  0  0  0
    6.8057    2.8783    1.3084 C   0  0  0  0  0  0  0  0  0  0  0  0
    5.8939    3.3909    2.3451 C   0  0  0  0  0  0  0  0  0  0  0  0
    4.5250    3.1806    2.1881 C   0  0  0  0  0  0  0  0  0  0  0  0
    3.6129    3.7366    3.0593 C   0  0  0  0  0  0  0  0  0  0  0  0
    4.0390    4.5330    4.1165 C   0  0  0  0  0  0  0  0  0  0  0  0
    2.9445    5.3671    5.2189 S   0  0  0  0  0  0  0  0  0  0  0  0
    1.4201    5.5540    4.2254 C   0  0  0  0  0  0  0  0  0  0  0  0
    1.6218    6.4112    2.9925 C   0  0  0  0  0  0  0  0  0  0  0  0
    5.4143    4.6687    4.3075 C   0  0  0  0  0  0  0  0  0  0  0  0
    6.3382    4.1120    3.4460 C   0  0  0  0  0  0  0  0  0  0  0  0
    5.8652    5.3925    5.3505 F   0  0  0  0  0  0  0  0  0  0  0  0
    7.6901    1.8368    1.5137 C   0  0  0  0  0  0  0  0  0  0  0  0
    7.7703    0.8867    2.9789 S   0  0  0  0  0  0  0  0  0  0  0  0
    5.5422    4.0877   -0.4914 C   0  0  0  0  0  0  0  0  0  0  0  0
    5.3606    4.0298   -1.8406 C   0  0  0  0  0  0  0  0  0  0  0  0
    6.6654    3.1558   -2.6342 S   0  0  0  0  0  0  0  0  0  0  0  0
    4.1127    4.2420   -2.5016 C   0  0  0  0  0  0  0  0  0  0  0  0
    3.7849    4.0712   -3.8122 C   0  0  0  0  0  0  0  0  0  0  0  0
    2.3942    3.8873   -4.0320 C   0  0  0  0  0  0  0  0  0  0  0  0
    1.7409    3.5337   -5.2289 C   0  0  0  0  0  0  0  0  0  0  0  0
    2.4482    3.4025   -6.4862 C   0  0  0  0  0  0  0  0  0  0  0  0
    3.6490    2.7957   -6.7199 C   0  0  0  0  0  0  0  0  0  0  0  0
    4.1110    2.8287   -8.0509 C   0  0  0  0  0  0  0  0  0  0  0  0
    3.2895    3.4699   -8.9329 C   0  0  0  0  0  0  0  0  0  0  0  0
    3.6045    3.5637  -10.6508 S   0  0  0  0  0  0  0  0  0  0  0  0
    2.4556    4.8868  -11.1656 C   0  0  0  0  0  0  0  0  0  0  0  0
    2.9255    6.2576  -10.7240 C   0  0  0  0  0  0  0  0  0  0  0  0
    1.7284    4.1022   -8.0822 Se  0  0  0  0  0  2  0  0  0  0  0  0
    0.3865    3.2340   -5.1230 C   0  0  0  0  0  0  0  0  0  0  0  0
   -0.3382    3.2490   -3.9081 C   0  0  0  0  0  0  0  0  0  0  0  0
    0.3005    3.6529   -2.7185 C   0  0  0  0  0  0  0  0  0  0  0  0
   -0.3661    3.6459   -1.4301 C   0  0  0  0  0  0  0  0  0  0  0  0
   -1.2217    2.7029   -0.9367 C   0  0  0  0  0  0  0  0  0  0  0  0
   -1.7343    2.9351    0.3583 C   0  0  0  0  0  0  0  0  0  0  0  0
   -1.2917    4.0822    0.9472 C   0  0  0  0  0  0  0  0  0  0  0  0
   -1.6580    4.7415    2.5289 S   0  0  0  0  0  0  0  0  0  0  0  0
   -2.3467    3.3021    3.4116 C   0  0  0  0  0  0  0  0  0  0  0  0
   -1.3167    2.2252    3.6865 C   0  0  0  0  0  0  0  0  0  0  0  0
   -0.1057    5.0270   -0.1588 Se  0  0  0  0  0  2  0  0  0  0  0  0
    1.6510    3.9678   -2.8300 C   0  0  0  0  0  0  0  0  0  0  0  0
    2.6850    4.3104   -1.4728 S   0  0  0  0  0  0  0  0  0  0  0  0
   -1.6459    2.7251   -4.0741 C   0  0  0  0  0  0  0  0  0  0  0  0
   -1.9114    2.3012   -5.3383 C   0  0  0  0  0  0  0  0  0  0  0  0
   -0.5786    2.6089   -6.4332 S   0  0  0  0  0  0  0  0  0  0  0  0
   -3.0062    1.4948   -5.7844 C   0  0  0  0  0  0  0  0  0  0  0  0
   -3.5473    1.3824   -7.0264 C   0  0  0  0  0  0  0  0  0  0  0  0
   -4.5050    0.3389   -7.1405 C   0  0  0  0  0  0  0  0  0  0  0  0
   -5.2717   -0.0361   -8.2619 C   0  0  0  0  0  0  0  0  0  0  0  0
   -5.0968    0.6086   -9.5443 C   0  0  0  0  0  0  0  0  0  0  0  0
   -3.9197    0.9932  -10.1250 C   0  0  0  0  0  0  0  0  0  0  0  0
   -4.0249    1.6342  -11.3740 C   0  0  0  0  0  0  0  0  0  0  0  0
   -5.3000    1.7900  -11.8382 C   0  0  0  0  0  0  0  0  0  0  0  0
   -5.6767    2.4844  -13.3988 S   0  0  0  0  0  0  0  0  0  0  0  0
   -7.4701    2.7939  -13.2459 C   0  0  0  0  0  0  0  0  0  0  0  0
   -7.7738    3.9779  -12.3508 C   0  0  0  0  0  0  0  0  0  0  0  0
   -6.5603    1.0453  -10.6488 Se  0  0  0  0  0  2  0  0  0  0  0  0
   -6.1810   -1.0742   -8.0653 C   0  0  0  0  0  0  0  0  0  0  0  0
   -6.2975   -1.8008   -6.8583 C   0  0  0  0  0  0  0  0  0  0  0  0
   -5.5047   -1.4526   -5.7508 C   0  0  0  0  0  0  0  0  0  0  0  0
   -5.5125   -2.2107   -4.5150 C   0  0  0  0  0  0  0  0  0  0  0  0
   -6.5734   -2.6899   -3.8048 C   0  0  0  0  0  0  0  0  0  0  0  0
   -6.2575   -3.4595   -2.6652 C   0  0  0  0  0  0  0  0  0  0  0  0
   -4.9241   -3.6316   -2.4334 C   0  0  0  0  0  0  0  0  0  0  0  0
   -4.2775   -4.4754   -1.0397 S   0  0  0  0  0  0  0  0  0  0  0  0
   -2.6094   -4.9248   -1.6258 C   0  0  0  0  0  0  0  0  0  0  0  0
   -2.6385   -5.9934   -2.6973 C   0  0  0  0  0  0  0  0  0  0  0  0
   -3.8837   -2.7301   -3.7172 Se  0  0  0  0  0  2  0  0  0  0  0  0
   -4.6562   -0.3640   -5.9236 C   0  0  0  0  0  0  0  0  0  0  0  0
   -3.6610    0.3142   -4.6674 S   0  0  0  0  0  0  0  0  0  0  0  0
   -7.2319   -2.8719   -6.9764 C   0  0  0  0  0  0  0  0  0  0  0  0
   -7.8081   -2.9360   -8.1926 C   0  0  0  0  0  0  0  0  0  0  0  0
   -7.2463   -1.7188   -9.2865 S   0  0  0  0  0  0  0  0  0  0  0  0
   -8.3465    5.9783    7.6497 H   0  0  0  0  0  0  0  0  0  0  0  0
   -7.3656    5.7360    5.2470 H   0  0  0  0  0  0  0  0  0  0  0  0
   -4.9529    5.6251    4.6926 H   0  0  0  0  0  0  0  0  0  0  0  0
   -4.2504    6.9868    2.7788 H   0  0  0  0  0  0  0  0  0  0  0  0
   -4.6143    6.9670   -2.2183 H   0  0  0  0  0  0  0  0  0  0  0  0
   -5.7306    5.7317   -1.6118 H   0  0  0  0  0  0  0  0  0  0  0  0
   -2.6885    5.4073   -1.8872 H   0  0  0  0  0  0  0  0  0  0  0  0
   -3.7987    4.1460   -1.3437 H   0  0  0  0  0  0  0  0  0  0  0  0
   -3.8795    4.7320   -3.0080 H   0  0  0  0  0  0  0  0  0  0  0  0
   -6.5679    2.7341    1.9741 H   0  0  0  0  0  0  0  0  0  0  0  0
   -7.2285   -0.9747    7.3411 H   0  0  0  0  0  0  0  0  0  0  0  0
   -7.0025   -2.3611    9.3536 H   0  0  0  0  0  0  0  0  0  0  0  0
   -4.8190   -2.0405   13.8645 H   0  0  0  0  0  0  0  0  0  0  0  0
   -5.1216   -0.3500   13.4285 H   0  0  0  0  0  0  0  0  0  0  0  0
   -2.7008   -0.9145   13.1558 H   0  0  0  0  0  0  0  0  0  0  0  0
   -3.4086   -0.5521   11.5830 H   0  0  0  0  0  0  0  0  0  0  0  0
   -3.1213   -2.2300   12.0507 H   0  0  0  0  0  0  0  0  0  0  0  0
   -5.5635    2.3335    9.4938 H   0  0  0  0  0  0  0  0  0  0  0  0
   -5.0739   -0.9373    6.4098 H   0  0  0  0  0  0  0  0  0  0  0  0
   -3.2524   -0.7646    2.0045 H   0  0  0  0  0  0  0  0  0  0  0  0
   -3.6427   -1.7106    0.1466 H   0  0  0  0  0  0  0  0  0  0  0  0
   -3.1089   -0.3148   -1.9168 H   0  0  0  0  0  0  0  0  0  0  0  0
    1.2883   -1.7732   -3.2597 H   0  0  0  0  0  0  0  0  0  0  0  0
    1.1463   -0.8732   -4.7915 H   0  0  0  0  0  0  0  0  0  0  0  0
    0.3717   -3.2340   -5.1159 H   0  0  0  0  0  0  0  0  0  0  0  0
   -0.7987   -3.0327   -3.8042 H   0  0  0  0  0  0  0  0  0  0  0  0
   -0.9851   -2.1099   -5.2994 H   0  0  0  0  0  0  0  0  0  0  0  0
   -1.0280   -7.3204    4.4697 H   0  0  0  0  0  0  0  0  0  0  0  0
   -1.2904   -8.3557    6.7873 H   0  0  0  0  0  0  0  0  0  0  0  0
   -4.3196   -6.5030   10.4148 H   0  0  0  0  0  0  0  0  0  0  0  0
   -4.4052   -5.8111    8.7765 H   0  0  0  0  0  0  0  0  0  0  0  0
   -2.7970   -4.0169    9.4616 H   0  0  0  0  0  0  0  0  0  0  0  0
   -4.2135   -4.0175   10.5238 H   0  0  0  0  0  0  0  0  0  0  0  0
   -2.6879   -4.7317   11.0776 H   0  0  0  0  0  0  0  0  0  0  0  0
    0.8019   -6.0289    4.1407 H   0  0  0  0  0  0  0  0  0  0  0  0
    3.0401   -4.9690    4.2977 H   0  0  0  0  0  0  0  0  0  0  0  0
    6.5670   -2.5733    6.2166 H   0  0  0  0  0  0  0  0  0  0  0  0
    5.8640   -3.1276    8.5921 H   0  0  0  0  0  0  0  0  0  0  0  0
    3.1716   -7.1691    8.1314 H   0  0  0  0  0  0  0  0  0  0  0  0
    2.5386   -7.0507    9.7901 H   0  0  0  0  0  0  0  0  0  0  0  0
    1.3482   -4.9344    9.1904 H   0  0  0  0  0  0  0  0  0  0  0  0
    0.8210   -6.2641    8.1507 H   0  0  0  0  0  0  0  0  0  0  0  0
    1.9552   -5.0546    7.5344 H   0  0  0  0  0  0  0  0  0  0  0  0
    5.1412   -5.1299   -1.2873 H   0  0  0  0  0  0  0  0  0  0  0  0
    6.5409   -5.5872   -3.3705 H   0  0  0  0  0  0  0  0  0  0  0  0
   11.8231   -5.9777   -3.2711 H   0  0  0  0  0  0  0  0  0  0  0  0
   11.0238   -6.0107   -1.6830 H   0  0  0  0  0  0  0  0  0  0  0  0
   10.6666   -3.5075   -1.8645 H   0  0  0  0  0  0  0  0  0  0  0  0
   11.5432   -3.5125   -3.3997 H   0  0  0  0  0  0  0  0  0  0  0  0
   12.3795   -3.9348   -1.9021 H   0  0  0  0  0  0  0  0  0  0  0  0
    8.2450   -2.6282    0.5412 H   0  0  0  0  0  0  0  0  0  0  0  0
    9.4355   -0.6953    0.1596 H   0  0  0  0  0  0  0  0  0  0  0  0
   10.8809    1.1028   -1.1810 H   0  0  0  0  0  0  0  0  0  0  0  0
   11.9148   -0.2609   -2.9488 H   0  0  0  0  0  0  0  0  0  0  0  0
    9.0950   -2.2476   -6.5563 H   0  0  0  0  0  0  0  0  0  0  0  0
    9.1727   -3.1464   -5.0169 H   0  0  0  0  0  0  0  0  0  0  0  0
   11.1002   -3.5052   -7.3698 H   0  0  0  0  0  0  0  0  0  0  0  0
    9.7815   -4.6091   -6.9524 H   0  0  0  0  0  0  0  0  0  0  0  0
   11.1471   -4.4110   -5.8538 H   0  0  0  0  0  0  0  0  0  0  0  0
    7.0630    0.5106   -3.0277 H   0  0  0  0  0  0  0  0  0  0  0  0
    4.1704    2.5732    1.3687 H   0  0  0  0  0  0  0  0  0  0  0  0
    2.5621    3.5548    2.9014 H   0  0  0  0  0  0  0  0  0  0  0  0
    0.7249    6.0286    4.9174 H   0  0  0  0  0  0  0  0  0  0  0  0
    1.0359    4.5663    3.9760 H   0  0  0  0  0  0  0  0  0  0  0  0
    2.3421    5.9593    2.3129 H   0  0  0  0  0  0  0  0  0  0  0  0
    1.9795    7.3994    3.2707 H   0  0  0  0  0  0  0  0  0  0  0  0
    0.6722    6.5160    2.4669 H   0  0  0  0  0  0  0  0  0  0  0  0
    7.3901    4.2748    3.6212 H   0  0  0  0  0  0  0  0  0  0  0  0
    4.8647    4.6129    0.1573 H   0  0  0  0  0  0  0  0  0  0  0  0
    4.5256    4.0333   -4.5900 H   0  0  0  0  0  0  0  0  0  0  0  0
    4.1950    2.2843   -5.9449 H   0  0  0  0  0  0  0  0  0  0  0  0
    5.0418    2.3823   -8.3554 H   0  0  0  0  0  0  0  0  0  0  0  0
    2.4142    4.8111  -12.2516 H   0  0  0  0  0  0  0  0  0  0  0  0
    1.4735    4.6401  -10.7490 H   0  0  0  0  0  0  0  0  0  0  0  0
    2.9784    6.3123   -9.6366 H   0  0  0  0  0  0  0  0  0  0  0  0
    3.9115    6.4697  -11.1306 H   0  0  0  0  0  0  0  0  0  0  0  0
    2.2295    7.0171  -11.0737 H   0  0  0  0  0  0  0  0  0  0  0  0
   -1.4529    1.8016   -1.4779 H   0  0  0  0  0  0  0  0  0  0  0  0
   -2.4185    2.2478    0.8265 H   0  0  0  0  0  0  0  0  0  0  0  0
   -3.1833    2.9308    2.8229 H   0  0  0  0  0  0  0  0  0  0  0  0
   -2.7343    3.7223    4.3391 H   0  0  0  0  0  0  0  0  0  0  0  0
   -0.8617    1.8774    2.7613 H   0  0  0  0  0  0  0  0  0  0  0  0
   -1.7966    1.3784    4.1744 H   0  0  0  0  0  0  0  0  0  0  0  0
   -0.5335    2.6021    4.3404 H   0  0  0  0  0  0  0  0  0  0  0  0
   -2.3632    2.6433   -3.2798 H   0  0  0  0  0  0  0  0  0  0  0  0
   -3.2840    2.0467   -7.8291 H   0  0  0  0  0  0  0  0  0  0  0  0
   -2.9636    0.7826   -9.6756 H   0  0  0  0  0  0  0  0  0  0  0  0
   -3.1680    1.9772  -11.9277 H   0  0  0  0  0  0  0  0  0  0  0  0
   -7.8086    2.9700  -14.2664 H   0  0  0  0  0  0  0  0  0  0  0  0
   -7.9251    1.8722  -12.8693 H   0  0  0  0  0  0  0  0  0  0  0  0
   -7.2940    4.8757  -12.7335 H   0  0  0  0  0  0  0  0  0  0  0  0
   -7.4131    3.7953  -11.3385 H   0  0  0  0  0  0  0  0  0  0  0  0
   -8.8482    4.1432  -12.3090 H   0  0  0  0  0  0  0  0  0  0  0  0
   -7.5921   -2.4691   -4.0779 H   0  0  0  0  0  0  0  0  0  0  0  0
   -7.0090   -3.8865   -2.0235 H   0  0  0  0  0  0  0  0  0  0  0  0
   -2.1391   -4.0030   -1.9848 H   0  0  0  0  0  0  0  0  0  0  0  0
   -2.0858   -5.2674   -0.7335 H   0  0  0  0  0  0  0  0  0  0  0  0
   -3.1694   -5.6358   -3.5800 H   0  0  0  0  0  0  0  0  0  0  0  0
   -1.6218   -6.2508   -2.9868 H   0  0  0  0  0  0  0  0  0  0  0  0
   -3.1373   -6.8872   -2.3295 H   0  0  0  0  0  0  0  0  0  0  0  0
   -7.4427   -3.5623   -6.1804 H   0  0  0  0  0  0  0  0  0  0  0  0
   -8.5419   -3.6353   -8.5425 H   0  0  0  0  0  0  0  0  0  0  0  0
  1  2  2  0  0  0  0
  2  3  1  0  0  0  0
  3  4  2  0  0  0  0
  4  5  1  0  0  0  0
  5  6  2  0  0  0  0
  6  7  1  0  0  0  0
  7  8  2  0  0  0  0
  8  9  1  0  0  0  0
  9 10  1  0  0  0  0
 10 11  1  0  0  0  0
  8 12  1  0  0  0  0
 12 13  1  0  0  0  0
 12 14  2  0  0  0  0
  4 15  1  0  0  0  0
 15 16  2  0  0  0  0
 16 17  1  0  0  0  0
 17 18  1  0  0  0  0
 18 19  2  0  0  0  0
 19 20  1  0  0  0  0
 20 21  2  0  0  0  0
 21 22  1  0  0  0  0
 22 23  1  0  0  0  0
 23 24  1  0  0  0  0
 21 25  1  0  0  0  0
 25 26  2  0  0  0  0
 25 27  1  0  0  0  0
 17 28  2  0  0  0  0
 28 29  1  0  0  0  0
 16 30  1  0  0  0  0
 30 31  2  0  0  0  0
 31 32  1  0  0  0  0
 31 33  1  0  0  0  0
 33 34  2  0  0  0  0
 34 35  1  0  0  0  0
 35 36  2  0  0  0  0
 36 37  1  0  0  0  0
 37 38  2  0  0  0  0
 38 39  1  0  0  0  0
 39 40  2  0  0  0  0
 40 41  1  0  0  0  0
 41 42  1  0  0  0  0
 42 43  1  0  0  0  0
 40 44  1  0  0  0  0
 36 45  1  0  0  0  0
 45 46  2  0  0  0  0
 46 47  1  0  0  0  0
 47 48  1  0  0  0  0
 48 49  2  0  0  0  0
 49 50  1  0  0  0  0
 50 51  2  0  0  0  0
 51 52  1  0  0  0  0
 52 53  1  0  0  0  0
 53 54  1  0  0  0  0
 51 55  1  0  0  0  0
 47 56  2  0  0  0  0
 56 57  1  0  0  0  0
 46 58  1  0  0  0  0
 58 59  2  0  0  0  0
 59 60  1  0  0  0  0
 59 61  1  0  0  0  0
 61 62  2  0  0  0  0
 62 63  1  0  0  0  0
 63 64  2  0  0  0  0
 64 65  1  0  0  0  0
 65 66  2  0  0  0  0
 66 67  1  0  0  0  0
 67 68  2  0  0  0  0
 68 69  1  0  0  0  0
 69 70  1  0  0  0  0
 70 71  1  0  0  0  0
 68 72  1  0  0  0  0
 64 73  1  0  0  0  0
 73 74  2  0  0  0  0
 74 75  1  0  0  0  0
 75 76  1  0  0  0  0
 76 77  2  0  0  0  0
 77 78  1  0  0  0  0
 78 79  2  0  0  0  0
 79 80  1  0  0  0  0
 80 81  1  0  0  0  0
 81 82  1  0  0  0  0
 79 83  1  0  0  0  0
 75 84  2  0  0  0  0
 84 85  1  0  0  0  0
 74 86  1  0  0  0  0
 86 87  2  0  0  0  0
 87 88  1  0  0  0  0
 87 89  1  0  0  0  0
 89 90  2  0  0  0  0
 90 91  1  0  0  0  0
 91 92  2  0  0  0  0
 92 93  1  0  0  0  0
 93 94  2  0  0  0  0
 94 95  1  0  0  0  0
 95 96  2  0  0  0  0
 96 97  1  0  0  0  0
 97 98  1  0  0  0  0
 98 99  1  0  0  0  0
 96100  1  0  0  0  0
100101  1  0  0  0  0
100102  2  0  0  0  0
 92103  1  0  0  0  0
103104  2  0  0  0  0
104105  1  0  0  0  0
105106  1  0  0  0  0
106107  2  0  0  0  0
107108  1  0  0  0  0
108109  2  0  0  0  0
109110  1  0  0  0  0
110111  1  0  0  0  0
111112  1  0  0  0  0
109113  1  0  0  0  0
113114  2  0  0  0  0
113115  1  0  0  0  0
105116  2  0  0  0  0
116117  1  0  0  0  0
104118  1  0  0  0  0
118119  2  0  0  0  0
119120  1  0  0  0  0
119121  1  0  0  0  0
121122  2  0  0  0  0
122123  1  0  0  0  0
123124  2  0  0  0  0
124125  1  0  0  0  0
125126  2  0  0  0  0
126127  1  0  0  0  0
127128  2  0  0  0  0
128129  1  0  0  0  0
129130  1  0  0  0  0
130131  1  0  0  0  0
128132  1  0  0  0  0
124133  1  0  0  0  0
133134  2  0  0  0  0
134135  1  0  0  0  0
135136  1  0  0  0  0
136137  2  0  0  0  0
137138  1  0  0  0  0
138139  2  0  0  0  0
139140  1  0  0  0  0
140141  1  0  0  0  0
141142  1  0  0  0  0
139143  1  0  0  0  0
135144  2  0  0  0  0
144145  1  0  0  0  0
134146  1  0  0  0  0
146147  2  0  0  0  0
147148  1  0  0  0  0
147149  1  0  0  0  0
149150  2  0  0  0  0
150151  1  0  0  0  0
151152  2  0  0  0  0
152153  1  0  0  0  0
153154  2  0  0  0  0
154155  1  0  0  0  0
155156  2  0  0  0  0
156157  1  0  0  0  0
157158  1  0  0  0  0
158159  1  0  0  0  0
156160  1  0  0  0  0
152161  1  0  0  0  0
161162  2  0  0  0  0
162163  1  0  0  0  0
163164  1  0  0  0  0
164165  2  0  0  0  0
165166  1  0  0  0  0
166167  2  0  0  0  0
167168  1  0  0  0  0
168169  1  0  0  0  0
169170  1  0  0  0  0
167171  1  0  0  0  0
163172  2  0  0  0  0
172173  1  0  0  0  0
162174  1  0  0  0  0
174175  2  0  0  0  0
175176  1  0  0  0  0
 29  1  1  0  0  0  0
 57 33  1  0  0  0  0
 85 61  1  0  0  0  0
117 89  1  0  0  0  0
145121  1  0  0  0  0
173149  1  0  0  0  0
 28  3  1  0  0  0  0
 56 35  1  0  0  0  0
 84 63  1  0  0  0  0
116 91  1  0  0  0  0
144123  1  0  0  0  0
172151  1  0  0  0  0
 14  5  1  0  0  0  0
 32 15  1  0  0  0  0
 44 37  1  0  0  0  0
 60 45  1  0  0  0  0
 72 65  1  0  0  0  0
 88 73  1  0  0  0  0
102 93  1  0  0  0  0
120103  1  0  0  0  0
132125  1  0  0  0  0
148133  1  0  0  0  0
160153  1  0  0  0  0
176161  1  0  0  0  0
 26 18  1  0  0  0  0
 55 48  1  0  0  0  0
 83 76  1  0  0  0  0
114106  1  0  0  0  0
143136  1  0  0  0  0
171164  1  0  0  0  0
  1177  1  0  0  0  0
  2178  1  0  0  0  0
  6179  1  0  0  0  0
  7180  1  0  0  0  0
 10181  1  0  0  0  0
 10182  1  0  0  0  0
 11183  1  0  0  0  0
 11184  1  0  0  0  0
 11185  1  0  0  0  0
 14186  1  0  0  0  0
 19187  1  0  0  0  0
 20188  1  0  0  0  0
 23189  1  0  0  0  0
 23190  1  0  0  0  0
 24191  1  0  0  0  0
 24192  1  0  0  0  0
 24193  1  0  0  0  0
 26194  1  0  0  0  0
 30195  1  0  0  0  0
 34196  1  0  0  0  0
 38197  1  0  0  0  0
 39198  1  0  0  0  0
 42199  1  0  0  0  0
 42200  1  0  0  0  0
 43201  1  0  0  0  0
 43202  1  0  0  0  0
 43203  1  0  0  0  0
 49204  1  0  0  0  0
 50205  1  0  0  0  0
 53206  1  0  0  0  0
 53207  1  0  0  0  0
 54208  1  0  0  0  0
 54209  1  0  0  0  0
 54210  1  0  0  0  0
 58211  1  0  0  0  0
 62212  1  0  0  0  0
 66213  1  0  0  0  0
 67214  1  0  0  0  0
 70215  1  0  0  0  0
 70216  1  0  0  0  0
 71217  1  0  0  0  0
 71218  1  0  0  0  0
 71219  1  0  0  0  0
 77220  1  0  0  0  0
 78221  1  0  0  0  0
 81222  1  0  0  0  0
 81223  1  0  0  0  0
 82224  1  0  0  0  0
 82225  1  0  0  0  0
 82226  1  0  0  0  0
 86227  1  0  0  0  0
 90228  1  0  0  0  0
 94229  1  0  0  0  0
 95230  1  0  0  0  0
 98231  1  0  0  0  0
 98232  1  0  0  0  0
 99233  1  0  0  0  0
 99234  1  0  0  0  0
 99235  1  0  0  0  0
102236  1  0  0  0  0
107237  1  0  0  0  0
108238  1  0  0  0  0
111239  1  0  0  0  0
111240  1  0  0  0  0
112241  1  0  0  0  0
112242  1  0  0  0  0
112243  1  0  0  0  0
114244  1  0  0  0  0
118245  1  0  0  0  0
122246  1  0  0  0  0
126247  1  0  0  0  0
127248  1  0  0  0  0
130249  1  0  0  0  0
130250  1  0  0  0  0
131251  1  0  0  0  0
131252  1  0  0  0  0
131253  1  0  0  0  0
137254  1  0  0  0  0
138255  1  0  0  0  0
141256  1  0  0  0  0
141257  1  0  0  0  0
142258  1  0  0  0  0
142259  1  0  0  0  0
142260  1  0  0  0  0
146261  1  0  0  0  0
150262  1  0  0  0  0
154263  1  0  0  0  0
155264  1  0  0  0  0
158265  1  0  0  0  0
158266  1  0  0  0  0
159267  1  0  0  0  0
159268  1  0  0  0  0
159269  1  0  0  0  0
165270  1  0  0  0  0
166271  1  0  0  0  0
169272  1  0  0  0  0
169273  1  0  0  0  0
170274  1  0  0  0  0
170275  1  0  0  0  0
170276  1  0  0  0  0
174277  1  0  0  0  0
175278  1  0  0  0  0
M  END
