296

C         -3.54040       -2.99090       11.41050
C         -3.37350       -1.69870       11.06760
C         -3.12630       -1.52350        9.67400
C         -2.88940       -0.32920        8.98560
C         -2.87490        0.99200        9.62810
C         -2.02910        1.29050       10.69290
C         -1.97250        2.57200       11.20040
C         -2.76370        3.59540       10.68140
S         -2.60100        5.19880       11.41120
C         -2.73670        6.35310        9.99430
C         -1.69890        6.07690        8.92540
C         -3.64620        3.26510        9.65720
F         -4.48850        4.18770        9.14110
C         -3.69520        1.99520        9.12200
C         -2.66710       -0.43460        7.62300
C         -2.69270       -1.65860        6.91260
C         -2.94110       -2.86020        7.60110
C         -2.98920       -4.14780        6.90090
C         -4.00060       -5.06850        7.16700
C         -4.08040       -6.27030        6.49210
C         -3.13670       -6.60940        5.53090
S         -3.09860       -8.10390        4.60720
C         -4.48260       -9.09470        5.26170
C         -4.15250       -9.74050        6.59400
C         -2.12170       -5.68510        5.27840
C         -2.03510       -4.48220        5.94010
F         -1.18350       -5.98120        4.35420
C         -3.14970       -2.75340        8.97200
S         -3.42900       -4.08070       10.07150
C         -2.48390       -1.45230        5.52330
C         -2.25630       -0.15040        5.19160
S         -2.29000        0.91100        6.58390
C         -2.04010        0.41890        3.90380
C         -1.80290        1.73040        3.61940
C         -1.63990        1.99900        2.23730
C         -1.33930        3.23540        1.63300
C         -1.30530        4.45420        2.44580
C         -2.29990        4.70220        3.39390
C         -2.20560        5.77340        4.25410
C         -1.12970        6.65620        4.19190
S         -1.05600        7.95150        5.39200
C          0.72500        8.03800        5.81560
C          1.28010        6.69850        6.25650
C         -0.20610        6.46090        3.17110
F          0.81580        7.32880        2.98840
C         -0.27400        5.37770        2.32010
C         -1.07040        3.20570        0.27190
C         -1.15770        2.01760       -0.49670
C         -1.46590        0.78330        0.10390
C         -1.44580       -0.45420       -0.68570
C         -2.47070       -1.39380       -0.61380
C         -2.44860       -2.51850       -1.41550
C         -1.41390       -2.73870       -2.31440
S         -1.44410       -4.19680       -3.34240
C         -2.03700       -3.49300       -4.92780
C         -0.97700       -2.72400       -5.68720
C         -0.36890       -1.82360       -2.34170
C         -0.37470       -0.69910       -1.54240
F          0.68170       -2.00120       -3.16390
C         -1.72050        0.81390        1.46450
S         -2.08880       -0.56930        2.45990
C         -0.89480        2.25600       -1.86420
C         -0.54550        3.54240       -2.15040
S         -0.60050        4.56270       -0.73010
C         -0.00640        3.96580       -3.40070
C          0.66380        5.10740       -3.72640
C          1.36370        5.02400       -4.96200
C          2.40130        5.86390       -5.41630
C          2.72290        7.09940       -4.68620
C          1.74360        8.06030       -4.45290
C          2.02920        9.22080       -3.75860
C          3.31020        9.46600       -3.27690
S          3.81120       10.88360       -2.35880
C          2.44080       12.06920       -2.57730
C          2.38340       12.62890       -3.98590
C          4.27990        8.48700       -3.50520
F          5.52870        8.68030       -3.04140
C          4.00460        7.32270       -4.18560
C          3.18750        5.38130       -6.45000
C          2.95080        4.13490       -7.08550
C          1.93060        3.29300       -6.62940
C          1.97010        1.83710       -6.89500
C          2.94530        1.11330       -6.20490
C          3.02210       -0.25500       -6.32010
C          2.14000       -0.96380       -7.13780
S          2.35840       -2.71300       -7.17240
C          1.72310       -3.23250       -8.81570
C          2.23210       -4.62740       -9.12090
C          1.16320       -0.22950       -7.80360
C          1.07310        1.14850       -7.69300
F          0.23870       -0.84090       -8.57840
C          1.16090        3.76760       -5.58330
S          0.07370        2.75960       -4.67670
C          4.05920        3.68430       -7.84400
C          5.17940        4.44810       -7.65130
S          4.77610        5.99040       -6.89630
C          6.39570        3.76210       -7.28770
C          6.78170        3.84650       -5.97650
C          7.00620        2.57870       -5.38450
C          6.78810        2.32230       -4.02410
C          6.32080        3.39700       -3.12290
C          7.08840        4.45950       -2.66070
C          6.52210        5.43310       -1.86090
C          5.17710        5.39090       -1.48650
S          4.61220        6.65850       -0.39780
C          2.80070        6.76700       -0.68370
C          2.28660        8.05010       -0.06320
C          4.42190        4.32390       -1.96320
F          3.11170        4.18170       -1.64690
C          4.97210        3.35640       -2.77530
C          6.59660        0.99750       -3.67070
C          6.57770       -0.07180       -4.59920
C          6.79520        0.19100       -5.96890
C          6.63310       -0.89960       -6.94280
C          7.34610       -2.08830       -6.79470
C          7.16450       -3.13220       -7.67700
C          6.25290       -3.04390       -8.72710
S          6.05220       -4.47030       -9.75540
C          5.89670       -3.77830      -11.44380
C          7.09650       -2.93410      -11.82230
C          5.52950       -1.86240       -8.84600
C          5.72130       -0.80020       -7.98780
F          4.59160       -1.71490       -9.80890
C          6.96620        1.51780       -6.32770
S          6.74800        2.16570       -7.95070
C          5.98150       -1.23530       -4.03720
C          5.55380       -1.06020       -2.75090
S          6.03240        0.49790       -2.10310
C          4.59300       -1.79760       -1.99380
C          3.91910       -2.94590       -2.29350
C          2.81110       -3.19370       -1.44210
C          1.84930       -4.22710       -1.52470
C          1.78320       -5.10460       -2.66550
C          2.07350       -4.78050       -3.96630
C          1.83290       -5.77970       -4.92220
C          1.33100       -6.95020       -4.42310
S          0.90050       -8.31290       -5.43210
C          0.14900       -9.46600       -4.23150
C          1.18800      -10.25320       -3.45840
Se         1.11890       -6.85960       -2.55480
C          0.89030       -4.25050       -0.51110
C          0.76920       -3.25040        0.48430
C          1.68530       -2.18010        0.52660
C          1.57710       -1.09800        1.48260
C          1.24430       -1.16730        2.80700
C          1.24100        0.05140        3.51570
C          1.56990        1.14800        2.77370
S          1.66400        2.78280        3.38450
C          2.85370        3.49020        2.17600
C          3.41110        4.80590        2.67530
Se         1.90000        0.69370        0.97760
C          2.68730       -2.20550       -0.43700
S          3.92480       -0.99750       -0.58280
C         -0.38930       -3.42710        1.27540
C         -1.12220       -4.52420        0.93570
S         -0.39710       -5.41420       -0.38000
C         -2.36440       -4.94920        1.49310
C         -3.16690       -4.26870        2.36180
C         -4.34400       -4.97350        2.72000
C         -5.37800       -4.56580        3.58230
C         -5.43510       -3.20770        4.13530
C         -5.22550       -2.09350        3.32560
C         -5.31790       -0.80910        3.82780
C         -5.60360       -0.58810        5.16960
S         -5.73360        0.97490        5.96680
C         -5.28640        2.19760        4.68880
C         -6.44980        2.54490        3.77920
C         -5.80840       -1.71200        5.97100
F         -6.06980       -1.53840        7.28400
C         -5.74740       -2.99250        5.47630
C         -6.36610       -5.50760        3.84510
C         -6.41220       -6.77930        3.22410
C         -5.42340       -7.15340        2.30440
C         -5.48460       -8.42120        1.56640
C         -6.63930       -8.78620        0.87500
C         -6.67370       -9.94340        0.12690
C         -5.57130      -10.79280        0.05450
S         -5.73660      -12.25960       -0.92030
C         -4.10540      -12.44100       -1.73320
C         -3.72020      -11.21020       -2.52920
C         -4.44230      -10.43840        0.78650
C         -4.38110       -9.26610        1.51140
F         -3.35750      -11.24320        0.81560
C         -4.39180       -6.24880        2.10210
S         -3.02820       -6.50090        1.05130
C         -7.52950       -7.54840        3.67050
C         -8.30110       -6.88790        4.55600
S         -7.73000       -5.29340        4.91660
H         -3.73530       -3.39750       12.38360
H         -3.42490       -0.88030       11.76240
H         -1.38540        0.52380       11.09720
H         -1.29860        2.80970       12.00890
H         -2.57460        7.32760       10.45510
H         -3.74930        6.31290        9.60000
H         -1.77420        6.82950        8.14220
H         -0.69820        6.10840        9.35280
H         -1.85200        5.09680        8.47620
H         -4.39890        1.78930        8.33020
H         -4.75240       -4.83710        7.90560
H         -4.89300       -6.93970        6.72220
H         -4.64210       -9.85210        4.49360
H         -5.36720       -8.46070        5.30650
H         -4.99650      -10.33770        6.93380
H         -3.28670      -10.39010        6.48990
H         -3.92830       -8.99170        7.35070
H         -1.20200       -3.83100        5.72800
H         -2.53580       -2.23420        4.78790
H         -1.69410        2.47230        4.38970
H         -3.15430        4.04620        3.45580
H         -2.96010        5.93930        5.00750
H          1.26920        8.44600        4.96640
H          0.74930        8.76090        6.63110
H          1.25610        5.97370        5.44480
H          2.31380        6.82210        6.57290
H          0.70410        6.29920        7.08820
H          0.49540        5.25710        1.57580
H         -3.30340       -1.22960        0.05260
H         -3.24730       -3.24250       -1.36360
H         -2.35120       -4.37480       -5.48620
H         -2.91040       -2.87960       -4.70400
H         -1.34250       -2.48530       -6.68460
H         -0.07180       -3.32060       -5.77480
H         -0.72730       -1.79120       -5.18670
H          0.47240       -0.02800       -1.58160
H         -0.94790        1.49580       -2.62210
H          0.72840        5.94790       -3.05830
H          0.74460        7.90210       -4.83130
H          1.23770        9.93340       -3.59280
H          2.66960       12.85500       -1.85740
H          1.51020       11.58830       -2.27840
H          1.57500       13.35350       -4.06360
H          3.31960       13.12520       -4.23030
H          2.21450       11.83960       -4.71550
H          4.78830        6.59120       -4.29910
H          3.64800        1.63770       -5.57240
H          3.77110       -0.80670       -5.77310
H          2.09380       -2.51020       -9.54110
H          0.63500       -3.20980       -8.78860
H          3.31890       -4.65840       -9.09180
H          1.84760       -5.34610       -8.40020
H          1.90100       -4.92560      -10.11330
H          0.29040        1.66260       -8.22920
H          4.08320        2.71220       -8.30240
H          6.66370        4.73920       -5.38910
H          8.13300        4.52280       -2.92490
H          7.11800        6.26010       -1.50730
H          2.64780        6.75800       -1.76220
H          2.32160        5.89920       -0.23480
H          1.22400        8.15490       -0.27350
H          2.81510        8.90970       -0.46780
H          2.42650        8.03690        1.01460
H          4.32910        2.56370       -3.12680
H          8.05980       -2.18360       -5.99030
H          7.72570       -4.04670       -7.56430
H          4.96570       -3.22030      -11.51560
H          5.82640       -4.66740      -12.07050
H          7.00480       -2.61070      -12.85720
H          8.01560       -3.50650      -11.71500
H          7.16430       -2.04960      -11.19110
H          5.11480        0.08040       -8.12110
H          5.78690       -2.12900       -4.60290
H          4.20910       -3.59670       -3.09690
H          2.38020       -3.79150       -4.25980
H          2.01110       -5.62730       -5.97260
H         -0.48350       -8.86890       -3.56800
H         -0.47730      -10.12370       -4.83420
H          1.81260      -10.82880       -4.13750
H          0.69620      -10.93410       -2.76700
H          1.82620       -9.58110       -2.88330
H          1.07140       -2.10790        3.30300
H          1.02960        0.11380        4.56980
H          3.64940        2.75160        2.05370
H          2.32230        3.60000        1.22520
H          4.12110        5.20250        1.95260
H          2.62210        5.53740        2.82250
H          3.92440        4.66060        3.62300
H         -0.68250       -2.74940        2.05210
H         -2.91940       -3.29410        2.73920
H         -5.01610       -2.23070        2.27560
H         -5.16090        0.02120        3.15830
H         -4.42480        1.81480        4.14300
H         -4.97480        3.06860        5.26640
H         -7.27100        2.95530        4.36190
H         -6.13860        3.28780        3.04640
H         -6.81330        1.66620        3.25070
H         -5.91870       -3.81590        6.14750
H         -7.50060       -8.13570        0.89400
H         -7.56070      -10.21050       -0.42640
H         -3.36040      -12.68890       -0.98040
H         -4.25110      -13.30200       -2.38590
H         -3.57010      -10.35300       -1.87560
H         -4.49600      -10.96330       -3.25110
H         -2.79120      -11.39850       -3.06420
H         -3.47560       -9.03940        2.05200
H         -7.72030       -8.55420        3.34210
H         -9.19010       -7.23460        5.04570
