
  xtb     03072223503D
 energy: -319.196995805467 gnorm: 0.001730040270 xtb: 6.4.1 (unknown)
179199  0     0  0            999 V2000
   13.5245   -5.0594    5.8576 C   0  0  0  0  0  0  0  0  0  0  0  0
   12.9701   -4.4166    4.8099 C   0  0  0  0  0  0  0  0  0  0  0  0
   11.6166   -4.0355    5.0425 C   0  0  0  0  0  0  0  0  0  0  0  0
   10.7272   -3.4148    4.1420 C   0  0  0  0  0  0  0  0  0  0  0  0
   11.1409   -2.9583    2.8327 C   0  0  0  0  0  0  0  0  0  0  0  0
   12.3068   -2.3300    2.4931 C   0  0  0  0  0  0  0  0  0  0  0  0
   12.4634   -2.0011    1.1324 C   0  0  0  0  0  0  0  0  0  0  0  0
   11.4218   -2.3670    0.3281 C   0  0  0  0  0  0  0  0  0  0  0  0
   11.3433   -2.0399   -1.3869 S   0  0  0  0  0  0  0  0  0  0  0  0
    9.9232   -3.0982   -1.8586 C   0  0  0  0  0  0  0  0  0  0  0  0
    9.5989   -2.9194   -3.3271 C   0  0  0  0  0  0  0  0  0  0  0  0
   10.0432   -3.1902    1.3160 Se  0  0  0  0  0  2  0  0  0  0  0  0
    9.4187   -3.2711    4.5857 C   0  0  0  0  0  0  0  0  0  0  0  0
    8.9712   -3.6597    5.8694 C   0  0  0  0  0  0  0  0  0  0  0  0
    9.8598   -4.2750    6.7773 C   0  0  0  0  0  0  0  0  0  0  0  0
    9.4340   -4.7709    8.0662 C   0  0  0  0  0  0  0  0  0  0  0  0
   10.1759   -4.8271    9.2154 C   0  0  0  0  0  0  0  0  0  0  0  0
    9.5705   -5.4461   10.3258 C   0  0  0  0  0  0  0  0  0  0  0  0
    8.3183   -5.9388   10.0971 C   0  0  0  0  0  0  0  0  0  0  0  0
    7.2101   -6.7478   11.1748 S   0  0  0  0  0  0  0  0  0  0  0  0
    8.2917   -7.2741   12.5508 C   0  0  0  0  0  0  0  0  0  0  0  0
    9.2429   -8.3807   12.1392 C   0  0  0  0  0  0  0  0  0  0  0  0
    7.7516   -5.6166    8.3443 Se  0  0  0  0  0  2  0  0  0  0  0  0
   11.1711   -4.4374    6.3237 C   0  0  0  0  0  0  0  0  0  0  0  0
   12.4507   -5.2403    7.1982 S   0  0  0  0  0  0  0  0  0  0  0  0
    7.6071   -3.3394    6.0734 C   0  0  0  0  0  0  0  0  0  0  0  0
    7.0002   -2.7829    4.9832 C   0  0  0  0  0  0  0  0  0  0  0  0
    8.1298   -2.5638    3.6548 S   0  0  0  0  0  0  0  0  0  0  0  0
    5.6542   -2.3800    4.7811 C   0  0  0  0  0  0  0  0  0  0  0  0
    5.3165   -1.2889    3.4860 S   0  0  0  0  0  0  0  0  0  0  0  0
    3.6069   -1.3128    3.7731 C   0  0  0  0  0  0  0  0  0  0  0  0
    3.3067   -2.1424    4.8600 C   0  0  0  0  0  0  0  0  0  0  0  0
    4.4738   -2.7644    5.4270 C   0  0  0  0  0  0  0  0  0  0  0  0
    4.3240   -3.6944    6.4720 C   0  0  0  0  0  0  0  0  0  0  0  0
    3.0746   -3.9607    6.9766 C   0  0  0  0  0  0  0  0  0  0  0  0
    2.9226   -4.8977    8.0244 C   0  0  0  0  0  0  0  0  0  0  0  0
    2.8181   -5.6587    8.8748 N   0  0  0  0  0  0  0  0  0  0  0  0
    1.9206   -3.3005    6.4486 C   0  0  0  0  0  0  0  0  0  0  0  0
    0.6479   -3.5792    6.9957 C   0  0  0  0  0  0  0  0  0  0  0  0
   -0.3938   -3.7947    7.4228 N   0  0  0  0  0  0  0  0  0  0  0  0
    2.0395   -2.4163    5.4037 C   0  0  0  0  0  0  0  0  0  0  0  0
    2.7826   -0.6000    2.8677 C   0  0  0  0  0  0  0  0  0  0  0  0
    3.2600    0.1654    1.8342 C   0  0  0  0  0  0  0  0  0  0  0  0
    2.2690    0.6709    0.9723 C   0  0  0  0  0  0  0  0  0  0  0  0
    2.4577    1.4505   -0.1939 C   0  0  0  0  0  0  0  0  0  0  0  0
    3.7692    1.7806   -0.7028 C   0  0  0  0  0  0  0  0  0  0  0  0
    4.1485    2.9373   -1.3305 C   0  0  0  0  0  0  0  0  0  0  0  0
    5.4856    3.0027   -1.7621 C   0  0  0  0  0  0  0  0  0  0  0  0
    6.2302    1.8803   -1.5259 C   0  0  0  0  0  0  0  0  0  0  0  0
    7.9002    1.6996   -2.0022 S   0  0  0  0  0  0  0  0  0  0  0  0
    8.4076    0.2139   -1.0639 C   0  0  0  0  0  0  0  0  0  0  0  0
    8.5944    0.4842    0.4145 C   0  0  0  0  0  0  0  0  0  0  0  0
    5.2035    0.5501   -0.6853 Se  0  0  0  0  0  2  0  0  0  0  0  0
    1.2941    1.8521   -0.8409 C   0  0  0  0  0  0  0  0  0  0  0  0
   -0.0060    1.5194   -0.3869 C   0  0  0  0  0  0  0  0  0  0  0  0
   -0.1931    0.7310    0.7720 C   0  0  0  0  0  0  0  0  0  0  0  0
   -1.5070    0.3611    1.2541 C   0  0  0  0  0  0  0  0  0  0  0  0
   -1.8758   -0.8457    1.7836 C   0  0  0  0  0  0  0  0  0  0  0  0
   -3.2065   -0.9506    2.2352 C   0  0  0  0  0  0  0  0  0  0  0  0
   -3.9466    0.1869    2.0963 C   0  0  0  0  0  0  0  0  0  0  0  0
   -5.6189    0.4681    2.5063 S   0  0  0  0  0  0  0  0  0  0  0  0
   -6.3271   -1.2210    2.3929 C   0  0  0  0  0  0  0  0  0  0  0  0
   -7.8262   -1.1235    2.1951 C   0  0  0  0  0  0  0  0  0  0  0  0
   -2.9600    1.5780    1.3206 Se  0  0  0  0  0  2  0  0  0  0  0  0
    0.9687    0.3134    1.4073 C   0  0  0  0  0  0  0  0  0  0  0  0
    1.0329   -0.6748    2.8446 S   0  0  0  0  0  0  0  0  0  0  0  0
   -1.0010    1.9656   -1.2768 C   0  0  0  0  0  0  0  0  0  0  0  0
   -0.5217    2.6114   -2.3876 C   0  0  0  0  0  0  0  0  0  0  0  0
    1.2263    2.7225   -2.3538 S   0  0  0  0  0  0  0  0  0  0  0  0
   -1.3468    3.0887   -3.4370 C   0  0  0  0  0  0  0  0  0  0  0  0
   -3.0438    3.2231   -3.1208 S   0  0  0  0  0  0  0  0  0  0  0  0
   -3.4283    3.6275   -4.7662 C   0  0  0  0  0  0  0  0  0  0  0  0
   -2.2631    3.6423   -5.5472 C   0  0  0  0  0  0  0  0  0  0  0  0
   -1.0756    3.3799   -4.7786 C   0  0  0  0  0  0  0  0  0  0  0  0
    0.1791    3.3652   -5.4131 C   0  0  0  0  0  0  0  0  0  0  0  0
    0.2596    3.5465   -6.7722 C   0  0  0  0  0  0  0  0  0  0  0  0
    1.5180    3.5298   -7.4159 C   0  0  0  0  0  0  0  0  0  0  0  0
    2.5431    3.5138   -7.9276 N   0  0  0  0  0  0  0  0  0  0  0  0
   -0.9279    3.7126   -7.5506 C   0  0  0  0  0  0  0  0  0  0  0  0
   -0.8289    3.8098   -8.9574 C   0  0  0  0  0  0  0  0  0  0  0  0
   -0.7686    3.8834  -10.0991 N   0  0  0  0  0  0  0  0  0  0  0  0
   -2.1612    3.7559   -6.9453 C   0  0  0  0  0  0  0  0  0  0  0  0
   -4.7989    3.7701   -5.0891 C   0  0  0  0  0  0  0  0  0  0  0  0
   -5.9401    2.9158   -4.0922 S   0  0  0  0  0  0  0  0  0  0  0  0
   -7.2918    3.4100   -5.0419 C   0  0  0  0  0  0  0  0  0  0  0  0
   -6.8886    4.2578   -6.0788 C   0  0  0  0  0  0  0  0  0  0  0  0
   -5.4699    4.4924   -6.0868 C   0  0  0  0  0  0  0  0  0  0  0  0
   -4.9386    5.4569   -6.9618 C   0  0  0  0  0  0  0  0  0  0  0  0
   -5.7617    6.0967   -7.8578 C   0  0  0  0  0  0  0  0  0  0  0  0
   -5.2339    7.0793   -8.7264 C   0  0  0  0  0  0  0  0  0  0  0  0
   -4.7948    7.8772   -9.4217 N   0  0  0  0  0  0  0  0  0  0  0  0
   -7.1620    5.8074   -7.8968 C   0  0  0  0  0  0  0  0  0  0  0  0
   -7.9836    6.4661   -8.8408 C   0  0  0  0  0  0  0  0  0  0  0  0
   -8.6649    6.9785   -9.6062 N   0  0  0  0  0  0  0  0  0  0  0  0
   -7.7147    4.9228   -7.0038 C   0  0  0  0  0  0  0  0  0  0  0  0
   -8.5946    2.9545   -4.7014 C   0  0  0  0  0  0  0  0  0  0  0  0
   -9.6489    2.6872   -5.5259 C   0  0  0  0  0  0  0  0  0  0  0  0
  -10.8005    2.2203   -4.8471 C   0  0  0  0  0  0  0  0  0  0  0  0
  -12.0458    1.8799   -5.4158 C   0  0  0  0  0  0  0  0  0  0  0  0
  -12.3519    2.1527   -6.8008 C   0  0  0  0  0  0  0  0  0  0  0  0
  -13.1753    1.4421   -7.6328 C   0  0  0  0  0  0  0  0  0  0  0  0
  -13.4146    1.9994   -8.9026 C   0  0  0  0  0  0  0  0  0  0  0  0
  -12.8027    3.1986   -9.1309 C   0  0  0  0  0  0  0  0  0  0  0  0
  -12.8651    4.2363  -10.5315 S   0  0  0  0  0  0  0  0  0  0  0  0
  -13.3058    3.0713  -11.8701 C   0  0  0  0  0  0  0  0  0  0  0  0
  -12.1970    2.0754  -12.1446 C   0  0  0  0  0  0  0  0  0  0  0  0
  -11.7662    3.7403   -7.6719 Se  0  0  0  0  0  2  0  0  0  0  0  0
  -12.9750    1.3167   -4.5387 C   0  0  0  0  0  0  0  0  0  0  0  0
  -12.7511    1.1801   -3.1486 C   0  0  0  0  0  0  0  0  0  0  0  0
  -11.5543    1.6486   -2.5647 C   0  0  0  0  0  0  0  0  0  0  0  0
  -11.3855    1.7145   -1.1306 C   0  0  0  0  0  0  0  0  0  0  0  0
  -12.3559    2.0174   -0.2132 C   0  0  0  0  0  0  0  0  0  0  0  0
  -11.9389    2.0963    1.1291 C   0  0  0  0  0  0  0  0  0  0  0  0
  -10.6126    1.8601    1.3378 C   0  0  0  0  0  0  0  0  0  0  0  0
   -9.8411    1.8550    2.9062 S   0  0  0  0  0  0  0  0  0  0  0  0
   -8.2779    2.7093    2.4911 C   0  0  0  0  0  0  0  0  0  0  0  0
   -8.5110    4.1616    2.1354 C   0  0  0  0  0  0  0  0  0  0  0  0
   -9.7243    1.4492   -0.2799 Se  0  0  0  0  0  2  0  0  0  0  0  0
  -10.5848    2.1009   -3.4545 C   0  0  0  0  0  0  0  0  0  0  0  0
   -8.9815    2.6223   -3.0195 S   0  0  0  0  0  0  0  0  0  0  0  0
  -13.8501    0.5441   -2.5003 C   0  0  0  0  0  0  0  0  0  0  0  0
  -14.8659    0.2591   -3.3401 C   0  0  0  0  0  0  0  0  0  0  0  0
  -14.5602    0.7335   -4.9722 S   0  0  0  0  0  0  0  0  0  0  0  0
   14.5194   -5.4510    5.9413 H   0  0  0  0  0  0  0  0  0  0  0  0
   13.4841   -4.2404    3.8833 H   0  0  0  0  0  0  0  0  0  0  0  0
   13.0472   -2.0641    3.2290 H   0  0  0  0  0  0  0  0  0  0  0  0
   13.3354   -1.5000    0.7496 H   0  0  0  0  0  0  0  0  0  0  0  0
   10.2026   -4.1298   -1.6324 H   0  0  0  0  0  0  0  0  0  0  0  0
    9.0798   -2.8032   -1.2251 H   0  0  0  0  0  0  0  0  0  0  0  0
    9.3295   -1.8872   -3.5386 H   0  0  0  0  0  0  0  0  0  0  0  0
    8.7642   -3.5608   -3.6002 H   0  0  0  0  0  0  0  0  0  0  0  0
   10.4570   -3.1835   -3.9405 H   0  0  0  0  0  0  0  0  0  0  0  0
   11.1523   -4.3799    9.2933 H   0  0  0  0  0  0  0  0  0  0  0  0
   10.0700   -5.5108   11.2766 H   0  0  0  0  0  0  0  0  0  0  0  0
    7.5920   -7.6206   13.3110 H   0  0  0  0  0  0  0  0  0  0  0  0
    8.8135   -6.3951   12.9272 H   0  0  0  0  0  0  0  0  0  0  0  0
    9.8408   -8.6902   12.9942 H   0  0  0  0  0  0  0  0  0  0  0  0
    8.6849   -9.2403   11.7748 H   0  0  0  0  0  0  0  0  0  0  0  0
    9.9121   -8.0446   11.3499 H   0  0  0  0  0  0  0  0  0  0  0  0
    7.1162   -3.4459    7.0238 H   0  0  0  0  0  0  0  0  0  0  0  0
    5.1784   -4.2221    6.8672 H   0  0  0  0  0  0  0  0  0  0  0  0
    1.1594   -1.9366    5.0052 H   0  0  0  0  0  0  0  0  0  0  0  0
    4.3125    0.3671    1.7295 H   0  0  0  0  0  0  0  0  0  0  0  0
    3.4850    3.7798   -1.4310 H   0  0  0  0  0  0  0  0  0  0  0  0
    5.9028    3.8749   -2.2344 H   0  0  0  0  0  0  0  0  0  0  0  0
    7.6476   -0.5535   -1.2431 H   0  0  0  0  0  0  0  0  0  0  0  0
    9.3473   -0.0878   -1.5258 H   0  0  0  0  0  0  0  0  0  0  0  0
    8.8991   -0.4327    0.9198 H   0  0  0  0  0  0  0  0  0  0  0  0
    7.6657    0.8301    0.8692 H   0  0  0  0  0  0  0  0  0  0  0  0
    9.3612    1.2392    0.5685 H   0  0  0  0  0  0  0  0  0  0  0  0
   -1.2063   -1.6885    1.8191 H   0  0  0  0  0  0  0  0  0  0  0  0
   -3.5952   -1.8586    2.6624 H   0  0  0  0  0  0  0  0  0  0  0  0
   -6.0846   -1.7478    3.3158 H   0  0  0  0  0  0  0  0  0  0  0  0
   -5.8441   -1.7086    1.5465 H   0  0  0  0  0  0  0  0  0  0  0  0
   -8.0576   -0.5754    1.2810 H   0  0  0  0  0  0  0  0  0  0  0  0
   -8.2525   -2.1211    2.1177 H   0  0  0  0  0  0  0  0  0  0  0  0
   -8.2935   -0.6096    3.0318 H   0  0  0  0  0  0  0  0  0  0  0  0
   -2.0511    1.7633   -1.1505 H   0  0  0  0  0  0  0  0  0  0  0  0
    1.0771    3.2001   -4.8386 H   0  0  0  0  0  0  0  0  0  0  0  0
   -3.0481    3.8378   -7.5537 H   0  0  0  0  0  0  0  0  0  0  0  0
   -3.8969    5.7320   -6.9048 H   0  0  0  0  0  0  0  0  0  0  0  0
   -8.7831    4.7643   -6.9961 H   0  0  0  0  0  0  0  0  0  0  0  0
   -9.5691    2.7224   -6.5986 H   0  0  0  0  0  0  0  0  0  0  0  0
  -13.5949    0.4904   -7.3549 H   0  0  0  0  0  0  0  0  0  0  0  0
  -14.0505    1.5140   -9.6222 H   0  0  0  0  0  0  0  0  0  0  0  0
  -14.2436    2.5859  -11.6034 H   0  0  0  0  0  0  0  0  0  0  0  0
  -13.4755    3.7186  -12.7301 H   0  0  0  0  0  0  0  0  0  0  0  0
  -11.2809    2.5962  -12.4138 H   0  0  0  0  0  0  0  0  0  0  0  0
  -12.4825    1.4225  -12.9672 H   0  0  0  0  0  0  0  0  0  0  0  0
  -12.0007    1.4624  -11.2666 H   0  0  0  0  0  0  0  0  0  0  0  0
  -13.3620    2.2654   -0.5061 H   0  0  0  0  0  0  0  0  0  0  0  0
  -12.6061    2.3563    1.9327 H   0  0  0  0  0  0  0  0  0  0  0  0
   -7.6540    2.6055    3.3769 H   0  0  0  0  0  0  0  0  0  0  0  0
   -7.8189    2.1601    1.6651 H   0  0  0  0  0  0  0  0  0  0  0  0
   -7.5590    4.6460    1.9294 H   0  0  0  0  0  0  0  0  0  0  0  0
   -9.0000    4.6820    2.9555 H   0  0  0  0  0  0  0  0  0  0  0  0
   -9.1396    4.2415    1.2487 H   0  0  0  0  0  0  0  0  0  0  0  0
  -13.8537    0.2813   -1.4586 H   0  0  0  0  0  0  0  0  0  0  0  0
  -15.7963   -0.2222   -3.1105 H   0  0  0  0  0  0  0  0  0  0  0  0
  1  2  2  0  0  0  0
  2  3  1  0  0  0  0
  3  4  2  0  0  0  0
  4  5  1  0  0  0  0
  5  6  2  0  0  0  0
  6  7  1  0  0  0  0
  7  8  2  0  0  0  0
  8  9  1  0  0  0  0
  9 10  1  0  0  0  0
 10 11  1  0  0  0  0
  8 12  1  0  0  0  0
  4 13  1  0  0  0  0
 13 14  2  0  0  0  0
 14 15  1  0  0  0  0
 15 16  1  0  0  0  0
 16 17  2  0  0  0  0
 17 18  1  0  0  0  0
 18 19  2  0  0  0  0
 19 20  1  0  0  0  0
 20 21  1  0  0  0  0
 21 22  1  0  0  0  0
 19 23  1  0  0  0  0
 15 24  2  0  0  0  0
 24 25  1  0  0  0  0
 14 26  1  0  0  0  0
 26 27  2  0  0  0  0
 27 28  1  0  0  0  0
 27 29  1  0  0  0  0
 29 30  1  0  0  0  0
 30 31  1  0  0  0  0
 31 32  2  0  0  0  0
 32 33  1  0  0  0  0
 33 34  1  0  0  0  0
 34 35  2  0  0  0  0
 35 36  1  0  0  0  0
 36 37  3  0  0  0  0
 35 38  1  0  0  0  0
 38 39  1  0  0  0  0
 39 40  3  0  0  0  0
 38 41  2  0  0  0  0
 31 42  1  0  0  0  0
 42 43  2  0  0  0  0
 43 44  1  0  0  0  0
 44 45  2  0  0  0  0
 45 46  1  0  0  0  0
 46 47  2  0  0  0  0
 47 48  1  0  0  0  0
 48 49  2  0  0  0  0
 49 50  1  0  0  0  0
 50 51  1  0  0  0  0
 51 52  1  0  0  0  0
 49 53  1  0  0  0  0
 45 54  1  0  0  0  0
 54 55  2  0  0  0  0
 55 56  1  0  0  0  0
 56 57  1  0  0  0  0
 57 58  2  0  0  0  0
 58 59  1  0  0  0  0
 59 60  2  0  0  0  0
 60 61  1  0  0  0  0
 61 62  1  0  0  0  0
 62 63  1  0  0  0  0
 60 64  1  0  0  0  0
 56 65  2  0  0  0  0
 65 66  1  0  0  0  0
 55 67  1  0  0  0  0
 67 68  2  0  0  0  0
 68 69  1  0  0  0  0
 68 70  1  0  0  0  0
 70 71  1  0  0  0  0
 71 72  1  0  0  0  0
 72 73  2  0  0  0  0
 73 74  1  0  0  0  0
 74 75  1  0  0  0  0
 75 76  2  0  0  0  0
 76 77  1  0  0  0  0
 77 78  3  0  0  0  0
 76 79  1  0  0  0  0
 79 80  1  0  0  0  0
 80 81  3  0  0  0  0
 79 82  2  0  0  0  0
 72 83  1  0  0  0  0
 83 84  1  0  0  0  0
 84 85  1  0  0  0  0
 85 86  2  0  0  0  0
 86 87  1  0  0  0  0
 87 88  1  0  0  0  0
 88 89  2  0  0  0  0
 89 90  1  0  0  0  0
 90 91  3  0  0  0  0
 89 92  1  0  0  0  0
 92 93  1  0  0  0  0
 93 94  3  0  0  0  0
 92 95  2  0  0  0  0
 85 96  1  0  0  0  0
 96 97  2  0  0  0  0
 97 98  1  0  0  0  0
 98 99  2  0  0  0  0
 99100  1  0  0  0  0
100101  2  0  0  0  0
101102  1  0  0  0  0
102103  2  0  0  0  0
103104  1  0  0  0  0
104105  1  0  0  0  0
105106  1  0  0  0  0
103107  1  0  0  0  0
 99108  1  0  0  0  0
108109  2  0  0  0  0
109110  1  0  0  0  0
110111  1  0  0  0  0
111112  2  0  0  0  0
112113  1  0  0  0  0
113114  2  0  0  0  0
114115  1  0  0  0  0
115116  1  0  0  0  0
116117  1  0  0  0  0
114118  1  0  0  0  0
110119  2  0  0  0  0
119120  1  0  0  0  0
109121  1  0  0  0  0
121122  2  0  0  0  0
122123  1  0  0  0  0
 25  1  1  0  0  0  0
 33 29  2  0  0  0  0
 66 42  1  0  0  0  0
 74 70  2  0  0  0  0
 87 83  2  0  0  0  0
120 96  1  0  0  0  0
 24  3  1  0  0  0  0
 41 32  1  0  0  0  0
 65 44  1  0  0  0  0
 82 73  1  0  0  0  0
 95 86  1  0  0  0  0
119 98  1  0  0  0  0
 12  5  1  0  0  0  0
 28 13  1  0  0  0  0
 53 46  1  0  0  0  0
 69 54  1  0  0  0  0
107100  1  0  0  0  0
123108  1  0  0  0  0
 23 16  1  0  0  0  0
 64 57  1  0  0  0  0
118111  1  0  0  0  0
  1124  1  0  0  0  0
  2125  1  0  0  0  0
  6126  1  0  0  0  0
  7127  1  0  0  0  0
 10128  1  0  0  0  0
 10129  1  0  0  0  0
 11130  1  0  0  0  0
 11131  1  0  0  0  0
 11132  1  0  0  0  0
 17133  1  0  0  0  0
 18134  1  0  0  0  0
 21135  1  0  0  0  0
 21136  1  0  0  0  0
 22137  1  0  0  0  0
 22138  1  0  0  0  0
 22139  1  0  0  0  0
 26140  1  0  0  0  0
 34141  1  0  0  0  0
 41142  1  0  0  0  0
 43143  1  0  0  0  0
 47144  1  0  0  0  0
 48145  1  0  0  0  0
 51146  1  0  0  0  0
 51147  1  0  0  0  0
 52148  1  0  0  0  0
 52149  1  0  0  0  0
 52150  1  0  0  0  0
 58151  1  0  0  0  0
 59152  1  0  0  0  0
 62153  1  0  0  0  0
 62154  1  0  0  0  0
 63155  1  0  0  0  0
 63156  1  0  0  0  0
 63157  1  0  0  0  0
 67158  1  0  0  0  0
 75159  1  0  0  0  0
 82160  1  0  0  0  0
 88161  1  0  0  0  0
 95162  1  0  0  0  0
 97163  1  0  0  0  0
101164  1  0  0  0  0
102165  1  0  0  0  0
105166  1  0  0  0  0
105167  1  0  0  0  0
106168  1  0  0  0  0
106169  1  0  0  0  0
106170  1  0  0  0  0
112171  1  0  0  0  0
113172  1  0  0  0  0
116173  1  0  0  0  0
116174  1  0  0  0  0
117175  1  0  0  0  0
117176  1  0  0  0  0
117177  1  0  0  0  0
121178  1  0  0  0  0
122179  1  0  0  0  0
M  END
