284

C          4.43250      -18.51860        4.40820
C          5.21600      -17.86880        3.52510
C          4.53020      -16.83410        2.82160
C          5.03450      -15.96080        1.83550
C          6.43990      -15.91000        1.50550
C          7.50030      -16.05900        2.36040
C          8.78080      -15.97020        1.78620
C          8.79260      -15.75150        0.43620
S         10.24410      -15.61470       -0.52320
C          9.51850      -15.18570       -2.14870
C         10.61100      -14.96490       -3.17350
Se         7.04670      -15.61070       -0.25550
C          4.09430      -15.14820        1.20480
C          2.72810      -15.10680        1.56490
C          2.25100      -15.89070        2.63530
C          0.88640      -15.76800        3.09220
C          0.15780      -14.61280        3.18890
C         -1.17680      -14.75150        3.61070
C         -1.56930      -16.03670        3.85870
S         -3.19070      -16.48180        4.33590
C         -2.94950      -18.25950        4.69590
C         -4.24270      -18.87720        5.18510
Se        -0.15750      -17.25790        3.58660
C          3.17090      -16.76830        3.20240
S          2.80970      -17.91970        4.45990
C          1.98390      -14.24830        0.71960
C          2.73960      -13.61760       -0.22420
S          4.42990      -14.05760       -0.11200
C          2.29060      -12.68160       -1.20310
C          1.01990      -12.21020       -1.36260
C          0.89220      -11.25530       -2.40060
C         -0.25780      -10.53100       -2.76470
C         -1.54290      -10.80100       -2.10970
C         -2.01700      -12.10560       -1.98680
C         -3.19100      -12.38000       -1.31430
C         -3.93390      -11.35890       -0.73170
S         -5.43160      -11.59290        0.16850
C         -5.29990      -13.30920        0.78460
C         -4.15760      -13.48100        1.76650
C         -3.47030      -10.05340       -0.89840
F         -4.17360       -9.03430       -0.36780
C         -2.30180       -9.76580       -1.56850
C         -0.08800       -9.54350       -3.72230
C          1.16060       -9.27120       -4.33720
C          2.30390      -10.00800       -3.98700
C          3.61690       -9.69780       -4.56400
C          4.10080       -8.39200       -4.56140
C          5.32890       -8.08270       -5.11090
C          6.11680       -9.06920       -5.69320
S          7.69020       -8.80250       -6.43960
C          7.74080       -7.00040       -6.73490
C          6.75070       -6.55700       -7.79500
C          5.63440      -10.37880       -5.65840
C          4.41470      -10.70200       -5.10720
F          6.38230      -11.36570       -6.19180
C          2.13540      -10.99410       -3.02820
S          3.40820      -11.97410       -2.34920
C          1.07250       -8.19870       -5.25710
C         -0.16820       -7.63910       -5.33180
S         -1.33130       -8.46930       -4.31490
C         -0.50860       -6.41470       -5.97560
C         -1.71020       -5.77330       -6.00680
C         -1.63510       -4.44130       -6.48500
C         -2.68510       -3.49690       -6.55810
C         -4.06200       -3.88530       -6.40280
C         -4.63380       -5.08180       -6.75750
C         -6.00050       -5.22850       -6.47080
C         -6.58580       -4.14650       -5.86970
S         -8.28170       -4.07470       -5.46090
C         -8.41880       -2.43190       -4.67130
C         -7.91640       -2.42790       -3.24210
Se        -5.35210       -2.74690       -5.62910
C         -2.28330       -2.17340       -6.72530
C         -0.94190       -1.78300       -6.94090
C          0.08130       -2.75030       -7.06270
C          1.44260       -2.38330       -7.39000
C          2.60060       -2.95820       -6.93810
C          3.79970       -2.39830       -7.41730
C          3.65390       -1.34850       -8.27430
S          4.98470       -0.48290       -9.01790
C          4.67990        1.21770       -8.39610
C          3.71600        1.99650       -9.26590
Se         1.83470       -1.00270       -8.61620
C         -0.30240       -4.05960       -6.78070
S          0.78120       -5.41680       -6.61880
C         -0.78560       -0.37920       -6.85540
C         -1.94750        0.29170       -6.60300
S         -3.32470       -0.78600       -6.55900
C         -2.06110        1.64480       -6.16700
C         -1.04150        2.54390       -6.03910
C         -1.37290        3.66610       -5.24290
C         -0.51110        4.68420       -4.79810
C          0.89750        4.72010       -5.20990
C          1.45310        5.87220       -5.75590
C          2.76440        5.89730       -6.19200
C          3.57330        4.77230       -6.08120
S          5.23990        4.64430       -6.64290
C          5.76010        6.37450       -6.89830
C          5.90230        7.13340       -5.59270
C          3.00960        3.63260       -5.50540
F          3.76660        2.52270       -5.37040
C          1.70410        3.59140       -5.07440
C         -1.04220        5.59540       -3.90090
C         -2.39290        5.55640       -3.47750
C         -3.27740        4.58760       -3.98170
C         -4.68860        4.59590       -3.58010
C         -5.42450        5.77530       -3.66430
C         -6.75080        5.82430       -3.28210
C         -7.39120        4.69080       -2.79550
S         -9.06750        4.60850       -2.25850
C         -9.79660        6.19930       -2.78800
C         -9.59540        7.31230       -1.77550
C         -6.64270        3.51410       -2.71950
C         -5.32220        3.45040       -3.10320
F         -7.23330        2.39590       -2.25290
C         -2.72710        3.63210       -4.82060
S         -3.54230        2.21590       -5.42870
C         -2.63420        6.45160       -2.40860
C         -1.52900        7.14020       -2.00570
S         -0.13160        6.79310       -3.00940
C         -1.42530        7.91800       -0.81610
C         -0.34170        8.54760       -0.28050
C         -0.56630        9.05670        1.02680
C          0.33960        9.69170        1.89540
C          1.69410       10.03580        1.44780
C          2.81760        9.71240        2.20690
C          4.08250       10.01920        1.75410
C          4.28240       10.67080        0.53830
S          5.95020       11.04410        0.08450
C          6.00110       10.74570       -1.72200
C          5.59920        9.32820       -2.07710
C          3.15020       11.02100       -0.19100
F          3.25600       11.69660       -1.35820
C          1.87910       10.69960        0.23840
C         -0.10760        9.95330        3.18440
C         -1.41910        9.64370        3.62790
C         -2.32850        9.03940        2.75290
C         -3.68970        8.63650        3.14860
C         -4.68270        9.57090        3.42090
C         -5.97550        9.15530        3.68120
C         -6.29850        7.80630        3.69820
S         -7.98240        7.28770        3.98690
C         -8.53890        7.08000        2.25030
C         -7.80990        5.97960        1.50620
C         -5.28440        6.88010        3.48870
C         -3.99620        7.28120        3.19410
F         -5.54140        5.56360        3.55690
C         -1.87430        8.75730        1.47910
S         -2.81570        7.95110        0.25710
C         -1.61540        9.95430        4.99450
C         -0.51120       10.48790        5.59360
S          0.82470       10.66780        4.47480
C         -0.35490       10.82460        6.97240
C         -1.25180       10.60580        7.97720
C         -0.78190       10.99290        9.25620
C         -1.44770       10.88390       10.49510
C         -2.81640       10.42240       10.57410
C         -3.83580       10.71270        9.70890
C         -5.06520       10.06530        9.94840
C         -5.06320        9.22330       11.02210
S         -6.33140        8.19290       11.64290
C         -7.82070        8.79320       10.76950
C         -8.27170       10.15120       11.27070
Se        -3.40640        9.20660       11.90320
C         -0.69690       11.21360       11.62080
C          0.63660       11.67880       11.56620
C          1.27420       11.86210       10.32300
C          2.62120       12.38590       10.23330
C          3.16380       13.39480       10.97850
C          4.52310       13.68870       10.74070
C          5.11480       12.90340        9.79530
S          6.76230       12.91290        9.21530
C          7.55170       14.14280       10.32270
C          9.03800       14.19500       10.02750
Se         3.91710       11.66350        9.05290
C          0.54270       11.48750        9.19980
S          1.13080       11.54120        7.56120
C          1.17700       11.86550       12.87300
C          0.29250       11.59450       13.85340
S         -1.25820       11.09940       13.26680
H          4.69690      -19.33390        5.05250
H          6.24120      -18.13200        3.34100
H          7.36530      -16.17730        3.42240
H          9.68660      -16.05620        2.36110
H          8.91920      -14.28210       -2.00460
H          8.86290      -16.01350       -2.43610
H         11.20740      -15.86610       -3.29570
H         11.26700      -14.15580       -2.86090
H         10.16740      -14.70430       -4.13170
H          0.59650      -13.64630        3.00500
H         -1.84020      -13.91390        3.73750
H         -2.16180      -18.32910        5.45090
H         -2.60650      -18.73080        3.76960
H         -5.02030      -18.78080        4.43090
H         -4.57980      -18.38310        6.09330
H         -4.08930      -19.93290        5.39710
H          0.91830      -14.13450        0.78830
H          0.20150      -12.50660       -0.73350
H         -1.46700      -12.91580       -2.44180
H         -3.52980      -13.40170       -1.24790
H         -5.22350      -13.98660       -0.06490
H         -6.25970      -13.47350        1.27370
H         -4.26730      -12.78130        2.59190
H         -4.15830      -14.49260        2.16870
H         -3.19880      -13.29920        1.28430
H         -1.97720       -8.73960       -1.63430
H          3.51870       -7.60920       -4.09890
H          5.67230       -7.06160       -5.07380
H          8.76500       -6.82980       -7.06670
H          7.59560       -6.48550       -5.78600
H          6.85190       -5.48790       -7.97200
H          5.72720       -6.76250       -7.48840
H          6.94030       -7.08220       -8.72810
H          4.08500      -11.72870       -5.12700
H          1.90290       -7.83790       -5.83690
H         -2.60680       -6.21730       -5.61320
H         -4.08110       -5.84800       -7.27480
H         -6.55440       -6.11990       -6.70980
H         -7.86380       -1.72700       -5.29840
H         -9.48070       -2.19240       -4.71700
H         -8.48310       -3.13130       -2.63680
H         -8.02330       -1.43110       -2.81960
H         -6.86270       -2.70670       -3.20240
H          2.60710       -3.74460       -6.20400
H          4.77000       -2.74820       -7.10950
H          5.66260        1.68670       -8.38550
H          4.32190        1.12020       -7.37280
H          4.09950        2.08150      -10.27990
H          2.74180        1.50360       -9.30530
H          3.57960        2.99510       -8.85500
H          0.17040        0.11410       -6.87050
H         -0.07120        2.39210       -6.47290
H          0.84370        6.75650       -5.86460
H          3.14640        6.80260       -6.63470
H          6.72420        6.27720       -7.39750
H          5.06180        6.85160       -7.58490
H          6.62630        6.63970       -4.94850
H          4.95250        7.18500       -5.06390
H          6.24710        8.14630       -5.79310
H          1.33070        2.69070       -4.61280
H         -4.95450        6.66760       -4.05030
H         -7.28010        6.75900       -3.36840
H        -10.85730        5.97420       -2.89960
H         -9.38890        6.44610       -3.76710
H        -10.04430        8.23220       -2.14610
H         -8.53910        7.49210       -1.58740
H        -10.07070        7.05240       -0.83250
H         -4.79470        2.51520       -3.00600
H         -3.57960        6.52530       -1.90080
H          0.60400        8.59960       -0.79010
H          2.70130        9.18840        3.14230
H          4.94930        9.75350        2.33870
H          7.04510       10.93210       -1.97370
H          5.37900       11.48420       -2.22270
H          6.21730        8.61060       -1.54190
H          4.55730        9.14360       -1.82190
H          5.72420        9.16850       -3.14620
H          1.03640       11.00540       -0.36260
H         -4.44430       10.62370        3.40080
H         -6.75620        9.87710        3.86710
H         -9.59790        6.84620        2.35680
H         -8.43090        8.04620        1.75520
H         -8.31220        5.77260        0.56360
H         -7.79720        5.06560        2.09500
H         -6.78270        6.26800        1.28950
H         -3.23920        6.53440        3.01070
H         -2.54120        9.76440        5.50580
H         -2.20290       10.13350        7.81880
H         -3.72470       11.43030        8.91280
H         -5.92090       10.22870        9.31650
H         -8.57010        8.03010       10.97830
H         -7.60710        8.79180        9.70160
H         -9.16670       10.46280       10.73580
H         -8.49870       10.10370       12.33310
H         -7.49610       10.89870       11.11870
H          2.57810       13.97100       11.67550
H          5.03240       14.47610       11.26820
H          7.36400       13.82580       11.34850
H          7.07880       15.10710       10.13580
H          9.21040       14.48090        8.99270
H          9.51790       14.92400       10.67690
H          9.49330       13.22210       10.19660
H          2.19440       12.15750       13.05610
H          0.44490       11.64910       14.91350
