
  xtb     03052205343D
 energy: -474.094372257351 gnorm: 0.000843115442 xtb: 6.4.1 (unknown)
278307  0     0  0            999 V2000
   -1.3338   -5.2832    9.7776 C   0  0  0  0  0  0  0  0  0  0  0  0
   -0.2475   -5.1582    8.9893 C   0  0  0  0  0  0  0  0  0  0  0  0
   -0.4264   -5.7354    7.6978 C   0  0  0  0  0  0  0  0  0  0  0  0
    0.4787   -5.7312    6.6209 C   0  0  0  0  0  0  0  0  0  0  0  0
    1.7513   -5.0379    6.6438 C   0  0  0  0  0  0  0  0  0  0  0  0
    2.9391   -5.4955    6.1492 C   0  0  0  0  0  0  0  0  0  0  0  0
    4.0124   -4.5829    6.1715 C   0  0  0  0  0  0  0  0  0  0  0  0
    3.7131   -3.3478    6.6678 C   0  0  0  0  0  0  0  0  0  0  0  0
    4.8980   -2.0786    6.8810 S   0  0  0  0  0  0  0  0  0  0  0  0
    3.8401   -0.5887    6.9102 C   0  0  0  0  0  0  0  0  0  0  0  0
    3.2673   -0.2663    5.5455 C   0  0  0  0  0  0  0  0  0  0  0  0
    1.9149   -3.2528    7.2325 Se  0  0  0  0  0  2  0  0  0  0  0  0
    0.0680   -6.3998    5.4733 C   0  0  0  0  0  0  0  0  0  0  0  0
   -1.1919   -7.0290    5.3499 C   0  0  0  0  0  0  0  0  0  0  0  0
   -2.1408   -6.9458    6.3892 C   0  0  0  0  0  0  0  0  0  0  0  0
   -3.5130   -7.3538    6.1930 C   0  0  0  0  0  0  0  0  0  0  0  0
   -4.4035   -7.8456    7.1061 C   0  0  0  0  0  0  0  0  0  0  0  0
   -5.7272   -8.0174    6.6556 C   0  0  0  0  0  0  0  0  0  0  0  0
   -5.9552   -7.6416    5.3628 C   0  0  0  0  0  0  0  0  0  0  0  0
   -7.4835   -7.8310    4.5342 S   0  0  0  0  0  0  0  0  0  0  0  0
   -7.2379   -6.7669    3.0668 C   0  0  0  0  0  0  0  0  0  0  0  0
   -7.2859   -5.2921    3.4073 C   0  0  0  0  0  0  0  0  0  0  0  0
   -4.3778   -7.0374    4.5425 Se  0  0  0  0  0  2  0  0  0  0  0  0
   -1.7033   -6.3290    7.5622 C   0  0  0  0  0  0  0  0  0  0  0  0
   -2.6444   -6.1123    9.0145 S   0  0  0  0  0  0  0  0  0  0  0  0
   -1.3543   -7.6251    4.0753 C   0  0  0  0  0  0  0  0  0  0  0  0
   -0.3196   -7.3839    3.2216 C   0  0  0  0  0  0  0  0  0  0  0  0
    0.9663   -6.4717    3.9803 S   0  0  0  0  0  0  0  0  0  0  0  0
   -0.3063   -7.6291    1.8204 C   0  0  0  0  0  0  0  0  0  0  0  0
    0.5051   -7.0382    0.9008 C   0  0  0  0  0  0  0  0  0  0  0  0
    0.0616   -7.2088   -0.4328 C   0  0  0  0  0  0  0  0  0  0  0  0
    0.5187   -6.5103   -1.5656 C   0  0  0  0  0  0  0  0  0  0  0  0
    1.5681   -5.5153   -1.3802 C   0  0  0  0  0  0  0  0  0  0  0  0
    2.8604   -5.5369   -1.7982 C   0  0  0  0  0  0  0  0  0  0  0  0
    3.6957   -4.5251   -1.2686 C   0  0  0  0  0  0  0  0  0  0  0  0
    3.0849   -3.6577   -0.4124 C   0  0  0  0  0  0  0  0  0  0  0  0
    3.8737   -2.2952    0.3559 S   0  0  0  0  0  0  0  0  0  0  0  0
    2.8388   -2.1017    1.8508 C   0  0  0  0  0  0  0  0  0  0  0  0
    3.0358   -3.2335    2.8375 C   0  0  0  0  0  0  0  0  0  0  0  0
    1.2344   -4.0339   -0.2578 Se  0  0  0  0  0  2  0  0  0  0  0  0
   -0.1752   -6.7226   -2.7436 C   0  0  0  0  0  0  0  0  0  0  0  0
   -1.2893   -7.5971   -2.8374 C   0  0  0  0  0  0  0  0  0  0  0  0
   -1.7781   -8.2562   -1.6930 C   0  0  0  0  0  0  0  0  0  0  0  0
   -3.0554   -8.9495   -1.6792 C   0  0  0  0  0  0  0  0  0  0  0  0
   -4.2316   -8.4980   -2.2162 C   0  0  0  0  0  0  0  0  0  0  0  0
   -5.3676   -9.2912   -1.9597 C   0  0  0  0  0  0  0  0  0  0  0  0
   -5.1301  -10.3997   -1.2061 C   0  0  0  0  0  0  0  0  0  0  0  0
   -6.3409  -11.5386   -0.6355 S   0  0  0  0  0  0  0  0  0  0  0  0
   -7.0336  -10.5436    0.7452 C   0  0  0  0  0  0  0  0  0  0  0  0
   -6.0257  -10.3152    1.8525 C   0  0  0  0  0  0  0  0  0  0  0  0
   -3.3121  -10.5598   -0.7414 Se  0  0  0  0  0  2  0  0  0  0  0  0
   -1.0747   -8.0435   -0.5133 C   0  0  0  0  0  0  0  0  0  0  0  0
   -1.5947   -8.5554    1.0708 S   0  0  0  0  0  0  0  0  0  0  0  0
   -1.9241   -7.5050   -4.0983 C   0  0  0  0  0  0  0  0  0  0  0  0
   -1.4154   -6.5305   -4.9077 C   0  0  0  0  0  0  0  0  0  0  0  0
    0.0344   -5.8081   -4.2176 S   0  0  0  0  0  0  0  0  0  0  0  0
   -2.1634   -5.8261   -5.8995 C   0  0  0  0  0  0  0  0  0  0  0  0
   -1.8864   -4.6035   -6.4396 C   0  0  0  0  0  0  0  0  0  0  0  0
   -3.0482   -3.8488   -6.7554 C   0  0  0  0  0  0  0  0  0  0  0  0
   -3.1244   -2.4715   -7.0209 C   0  0  0  0  0  0  0  0  0  0  0  0
   -1.9521   -1.6227   -7.2851 C   0  0  0  0  0  0  0  0  0  0  0  0
   -0.8823   -1.5470   -6.3989 C   0  0  0  0  0  0  0  0  0  0  0  0
    0.1736   -0.6840   -6.6255 C   0  0  0  0  0  0  0  0  0  0  0  0
    0.2024    0.1307   -7.7518 C   0  0  0  0  0  0  0  0  0  0  0  0
    1.4577    1.2995   -8.1453 S   0  0  0  0  0  0  0  0  0  0  0  0
    2.7847    0.9748   -6.9342 C   0  0  0  0  0  0  0  0  0  0  0  0
    3.5703   -0.2795   -7.2646 C   0  0  0  0  0  0  0  0  0  0  0  0
   -0.8811    0.0454   -8.6300 C   0  0  0  0  0  0  0  0  0  0  0  0
   -0.8936    0.8229   -9.7301 F   0  0  0  0  0  0  0  0  0  0  0  0
   -1.9447   -0.7995   -8.4094 C   0  0  0  0  0  0  0  0  0  0  0  0
   -4.3614   -1.8769   -6.8177 C   0  0  0  0  0  0  0  0  0  0  0  0
   -5.5172   -2.5926   -6.4271 C   0  0  0  0  0  0  0  0  0  0  0  0
   -5.4856   -3.9944   -6.3608 C   0  0  0  0  0  0  0  0  0  0  0  0
   -6.6841   -4.7495   -5.9680 C   0  0  0  0  0  0  0  0  0  0  0  0
   -7.8565   -4.6467   -6.7087 C   0  0  0  0  0  0  0  0  0  0  0  0
   -8.9913   -5.3528   -6.3557 C   0  0  0  0  0  0  0  0  0  0  0  0
   -8.9990   -6.1734   -5.2332 C   0  0  0  0  0  0  0  0  0  0  0  0
  -10.3555   -7.1446   -4.6698 S   0  0  0  0  0  0  0  0  0  0  0  0
  -11.7657   -6.5980   -5.6907 C   0  0  0  0  0  0  0  0  0  0  0  0
  -12.2726   -5.2252   -5.2906 C   0  0  0  0  0  0  0  0  0  0  0  0
   -7.8194   -6.2511   -4.4903 C   0  0  0  0  0  0  0  0  0  0  0  0
   -6.6807   -5.5623   -4.8364 C   0  0  0  0  0  0  0  0  0  0  0  0
   -7.7905   -7.0253   -3.3844 F   0  0  0  0  0  0  0  0  0  0  0  0
   -4.2368   -4.5784   -6.4884 C   0  0  0  0  0  0  0  0  0  0  0  0
   -3.8760   -6.2236   -6.0308 S   0  0  0  0  0  0  0  0  0  0  0  0
   -6.4554   -1.7608   -5.7534 C   0  0  0  0  0  0  0  0  0  0  0  0
   -6.0371   -0.4750   -5.6145 C   0  0  0  0  0  0  0  0  0  0  0  0
   -4.5684   -0.1588   -6.5545 S   0  0  0  0  0  0  0  0  0  0  0  0
   -6.2001    0.3725   -4.4573 C   0  0  0  0  0  0  0  0  0  0  0  0
   -6.1036    1.7133   -4.2819 C   0  0  0  0  0  0  0  0  0  0  0  0
   -5.6242    2.0887   -2.9896 C   0  0  0  0  0  0  0  0  0  0  0  0
   -5.1905    3.3646   -2.5886 C   0  0  0  0  0  0  0  0  0  0  0  0
   -5.5899    4.5546   -3.3467 C   0  0  0  0  0  0  0  0  0  0  0  0
   -6.9318    4.7396   -3.6833 C   0  0  0  0  0  0  0  0  0  0  0  0
   -7.3397    5.8716   -4.3531 C   0  0  0  0  0  0  0  0  0  0  0  0
   -6.4295    6.8563   -4.7369 C   0  0  0  0  0  0  0  0  0  0  0  0
   -7.0754    8.2434   -5.6198 S   0  0  0  0  0  0  0  0  0  0  0  0
   -6.0761    9.6657   -5.0444 C   0  0  0  0  0  0  0  0  0  0  0  0
   -6.1496    9.8434   -3.5413 C   0  0  0  0  0  0  0  0  0  0  0  0
   -5.0884    6.6345   -4.4379 C   0  0  0  0  0  0  0  0  0  0  0  0
   -4.1371    7.5095   -4.8294 F   0  0  0  0  0  0  0  0  0  0  0  0
   -4.6694    5.5191   -3.7413 C   0  0  0  0  0  0  0  0  0  0  0  0
   -4.3333    3.4098   -1.4950 C   0  0  0  0  0  0  0  0  0  0  0  0
   -3.9499    2.2519   -0.7743 C   0  0  0  0  0  0  0  0  0  0  0  0
   -4.4839    0.9971   -1.0963 C   0  0  0  0  0  0  0  0  0  0  0  0
   -3.9940   -0.2361   -0.4574 C   0  0  0  0  0  0  0  0  0  0  0  0
   -2.6332   -0.5454   -0.4971 C   0  0  0  0  0  0  0  0  0  0  0  0
   -2.1616   -1.7147    0.0561 C   0  0  0  0  0  0  0  0  0  0  0  0
   -3.0128   -2.6222    0.6887 C   0  0  0  0  0  0  0  0  0  0  0  0
   -2.2275   -4.0303    1.4220 S   0  0  0  0  0  0  0  0  0  0  0  0
   -3.4740   -5.3659    1.4170 C   0  0  0  0  0  0  0  0  0  0  0  0
   -3.9265   -5.7242    0.0173 C   0  0  0  0  0  0  0  0  0  0  0  0
   -4.3647   -2.2952    0.7260 C   0  0  0  0  0  0  0  0  0  0  0  0
   -4.8568   -1.1391    0.1476 C   0  0  0  0  0  0  0  0  0  0  0  0
   -5.2637   -3.1013    1.3368 F   0  0  0  0  0  0  0  0  0  0  0  0
   -5.3237    0.9555   -2.1954 C   0  0  0  0  0  0  0  0  0  0  0  0
   -5.8557   -0.5147   -2.9604 S   0  0  0  0  0  0  0  0  0  0  0  0
   -2.9001    2.5162    0.1390 C   0  0  0  0  0  0  0  0  0  0  0  0
   -2.4631    3.8040    0.1116 C   0  0  0  0  0  0  0  0  0  0  0  0
   -3.4400    4.8091   -0.9404 S   0  0  0  0  0  0  0  0  0  0  0  0
   -1.1528    4.1871    0.5645 C   0  0  0  0  0  0  0  0  0  0  0  0
   -0.0819    3.3958    0.2816 C   0  0  0  0  0  0  0  0  0  0  0  0
    1.1630    3.9488    0.6575 C   0  0  0  0  0  0  0  0  0  0  0  0
    2.4380    3.3962    0.4159 C   0  0  0  0  0  0  0  0  0  0  0  0
    2.5647    2.1361   -0.2896 C   0  0  0  0  0  0  0  0  0  0  0  0
    1.7998    1.0124   -0.1464 C   0  0  0  0  0  0  0  0  0  0  0  0
    1.9634    0.0107   -1.1279 C   0  0  0  0  0  0  0  0  0  0  0  0
    2.8759    0.3118   -2.0950 C   0  0  0  0  0  0  0  0  0  0  0  0
    3.3312   -0.5874   -3.5217 S   0  0  0  0  0  0  0  0  0  0  0  0
    2.2247   -2.0453   -3.4495 C   0  0  0  0  0  0  0  0  0  0  0  0
    2.6333   -3.0453   -4.5110 C   0  0  0  0  0  0  0  0  0  0  0  0
    3.7027    1.9711   -1.7992 Se  0  0  0  0  0  2  0  0  0  0  0  0
    3.5159    4.1934    0.7749 C   0  0  0  0  0  0  0  0  0  0  0  0
    3.3701    5.4653    1.3800 C   0  0  0  0  0  0  0  0  0  0  0  0
    2.0931    5.9975    1.6619 C   0  0  0  0  0  0  0  0  0  0  0  0
    1.9232    7.2659    2.3363 C   0  0  0  0  0  0  0  0  0  0  0  0
    0.9566    8.2092    2.1226 C   0  0  0  0  0  0  0  0  0  0  0  0
    0.9774    9.3272    2.9795 C   0  0  0  0  0  0  0  0  0  0  0  0
    1.9549    9.3092    3.9320 C   0  0  0  0  0  0  0  0  0  0  0  0
    2.2632   10.6264    5.0408 S   0  0  0  0  0  0  0  0  0  0  0  0
    3.2235    9.7844    6.3485 C   0  0  0  0  0  0  0  0  0  0  0  0
    2.3643    8.8553    7.1809 C   0  0  0  0  0  0  0  0  0  0  0  0
    3.0287    7.7706    3.7827 Se  0  0  0  0  0  2  0  0  0  0  0  0
    1.0091    5.2227    1.2513 C   0  0  0  0  0  0  0  0  0  0  0  0
   -0.6801    5.6733    1.3446 S   0  0  0  0  0  0  0  0  0  0  0  0
    4.6253    6.0920    1.5617 C   0  0  0  0  0  0  0  0  0  0  0  0
    5.6886    5.3393    1.1594 C   0  0  0  0  0  0  0  0  0  0  0  0
    5.1930    3.7842    0.5239 S   0  0  0  0  0  0  0  0  0  0  0  0
    7.0537    5.7390    1.2183 C   0  0  0  0  0  0  0  0  0  0  0  0
    8.1825    5.0491    0.8973 C   0  0  0  0  0  0  0  0  0  0  0  0
    9.3784    5.7851    1.1078 C   0  0  0  0  0  0  0  0  0  0  0  0
   10.7096    5.3734    0.8847 C   0  0  0  0  0  0  0  0  0  0  0  0
   11.0085    4.1275    0.2219 C   0  0  0  0  0  0  0  0  0  0  0  0
   10.3075    3.5459   -0.8016 C   0  0  0  0  0  0  0  0  0  0  0  0
   10.7839    2.3029   -1.2547 C   0  0  0  0  0  0  0  0  0  0  0  0
   11.8920    1.8363   -0.6042 C   0  0  0  0  0  0  0  0  0  0  0  0
   12.7046    0.3507   -1.0388 S   0  0  0  0  0  0  0  0  0  0  0  0
   13.8910    0.1519    0.3358 C   0  0  0  0  0  0  0  0  0  0  0  0
   13.2214   -0.3208    1.6101 C   0  0  0  0  0  0  0  0  0  0  0  0
   12.4788    3.0529    0.7104 Se  0  0  0  0  0  2  0  0  0  0  0  0
   11.6988    6.2433    1.3440 C   0  0  0  0  0  0  0  0  0  0  0  0
   11.4356    7.5084    1.9149 C   0  0  0  0  0  0  0  0  0  0  0  0
   10.1086    7.9773    2.0135 C   0  0  0  0  0  0  0  0  0  0  0  0
    9.7964    9.3159    2.4576 C   0  0  0  0  0  0  0  0  0  0  0  0
   10.5276   10.4545    2.2421 C   0  0  0  0  0  0  0  0  0  0  0  0
   10.0002   11.6476    2.7688 C   0  0  0  0  0  0  0  0  0  0  0  0
    8.8152   11.5093    3.4352 C   0  0  0  0  0  0  0  0  0  0  0  0
    7.9560   12.8199    4.2035 S   0  0  0  0  0  0  0  0  0  0  0  0
    6.3328   12.0182    4.4886 C   0  0  0  0  0  0  0  0  0  0  0  0
    5.3437   13.0200    5.0459 C   0  0  0  0  0  0  0  0  0  0  0  0
    8.2352    9.7160    3.4417 Se  0  0  0  0  0  2  0  0  0  0  0  0
    9.1202    7.0680    1.6442 C   0  0  0  0  0  0  0  0  0  0  0  0
    7.4117    7.3585    1.7898 S   0  0  0  0  0  0  0  0  0  0  0  0
   12.6342    8.1409    2.3595 C   0  0  0  0  0  0  0  0  0  0  0  0
   13.7413    7.4167    2.1023 C   0  0  0  0  0  0  0  0  0  0  0  0
   13.4125    5.9223    1.2973 S   0  0  0  0  0  0  0  0  0  0  0  0
   -1.4597   -4.9469   10.7881 H   0  0  0  0  0  0  0  0  0  0  0  0
    0.6673   -4.6911    9.3123 H   0  0  0  0  0  0  0  0  0  0  0  0
    3.0570   -6.5017    5.7843 H   0  0  0  0  0  0  0  0  0  0  0  0
    4.9972   -4.8321    5.8163 H   0  0  0  0  0  0  0  0  0  0  0  0
    4.4950    0.2064    7.2646 H   0  0  0  0  0  0  0  0  0  0  0  0
    3.0533   -0.7635    7.6506 H   0  0  0  0  0  0  0  0  0  0  0  0
    4.0677   -0.1452    4.8190 H   0  0  0  0  0  0  0  0  0  0  0  0
    2.6935    0.6570    5.5932 H   0  0  0  0  0  0  0  0  0  0  0  0
    2.6079   -1.0655    5.2090 H   0  0  0  0  0  0  0  0  0  0  0  0
   -4.1099   -8.1175    8.1057 H   0  0  0  0  0  0  0  0  0  0  0  0
   -6.5088   -8.4084    7.2836 H   0  0  0  0  0  0  0  0  0  0  0  0
   -8.0427   -7.0447    2.3870 H   0  0  0  0  0  0  0  0  0  0  0  0
   -6.2777   -7.0500    2.6216 H   0  0  0  0  0  0  0  0  0  0  0  0
   -6.5014   -5.0347    4.1194 H   0  0  0  0  0  0  0  0  0  0  0  0
   -8.2472   -5.0335    3.8448 H   0  0  0  0  0  0  0  0  0  0  0  0
   -7.1367   -4.7001    2.5071 H   0  0  0  0  0  0  0  0  0  0  0  0
   -2.1945   -8.2340    3.7841 H   0  0  0  0  0  0  0  0  0  0  0  0
    1.3667   -6.4603    1.1860 H   0  0  0  0  0  0  0  0  0  0  0  0
    3.2386   -6.3138   -2.4417 H   0  0  0  0  0  0  0  0  0  0  0  0
    4.7471   -4.4635   -1.4895 H   0  0  0  0  0  0  0  0  0  0  0  0
    3.1382   -1.1418    2.2704 H   0  0  0  0  0  0  0  0  0  0  0  0
    1.7984   -2.0375    1.5149 H   0  0  0  0  0  0  0  0  0  0  0  0
    4.0671   -3.2716    3.1797 H   0  0  0  0  0  0  0  0  0  0  0  0
    2.3848   -3.0963    3.6992 H   0  0  0  0  0  0  0  0  0  0  0  0
    2.7856   -4.1911    2.3815 H   0  0  0  0  0  0  0  0  0  0  0  0
   -4.3019   -7.5664   -2.7518 H   0  0  0  0  0  0  0  0  0  0  0  0
   -6.3503   -9.0297   -2.3140 H   0  0  0  0  0  0  0  0  0  0  0  0
   -7.8798  -11.1320    1.0966 H   0  0  0  0  0  0  0  0  0  0  0  0
   -7.3937   -9.6068    0.3205 H   0  0  0  0  0  0  0  0  0  0  0  0
   -5.1985   -9.6951    1.5048 H   0  0  0  0  0  0  0  0  0  0  0  0
   -5.6221  -11.2642    2.1989 H   0  0  0  0  0  0  0  0  0  0  0  0
   -6.5057   -9.8161    2.6923 H   0  0  0  0  0  0  0  0  0  0  0  0
   -2.7881   -8.0838   -4.3693 H   0  0  0  0  0  0  0  0  0  0  0  0
   -0.8886   -4.2067   -6.4905 H   0  0  0  0  0  0  0  0  0  0  0  0
   -0.8910   -2.1421   -5.4977 H   0  0  0  0  0  0  0  0  0  0  0  0
    0.9727   -0.6371   -5.9043 H   0  0  0  0  0  0  0  0  0  0  0  0
    3.4193    1.8577   -7.0047 H   0  0  0  0  0  0  0  0  0  0  0  0
    2.3524    0.9432   -5.9355 H   0  0  0  0  0  0  0  0  0  0  0  0
    4.3012   -0.4696   -6.4813 H   0  0  0  0  0  0  0  0  0  0  0  0
    4.0898   -0.1615   -8.2123 H   0  0  0  0  0  0  0  0  0  0  0  0
    2.9114   -1.1417   -7.3449 H   0  0  0  0  0  0  0  0  0  0  0  0
   -2.7582   -0.8190   -9.1177 H   0  0  0  0  0  0  0  0  0  0  0  0
   -7.8761   -4.0158   -7.5848 H   0  0  0  0  0  0  0  0  0  0  0  0
   -9.8708   -5.2607   -6.9716 H   0  0  0  0  0  0  0  0  0  0  0  0
  -11.4759   -6.6494   -6.7394 H   0  0  0  0  0  0  0  0  0  0  0  0
  -12.5237   -7.3587   -5.5038 H   0  0  0  0  0  0  0  0  0  0  0  0
  -11.5022   -4.4681   -5.4199 H   0  0  0  0  0  0  0  0  0  0  0  0
  -12.5765   -5.2282   -4.2465 H   0  0  0  0  0  0  0  0  0  0  0  0
  -13.1315   -4.9556   -5.9021 H   0  0  0  0  0  0  0  0  0  0  0  0
   -5.8084   -5.6427   -4.2084 H   0  0  0  0  0  0  0  0  0  0  0  0
   -7.3254   -2.1525   -5.2561 H   0  0  0  0  0  0  0  0  0  0  0  0
   -6.2623    2.4237   -5.0737 H   0  0  0  0  0  0  0  0  0  0  0  0
   -7.6605    4.0003   -3.3867 H   0  0  0  0  0  0  0  0  0  0  0  0
   -8.3812    6.0202   -4.5922 H   0  0  0  0  0  0  0  0  0  0  0  0
   -5.0528    9.5456   -5.3926 H   0  0  0  0  0  0  0  0  0  0  0  0
   -6.5310   10.5101   -5.5626 H   0  0  0  0  0  0  0  0  0  0  0  0
   -7.1846    9.9287   -3.2163 H   0  0  0  0  0  0  0  0  0  0  0  0
   -5.6933    9.0003   -3.0261 H   0  0  0  0  0  0  0  0  0  0  0  0
   -5.6170   10.7480   -3.2548 H   0  0  0  0  0  0  0  0  0  0  0  0
   -3.6148    5.4013   -3.5500 H   0  0  0  0  0  0  0  0  0  0  0  0
   -1.9495    0.1255   -0.9954 H   0  0  0  0  0  0  0  0  0  0  0  0
   -1.1090   -1.9594    0.0108 H   0  0  0  0  0  0  0  0  0  0  0  0
   -2.9425   -6.1979    1.8837 H   0  0  0  0  0  0  0  0  0  0  0  0
   -4.3042   -5.0789    2.0610 H   0  0  0  0  0  0  0  0  0  0  0  0
   -3.0671   -5.9213   -0.6213 H   0  0  0  0  0  0  0  0  0  0  0  0
   -4.5455   -6.6188    0.0486 H   0  0  0  0  0  0  0  0  0  0  0  0
   -4.5080   -4.9179   -0.4246 H   0  0  0  0  0  0  0  0  0  0  0  0
   -5.9169   -0.9443    0.2007 H   0  0  0  0  0  0  0  0  0  0  0  0
   -2.4556    1.7632    0.7637 H   0  0  0  0  0  0  0  0  0  0  0  0
   -0.1797    2.4720   -0.2564 H   0  0  0  0  0  0  0  0  0  0  0  0
    1.1265    0.8788    0.6850 H   0  0  0  0  0  0  0  0  0  0  0  0
    1.3939   -0.9043   -1.1055 H   0  0  0  0  0  0  0  0  0  0  0  0
    1.2009   -1.6975   -3.5923 H   0  0  0  0  0  0  0  0  0  0  0  0
    2.3352   -2.4784   -2.4575 H   0  0  0  0  0  0  0  0  0  0  0  0
    2.0043   -3.9295   -4.4387 H   0  0  0  0  0  0  0  0  0  0  0  0
    2.5304   -2.6234   -5.5074 H   0  0  0  0  0  0  0  0  0  0  0  0
    3.6691   -3.3432   -4.3671 H   0  0  0  0  0  0  0  0  0  0  0  0
    0.2388    8.1266    1.3245 H   0  0  0  0  0  0  0  0  0  0  0  0
    0.2743   10.1377    2.8959 H   0  0  0  0  0  0  0  0  0  0  0  0
    4.0416    9.2501    5.8545 H   0  0  0  0  0  0  0  0  0  0  0  0
    3.6362   10.5911    6.9537 H   0  0  0  0  0  0  0  0  0  0  0  0
    1.5491    9.4060    7.6444 H   0  0  0  0  0  0  0  0  0  0  0  0
    2.9671    8.3955    7.9612 H   0  0  0  0  0  0  0  0  0  0  0  0
    1.9410    8.0647    6.5616 H   0  0  0  0  0  0  0  0  0  0  0  0
    4.7601    7.0946    1.9310 H   0  0  0  0  0  0  0  0  0  0  0  0
    8.1553    4.0275    0.5633 H   0  0  0  0  0  0  0  0  0  0  0  0
    9.4667    4.0321   -1.2673 H   0  0  0  0  0  0  0  0  0  0  0  0
   10.3165    1.7562   -2.0555 H   0  0  0  0  0  0  0  0  0  0  0  0
   14.3901    1.1165    0.4724 H   0  0  0  0  0  0  0  0  0  0  0  0
   14.6140   -0.5781   -0.0266 H   0  0  0  0  0  0  0  0  0  0  0  0
   12.7157   -1.2691    1.4443 H   0  0  0  0  0  0  0  0  0  0  0  0
   13.9667   -0.4505    2.3919 H   0  0  0  0  0  0  0  0  0  0  0  0
   12.4873    0.4094    1.9516 H   0  0  0  0  0  0  0  0  0  0  0  0
   11.4219   10.4534    1.6419 H   0  0  0  0  0  0  0  0  0  0  0  0
   10.4791   12.6031    2.6422 H   0  0  0  0  0  0  0  0  0  0  0  0
    6.5006   11.1880    5.1822 H   0  0  0  0  0  0  0  0  0  0  0  0
    5.9986   11.6233    3.5256 H   0  0  0  0  0  0  0  0  0  0  0  0
    5.2477   13.8683    4.3725 H   0  0  0  0  0  0  0  0  0  0  0  0
    5.6737   13.3855    6.0155 H   0  0  0  0  0  0  0  0  0  0  0  0
    4.3669   12.5537    5.1548 H   0  0  0  0  0  0  0  0  0  0  0  0
   12.6514    9.0773    2.8857 H   0  0  0  0  0  0  0  0  0  0  0  0
   14.7594    7.6576    2.3375 H   0  0  0  0  0  0  0  0  0  0  0  0
  1  2  2  0  0  0  0
  2  3  1  0  0  0  0
  3  4  2  0  0  0  0
  4  5  1  0  0  0  0
  5  6  2  0  0  0  0
  6  7  1  0  0  0  0
  7  8  2  0  0  0  0
  8  9  1  0  0  0  0
  9 10  1  0  0  0  0
 10 11  1  0  0  0  0
  8 12  1  0  0  0  0
  4 13  1  0  0  0  0
 13 14  2  0  0  0  0
 14 15  1  0  0  0  0
 15 16  1  0  0  0  0
 16 17  2  0  0  0  0
 17 18  1  0  0  0  0
 18 19  2  0  0  0  0
 19 20  1  0  0  0  0
 20 21  1  0  0  0  0
 21 22  1  0  0  0  0
 19 23  1  0  0  0  0
 15 24  2  0  0  0  0
 24 25  1  0  0  0  0
 14 26  1  0  0  0  0
 26 27  2  0  0  0  0
 27 28  1  0  0  0  0
 27 29  1  0  0  0  0
 29 30  2  0  0  0  0
 30 31  1  0  0  0  0
 31 32  2  0  0  0  0
 32 33  1  0  0  0  0
 33 34  2  0  0  0  0
 34 35  1  0  0  0  0
 35 36  2  0  0  0  0
 36 37  1  0  0  0  0
 37 38  1  0  0  0  0
 38 39  1  0  0  0  0
 36 40  1  0  0  0  0
 32 41  1  0  0  0  0
 41 42  2  0  0  0  0
 42 43  1  0  0  0  0
 43 44  1  0  0  0  0
 44 45  2  0  0  0  0
 45 46  1  0  0  0  0
 46 47  2  0  0  0  0
 47 48  1  0  0  0  0
 48 49  1  0  0  0  0
 49 50  1  0  0  0  0
 47 51  1  0  0  0  0
 43 52  2  0  0  0  0
 52 53  1  0  0  0  0
 42 54  1  0  0  0  0
 54 55  2  0  0  0  0
 55 56  1  0  0  0  0
 55 57  1  0  0  0  0
 57 58  2  0  0  0  0
 58 59  1  0  0  0  0
 59 60  2  0  0  0  0
 60 61  1  0  0  0  0
 61 62  2  0  0  0  0
 62 63  1  0  0  0  0
 63 64  2  0  0  0  0
 64 65  1  0  0  0  0
 65 66  1  0  0  0  0
 66 67  1  0  0  0  0
 64 68  1  0  0  0  0
 68 69  1  0  0  0  0
 68 70  2  0  0  0  0
 60 71  1  0  0  0  0
 71 72  2  0  0  0  0
 72 73  1  0  0  0  0
 73 74  1  0  0  0  0
 74 75  2  0  0  0  0
 75 76  1  0  0  0  0
 76 77  2  0  0  0  0
 77 78  1  0  0  0  0
 78 79  1  0  0  0  0
 79 80  1  0  0  0  0
 77 81  1  0  0  0  0
 81 82  2  0  0  0  0
 81 83  1  0  0  0  0
 73 84  2  0  0  0  0
 84 85  1  0  0  0  0
 72 86  1  0  0  0  0
 86 87  2  0  0  0  0
 87 88  1  0  0  0  0
 87 89  1  0  0  0  0
 89 90  2  0  0  0  0
 90 91  1  0  0  0  0
 91 92  2  0  0  0  0
 92 93  1  0  0  0  0
 93 94  2  0  0  0  0
 94 95  1  0  0  0  0
 95 96  2  0  0  0  0
 96 97  1  0  0  0  0
 97 98  1  0  0  0  0
 98 99  1  0  0  0  0
 96100  1  0  0  0  0
100101  1  0  0  0  0
100102  2  0  0  0  0
 92103  1  0  0  0  0
103104  2  0  0  0  0
104105  1  0  0  0  0
105106  1  0  0  0  0
106107  2  0  0  0  0
107108  1  0  0  0  0
108109  2  0  0  0  0
109110  1  0  0  0  0
110111  1  0  0  0  0
111112  1  0  0  0  0
109113  1  0  0  0  0
113114  2  0  0  0  0
113115  1  0  0  0  0
105116  2  0  0  0  0
116117  1  0  0  0  0
104118  1  0  0  0  0
118119  2  0  0  0  0
119120  1  0  0  0  0
119121  1  0  0  0  0
121122  2  0  0  0  0
122123  1  0  0  0  0
123124  2  0  0  0  0
124125  1  0  0  0  0
125126  2  0  0  0  0
126127  1  0  0  0  0
127128  2  0  0  0  0
128129  1  0  0  0  0
129130  1  0  0  0  0
130131  1  0  0  0  0
128132  1  0  0  0  0
124133  1  0  0  0  0
133134  2  0  0  0  0
134135  1  0  0  0  0
135136  1  0  0  0  0
136137  2  0  0  0  0
137138  1  0  0  0  0
138139  2  0  0  0  0
139140  1  0  0  0  0
140141  1  0  0  0  0
141142  1  0  0  0  0
139143  1  0  0  0  0
135144  2  0  0  0  0
144145  1  0  0  0  0
134146  1  0  0  0  0
146147  2  0  0  0  0
147148  1  0  0  0  0
147149  1  0  0  0  0
149150  2  0  0  0  0
150151  1  0  0  0  0
151152  2  0  0  0  0
152153  1  0  0  0  0
153154  2  0  0  0  0
154155  1  0  0  0  0
155156  2  0  0  0  0
156157  1  0  0  0  0
157158  1  0  0  0  0
158159  1  0  0  0  0
156160  1  0  0  0  0
152161  1  0  0  0  0
161162  2  0  0  0  0
162163  1  0  0  0  0
163164  1  0  0  0  0
164165  2  0  0  0  0
165166  1  0  0  0  0
166167  2  0  0  0  0
167168  1  0  0  0  0
168169  1  0  0  0  0
169170  1  0  0  0  0
167171  1  0  0  0  0
163172  2  0  0  0  0
172173  1  0  0  0  0
162174  1  0  0  0  0
174175  2  0  0  0  0
175176  1  0  0  0  0
 25  1  1  0  0  0  0
 53 29  1  0  0  0  0
 85 57  1  0  0  0  0
117 89  1  0  0  0  0
145121  1  0  0  0  0
173149  1  0  0  0  0
 24  3  1  0  0  0  0
 52 31  1  0  0  0  0
 84 59  1  0  0  0  0
116 91  1  0  0  0  0
144123  1  0  0  0  0
172151  1  0  0  0  0
 12  5  1  0  0  0  0
 28 13  1  0  0  0  0
 40 33  1  0  0  0  0
 56 41  1  0  0  0  0
 70 61  1  0  0  0  0
 88 71  1  0  0  0  0
102 93  1  0  0  0  0
120103  1  0  0  0  0
132125  1  0  0  0  0
148133  1  0  0  0  0
160153  1  0  0  0  0
176161  1  0  0  0  0
 23 16  1  0  0  0  0
 51 44  1  0  0  0  0
 82 74  1  0  0  0  0
114106  1  0  0  0  0
143136  1  0  0  0  0
171164  1  0  0  0  0
  1177  1  0  0  0  0
  2178  1  0  0  0  0
  6179  1  0  0  0  0
  7180  1  0  0  0  0
 10181  1  0  0  0  0
 10182  1  0  0  0  0
 11183  1  0  0  0  0
 11184  1  0  0  0  0
 11185  1  0  0  0  0
 17186  1  0  0  0  0
 18187  1  0  0  0  0
 21188  1  0  0  0  0
 21189  1  0  0  0  0
 22190  1  0  0  0  0
 22191  1  0  0  0  0
 22192  1  0  0  0  0
 26193  1  0  0  0  0
 30194  1  0  0  0  0
 34195  1  0  0  0  0
 35196  1  0  0  0  0
 38197  1  0  0  0  0
 38198  1  0  0  0  0
 39199  1  0  0  0  0
 39200  1  0  0  0  0
 39201  1  0  0  0  0
 45202  1  0  0  0  0
 46203  1  0  0  0  0
 49204  1  0  0  0  0
 49205  1  0  0  0  0
 50206  1  0  0  0  0
 50207  1  0  0  0  0
 50208  1  0  0  0  0
 54209  1  0  0  0  0
 58210  1  0  0  0  0
 62211  1  0  0  0  0
 63212  1  0  0  0  0
 66213  1  0  0  0  0
 66214  1  0  0  0  0
 67215  1  0  0  0  0
 67216  1  0  0  0  0
 67217  1  0  0  0  0
 70218  1  0  0  0  0
 75219  1  0  0  0  0
 76220  1  0  0  0  0
 79221  1  0  0  0  0
 79222  1  0  0  0  0
 80223  1  0  0  0  0
 80224  1  0  0  0  0
 80225  1  0  0  0  0
 82226  1  0  0  0  0
 86227  1  0  0  0  0
 90228  1  0  0  0  0
 94229  1  0  0  0  0
 95230  1  0  0  0  0
 98231  1  0  0  0  0
 98232  1  0  0  0  0
 99233  1  0  0  0  0
 99234  1  0  0  0  0
 99235  1  0  0  0  0
102236  1  0  0  0  0
107237  1  0  0  0  0
108238  1  0  0  0  0
111239  1  0  0  0  0
111240  1  0  0  0  0
112241  1  0  0  0  0
112242  1  0  0  0  0
112243  1  0  0  0  0
114244  1  0  0  0  0
118245  1  0  0  0  0
122246  1  0  0  0  0
126247  1  0  0  0  0
127248  1  0  0  0  0
130249  1  0  0  0  0
130250  1  0  0  0  0
131251  1  0  0  0  0
131252  1  0  0  0  0
131253  1  0  0  0  0
137254  1  0  0  0  0
138255  1  0  0  0  0
141256  1  0  0  0  0
141257  1  0  0  0  0
142258  1  0  0  0  0
142259  1  0  0  0  0
142260  1  0  0  0  0
146261  1  0  0  0  0
150262  1  0  0  0  0
154263  1  0  0  0  0
155264  1  0  0  0  0
158265  1  0  0  0  0
158266  1  0  0  0  0
159267  1  0  0  0  0
159268  1  0  0  0  0
159269  1  0  0  0  0
165270  1  0  0  0  0
166271  1  0  0  0  0
169272  1  0  0  0  0
169273  1  0  0  0  0
170274  1  0  0  0  0
170275  1  0  0  0  0
170276  1  0  0  0  0
174277  1  0  0  0  0
175278  1  0  0  0  0
M  END
