
  xtb     03052206353D
 energy: -486.843979174822 gnorm: 0.000427381427 xtb: 6.4.1 (unknown)
284313  0     0  0            999 V2000
    3.1412  -10.3898    4.4104 C   0  0  0  0  0  0  0  0  0  0  0  0
    4.0177   -9.7672    3.5969 C   0  0  0  0  0  0  0  0  0  0  0  0
    3.4219   -9.3039    2.3867 C   0  0  0  0  0  0  0  0  0  0  0  0
    4.0242   -8.5448    1.3632 C   0  0  0  0  0  0  0  0  0  0  0  0
    5.4372   -8.2332    1.3850 C   0  0  0  0  0  0  0  0  0  0  0  0
    6.4608   -9.0746    1.7178 C   0  0  0  0  0  0  0  0  0  0  0  0
    7.7578   -8.5278    1.6497 C   0  0  0  0  0  0  0  0  0  0  0  0
    7.8137   -7.2207    1.2668 C   0  0  0  0  0  0  0  0  0  0  0  0
    9.2890   -6.2869    1.1940 S   0  0  0  0  0  0  0  0  0  0  0  0
    8.8753   -5.1038   -0.1366 C   0  0  0  0  0  0  0  0  0  0  0  0
    8.7413   -5.7883   -1.4810 C   0  0  0  0  0  0  0  0  0  0  0  0
    6.0897   -6.5167    0.9562 Se  0  0  0  0  0  2  0  0  0  0  0  0
    3.1819   -8.1070    0.3481 C   0  0  0  0  0  0  0  0  0  0  0  0
    1.8067   -8.4291    0.2835 C   0  0  0  0  0  0  0  0  0  0  0  0
    1.1948   -9.1700    1.3149 C   0  0  0  0  0  0  0  0  0  0  0  0
   -0.2333   -9.3776    1.3782 C   0  0  0  0  0  0  0  0  0  0  0  0
   -0.9041  -10.4460    1.9112 C   0  0  0  0  0  0  0  0  0  0  0  0
   -2.3025  -10.3216    1.9956 C   0  0  0  0  0  0  0  0  0  0  0  0
   -2.8082   -9.1321    1.5516 C   0  0  0  0  0  0  0  0  0  0  0  0
   -4.5122   -8.7575    1.4857 S   0  0  0  0  0  0  0  0  0  0  0  0
   -4.4791   -6.9352    1.3551 C   0  0  0  0  0  0  0  0  0  0  0  0
   -4.0657   -6.2728    2.6531 C   0  0  0  0  0  0  0  0  0  0  0  0
   -1.4503   -8.0187    0.8901 Se  0  0  0  0  0  2  0  0  0  0  0  0
    2.0403   -9.5996    2.3397 C   0  0  0  0  0  0  0  0  0  0  0  0
    1.5385  -10.4624    3.7698 S   0  0  0  0  0  0  0  0  0  0  0  0
    1.1985   -7.8875   -0.8767 C   0  0  0  0  0  0  0  0  0  0  0  0
    2.0344   -7.1250   -1.6364 C   0  0  0  0  0  0  0  0  0  0  0  0
    3.6630   -7.0917   -0.9883 S   0  0  0  0  0  0  0  0  0  0  0  0
    1.6595   -6.3108   -2.7446 C   0  0  0  0  0  0  0  0  0  0  0  0
    2.3422   -5.2639   -3.2888 C   0  0  0  0  0  0  0  0  0  0  0  0
    1.5717   -4.4966   -4.2012 C   0  0  0  0  0  0  0  0  0  0  0  0
    1.8900   -3.2564   -4.7816 C   0  0  0  0  0  0  0  0  0  0  0  0
    3.1651   -2.5769   -4.5243 C   0  0  0  0  0  0  0  0  0  0  0  0
    3.9197   -2.0494   -5.5708 C   0  0  0  0  0  0  0  0  0  0  0  0
    5.0973   -1.3824   -5.3178 C   0  0  0  0  0  0  0  0  0  0  0  0
    5.5688   -1.1910   -4.0166 C   0  0  0  0  0  0  0  0  0  0  0  0
    7.0306   -0.2039   -3.8853 S   0  0  0  0  0  0  0  0  0  0  0  0
    7.7856   -0.5622   -2.2629 C   0  0  0  0  0  0  0  0  0  0  0  0
    8.2418   -2.0010   -2.1415 C   0  0  0  0  0  0  0  0  0  0  0  0
    4.7980   -1.7156   -2.9836 C   0  0  0  0  0  0  0  0  0  0  0  0
    5.1636   -1.5762   -1.6850 F   0  0  0  0  0  0  0  0  0  0  0  0
    3.6246   -2.4016   -3.2246 C   0  0  0  0  0  0  0  0  0  0  0  0
    0.8892   -2.6346   -5.5127 C   0  0  0  0  0  0  0  0  0  0  0  0
   -0.3960   -3.1999   -5.7061 C   0  0  0  0  0  0  0  0  0  0  0  0
   -0.7107   -4.4470   -5.1431 C   0  0  0  0  0  0  0  0  0  0  0  0
   -2.0635   -5.0177   -5.2054 C   0  0  0  0  0  0  0  0  0  0  0  0
   -2.2683   -6.3309   -5.6149 C   0  0  0  0  0  0  0  0  0  0  0  0
   -3.5340   -6.8861   -5.6367 C   0  0  0  0  0  0  0  0  0  0  0  0
   -4.6432   -6.1440   -5.2492 C   0  0  0  0  0  0  0  0  0  0  0  0
   -6.3056   -6.7265   -5.1876 S   0  0  0  0  0  0  0  0  0  0  0  0
   -6.2620   -8.3243   -6.0664 C   0  0  0  0  0  0  0  0  0  0  0  0
   -6.1000   -8.1544   -7.5651 C   0  0  0  0  0  0  0  0  0  0  0  0
   -4.4216   -4.8294   -4.8335 C   0  0  0  0  0  0  0  0  0  0  0  0
   -3.1668   -4.2666   -4.8020 C   0  0  0  0  0  0  0  0  0  0  0  0
   -5.4738   -4.0807   -4.4393 F   0  0  0  0  0  0  0  0  0  0  0  0
    0.2843   -5.0567   -4.3976 C   0  0  0  0  0  0  0  0  0  0  0  0
    0.0510   -6.4840   -3.4239 S   0  0  0  0  0  0  0  0  0  0  0  0
   -1.2911   -2.2866   -6.3096 C   0  0  0  0  0  0  0  0  0  0  0  0
   -0.7691   -1.0330   -6.4725 C   0  0  0  0  0  0  0  0  0  0  0  0
    0.9404   -0.9879   -6.0904 S   0  0  0  0  0  0  0  0  0  0  0  0
   -1.5558    0.1597   -6.5443 C   0  0  0  0  0  0  0  0  0  0  0  0
   -2.9217    0.1914   -6.5722 C   0  0  0  0  0  0  0  0  0  0  0  0
   -3.4732    1.3786   -6.0357 C   0  0  0  0  0  0  0  0  0  0  0  0
   -4.8082    1.5429   -5.6289 C   0  0  0  0  0  0  0  0  0  0  0  0
   -5.8161    0.5337   -5.9856 C   0  0  0  0  0  0  0  0  0  0  0  0
   -6.4977   -0.1841   -5.0056 C   0  0  0  0  0  0  0  0  0  0  0  0
   -7.3913   -1.1734   -5.3561 C   0  0  0  0  0  0  0  0  0  0  0  0
   -7.6568   -1.4677   -6.6907 C   0  0  0  0  0  0  0  0  0  0  0  0
   -8.8515   -2.7272   -7.0308 S   0  0  0  0  0  0  0  0  0  0  0  0
   -8.0678   -3.6928   -8.3748 C   0  0  0  0  0  0  0  0  0  0  0  0
   -6.6965   -4.1979   -7.9750 C   0  0  0  0  0  0  0  0  0  0  0  0
   -6.9928   -0.7208   -7.6592 C   0  0  0  0  0  0  0  0  0  0  0  0
   -7.2260   -0.9284   -8.9745 F   0  0  0  0  0  0  0  0  0  0  0  0
   -6.0686    0.2478   -7.3231 C   0  0  0  0  0  0  0  0  0  0  0  0
   -5.0573    2.5886   -4.7590 C   0  0  0  0  0  0  0  0  0  0  0  0
   -4.0704    3.5396   -4.3995 C   0  0  0  0  0  0  0  0  0  0  0  0
   -2.7547    3.4314   -4.8902 C   0  0  0  0  0  0  0  0  0  0  0  0
   -1.7486    4.4094   -4.4547 C   0  0  0  0  0  0  0  0  0  0  0  0
   -2.0076    5.7734   -4.5948 C   0  0  0  0  0  0  0  0  0  0  0  0
   -1.1294    6.7132   -4.1013 C   0  0  0  0  0  0  0  0  0  0  0  0
    0.0363    6.3300   -3.4412 C   0  0  0  0  0  0  0  0  0  0  0  0
    1.0845    7.5978   -2.8003 S   0  0  0  0  0  0  0  0  0  0  0  0
    1.6678    6.8815   -1.2096 C   0  0  0  0  0  0  0  0  0  0  0  0
    1.8520    7.9990   -0.2028 C   0  0  0  0  0  0  0  0  0  0  0  0
    0.3068    4.9675   -3.3531 C   0  0  0  0  0  0  0  0  0  0  0  0
   -0.5646    4.0137   -3.8404 C   0  0  0  0  0  0  0  0  0  0  0  0
    1.4448    4.5376   -2.7661 F   0  0  0  0  0  0  0  0  0  0  0  0
   -2.4723    2.3047   -5.6470 C   0  0  0  0  0  0  0  0  0  0  0  0
   -0.8817    1.7069   -6.0598 S   0  0  0  0  0  0  0  0  0  0  0  0
   -4.4966    4.3522   -3.3171 C   0  0  0  0  0  0  0  0  0  0  0  0
   -5.7175    4.0015   -2.8184 C   0  0  0  0  0  0  0  0  0  0  0  0
   -6.5086    2.7847   -3.8049 S   0  0  0  0  0  0  0  0  0  0  0  0
   -6.1371    4.2130   -1.4672 C   0  0  0  0  0  0  0  0  0  0  0  0
   -6.7723    3.2839   -0.6962 C   0  0  0  0  0  0  0  0  0  0  0  0
   -6.5281    3.4351    0.6934 C   0  0  0  0  0  0  0  0  0  0  0  0
   -6.7581    2.4622    1.6846 C   0  0  0  0  0  0  0  0  0  0  0  0
   -7.5945    1.2949    1.3804 C   0  0  0  0  0  0  0  0  0  0  0  0
   -7.1627   -0.0096    1.6126 C   0  0  0  0  0  0  0  0  0  0  0  0
   -7.9576   -1.0826    1.2699 C   0  0  0  0  0  0  0  0  0  0  0  0
   -9.2143   -0.9039    0.6962 C   0  0  0  0  0  0  0  0  0  0  0  0
  -10.1639   -2.3519    0.3322 S   0  0  0  0  0  0  0  0  0  0  0  0
  -10.8614   -2.0041   -1.3255 C   0  0  0  0  0  0  0  0  0  0  0  0
   -9.7771   -1.7711   -2.3583 C   0  0  0  0  0  0  0  0  0  0  0  0
   -9.6471    0.4045    0.5002 C   0  0  0  0  0  0  0  0  0  0  0  0
  -10.8718    0.6589   -0.0095 F   0  0  0  0  0  0  0  0  0  0  0  0
   -8.8528    1.4876    0.8150 C   0  0  0  0  0  0  0  0  0  0  0  0
   -6.0582    2.6232    2.8715 C   0  0  0  0  0  0  0  0  0  0  0  0
   -5.2965    3.7836    3.1585 C   0  0  0  0  0  0  0  0  0  0  0  0
   -5.1738    4.8172    2.2122 C   0  0  0  0  0  0  0  0  0  0  0  0
   -4.3722    6.0083    2.5208 C   0  0  0  0  0  0  0  0  0  0  0  0
   -4.6264    6.7447    3.6775 C   0  0  0  0  0  0  0  0  0  0  0  0
   -3.8792    7.8637    3.9772 C   0  0  0  0  0  0  0  0  0  0  0  0
   -2.8375    8.2814    3.1512 C   0  0  0  0  0  0  0  0  0  0  0  0
   -1.9077    9.6999    3.6570 S   0  0  0  0  0  0  0  0  0  0  0  0
   -1.6612   10.6324    2.1000 C   0  0  0  0  0  0  0  0  0  0  0  0
   -2.9756   10.9715    1.4269 C   0  0  0  0  0  0  0  0  0  0  0  0
   -2.5720    7.5160    2.0203 C   0  0  0  0  0  0  0  0  0  0  0  0
   -3.3291    6.4097    1.6933 C   0  0  0  0  0  0  0  0  0  0  0  0
   -1.5415    7.8256    1.2017 F   0  0  0  0  0  0  0  0  0  0  0  0
   -5.7287    4.5722    0.9670 C   0  0  0  0  0  0  0  0  0  0  0  0
   -5.3856    5.4666   -0.4967 S   0  0  0  0  0  0  0  0  0  0  0  0
   -4.4888    3.6191    4.3112 C   0  0  0  0  0  0  0  0  0  0  0  0
   -4.5660    2.3699    4.8577 C   0  0  0  0  0  0  0  0  0  0  0  0
   -5.8112    1.4006    4.0977 S   0  0  0  0  0  0  0  0  0  0  0  0
   -3.5160    1.7745    5.6297 C   0  0  0  0  0  0  0  0  0  0  0  0
   -2.5405    2.4218    6.3293 C   0  0  0  0  0  0  0  0  0  0  0  0
   -1.3368    1.6812    6.4424 C   0  0  0  0  0  0  0  0  0  0  0  0
   -0.0812    2.1831    6.8644 C   0  0  0  0  0  0  0  0  0  0  0  0
    0.0061    3.3350    7.7155 C   0  0  0  0  0  0  0  0  0  0  0  0
   -0.9259    3.7245    8.6473 C   0  0  0  0  0  0  0  0  0  0  0  0
   -0.6423    4.9021    9.3556 C   0  0  0  0  0  0  0  0  0  0  0  0
    0.5376    5.5094    9.0189 C   0  0  0  0  0  0  0  0  0  0  0  0
    1.1314    6.9488    9.8095 S   0  0  0  0  0  0  0  0  0  0  0  0
    2.5067    7.4362    8.7106 C   0  0  0  0  0  0  0  0  0  0  0  0
    2.0153    8.0526    7.4168 C   0  0  0  0  0  0  0  0  0  0  0  0
    1.4612    4.5338    7.6974 Se  0  0  0  0  0  2  0  0  0  0  0  0
    1.0157    1.5417    6.2929 C   0  0  0  0  0  0  0  0  0  0  0  0
    0.9250    0.3539    5.5290 C   0  0  0  0  0  0  0  0  0  0  0  0
   -0.3073   -0.3353    5.4321 C   0  0  0  0  0  0  0  0  0  0  0  0
   -0.4686   -1.6798    4.9382 C   0  0  0  0  0  0  0  0  0  0  0  0
   -1.4974   -2.5212    5.2837 C   0  0  0  0  0  0  0  0  0  0  0  0
   -1.4895   -3.8031    4.7092 C   0  0  0  0  0  0  0  0  0  0  0  0
   -0.4516   -4.0509    3.8561 C   0  0  0  0  0  0  0  0  0  0  0  0
   -0.2411   -5.5756    3.0226 S   0  0  0  0  0  0  0  0  0  0  0  0
    1.1477   -5.2438    1.8861 C   0  0  0  0  0  0  0  0  0  0  0  0
    2.4944   -5.4475    2.5493 C   0  0  0  0  0  0  0  0  0  0  0  0
    0.6955   -2.5702    3.7469 Se  0  0  0  0  0  2  0  0  0  0  0  0
   -1.4225    0.4223    5.8096 C   0  0  0  0  0  0  0  0  0  0  0  0
   -3.0559    0.1178    5.2661 S   0  0  0  0  0  0  0  0  0  0  0  0
    2.1291    0.1071    4.8199 C   0  0  0  0  0  0  0  0  0  0  0  0
    3.0952    1.0426    5.0245 C   0  0  0  0  0  0  0  0  0  0  0  0
    2.6264    2.2080    6.2470 S   0  0  0  0  0  0  0  0  0  0  0  0
    4.2269    1.3120    4.1824 C   0  0  0  0  0  0  0  0  0  0  0  0
    4.1643    1.3102    2.8218 C   0  0  0  0  0  0  0  0  0  0  0  0
    5.3213    1.8378    2.1950 C   0  0  0  0  0  0  0  0  0  0  0  0
    5.5341    2.0826    0.8210 C   0  0  0  0  0  0  0  0  0  0  0  0
    4.4611    1.9613   -0.1383 C   0  0  0  0  0  0  0  0  0  0  0  0
    3.1304    2.2184    0.0764 C   0  0  0  0  0  0  0  0  0  0  0  0
    2.2742    2.0055   -1.0168 C   0  0  0  0  0  0  0  0  0  0  0  0
    2.8898    1.5805   -2.1591 C   0  0  0  0  0  0  0  0  0  0  0  0
    2.0460    1.1006   -3.6147 S   0  0  0  0  0  0  0  0  0  0  0  0
    3.2456    1.6185   -4.8886 C   0  0  0  0  0  0  0  0  0  0  0  0
    3.2878    3.1236   -5.0415 C   0  0  0  0  0  0  0  0  0  0  0  0
    4.7422    1.4130   -1.9126 Se  0  0  0  0  0  2  0  0  0  0  0  0
    6.8167    2.5057    0.4742 C   0  0  0  0  0  0  0  0  0  0  0  0
    7.8415    2.7550    1.4151 C   0  0  0  0  0  0  0  0  0  0  0  0
    7.5963    2.5926    2.7921 C   0  0  0  0  0  0  0  0  0  0  0  0
    8.6151    2.8664    3.7867 C   0  0  0  0  0  0  0  0  0  0  0  0
    9.9336    2.5097    3.7336 C   0  0  0  0  0  0  0  0  0  0  0  0
   10.7379    2.9433    4.8077 C   0  0  0  0  0  0  0  0  0  0  0  0
   10.0776    3.6658    5.7568 C   0  0  0  0  0  0  0  0  0  0  0  0
   10.7185    4.4040    7.2104 S   0  0  0  0  0  0  0  0  0  0  0  0
   12.0240    3.2164    7.6969 C   0  0  0  0  0  0  0  0  0  0  0  0
   11.4558    1.8540    8.0381 C   0  0  0  0  0  0  0  0  0  0  0  0
    8.2509    3.8462    5.3629 Se  0  0  0  0  0  2  0  0  0  0  0  0
    6.3221    2.1558    3.1414 C   0  0  0  0  0  0  0  0  0  0  0  0
    5.7605    1.9054    4.7747 S   0  0  0  0  0  0  0  0  0  0  0  0
    9.0248    3.2423    0.7832 C   0  0  0  0  0  0  0  0  0  0  0  0
    8.9080    3.3364   -0.5556 C   0  0  0  0  0  0  0  0  0  0  0  0
    7.3514    2.8621   -1.1469 S   0  0  0  0  0  0  0  0  0  0  0  0
    3.3296  -10.8259    5.3719 H   0  0  0  0  0  0  0  0  0  0  0  0
    5.0495   -9.6069    3.8492 H   0  0  0  0  0  0  0  0  0  0  0  0
    6.2936  -10.1131    1.9505 H   0  0  0  0  0  0  0  0  0  0  0  0
    8.6444   -9.0995    1.8631 H   0  0  0  0  0  0  0  0  0  0  0  0
    9.6962   -4.3878   -0.1329 H   0  0  0  0  0  0  0  0  0  0  0  0
    7.9506   -4.5967    0.1560 H   0  0  0  0  0  0  0  0  0  0  0  0
    9.6562   -6.3223   -1.7272 H   0  0  0  0  0  0  0  0  0  0  0  0
    7.9165   -6.5009   -1.4670 H   0  0  0  0  0  0  0  0  0  0  0  0
    8.5458   -5.0501   -2.2554 H   0  0  0  0  0  0  0  0  0  0  0  0
   -0.3990  -11.3434    2.2256 H   0  0  0  0  0  0  0  0  0  0  0  0
   -2.9335  -11.0961    2.3958 H   0  0  0  0  0  0  0  0  0  0  0  0
   -5.4954   -6.6612    1.0733 H   0  0  0  0  0  0  0  0  0  0  0  0
   -3.7991   -6.6820    0.5348 H   0  0  0  0  0  0  0  0  0  0  0  0
   -4.7421   -6.5573    3.4560 H   0  0  0  0  0  0  0  0  0  0  0  0
   -4.0907   -5.1910    2.5379 H   0  0  0  0  0  0  0  0  0  0  0  0
   -3.0520   -6.5625    2.9303 H   0  0  0  0  0  0  0  0  0  0  0  0
    0.1716   -8.0526   -1.1599 H   0  0  0  0  0  0  0  0  0  0  0  0
    3.3531   -5.0279   -3.0086 H   0  0  0  0  0  0  0  0  0  0  0  0
    3.5855   -2.1783   -6.5888 H   0  0  0  0  0  0  0  0  0  0  0  0
    5.6804   -0.9776   -6.1306 H   0  0  0  0  0  0  0  0  0  0  0  0
    8.6345    0.1219   -2.2365 H   0  0  0  0  0  0  0  0  0  0  0  0
    7.0860   -0.2823   -1.4750 H   0  0  0  0  0  0  0  0  0  0  0  0
    8.9134   -2.2563   -2.9589 H   0  0  0  0  0  0  0  0  0  0  0  0
    7.3932   -2.6807   -2.1609 H   0  0  0  0  0  0  0  0  0  0  0  0
    8.7673   -2.1365   -1.1985 H   0  0  0  0  0  0  0  0  0  0  0  0
    3.0536   -2.7521   -2.3789 H   0  0  0  0  0  0  0  0  0  0  0  0
   -1.4259   -6.9279   -5.9296 H   0  0  0  0  0  0  0  0  0  0  0  0
   -3.6439   -7.9106   -5.9519 H   0  0  0  0  0  0  0  0  0  0  0  0
   -7.2278   -8.7708   -5.8299 H   0  0  0  0  0  0  0  0  0  0  0  0
   -5.4793   -8.9407   -5.6265 H   0  0  0  0  0  0  0  0  0  0  0  0
   -5.1700   -7.6424   -7.8035 H   0  0  0  0  0  0  0  0  0  0  0  0
   -6.0947   -9.1291   -8.0491 H   0  0  0  0  0  0  0  0  0  0  0  0
   -6.9253   -7.5715   -7.9671 H   0  0  0  0  0  0  0  0  0  0  0  0
   -3.0527   -3.2587   -4.4342 H   0  0  0  0  0  0  0  0  0  0  0  0
   -2.3139   -2.5300   -6.5272 H   0  0  0  0  0  0  0  0  0  0  0  0
   -3.5288   -0.6502   -6.8504 H   0  0  0  0  0  0  0  0  0  0  0  0
   -6.2959    0.0067   -3.9633 H   0  0  0  0  0  0  0  0  0  0  0  0
   -7.8912   -1.7511   -4.5960 H   0  0  0  0  0  0  0  0  0  0  0  0
   -8.0361   -3.0866   -9.2778 H   0  0  0  0  0  0  0  0  0  0  0  0
   -8.7624   -4.5191   -8.5258 H   0  0  0  0  0  0  0  0  0  0  0  0
   -6.7578   -4.7498   -7.0399 H   0  0  0  0  0  0  0  0  0  0  0  0
   -6.0023   -3.3700   -7.8402 H   0  0  0  0  0  0  0  0  0  0  0  0
   -6.3024   -4.8521   -8.7508 H   0  0  0  0  0  0  0  0  0  0  0  0
   -5.5684    0.7912   -8.1104 H   0  0  0  0  0  0  0  0  0  0  0  0
   -2.9112    6.0928   -5.0920 H   0  0  0  0  0  0  0  0  0  0  0  0
   -1.3389    7.7667   -4.2013 H   0  0  0  0  0  0  0  0  0  0  0  0
    2.6011    6.3508   -1.3950 H   0  0  0  0  0  0  0  0  0  0  0  0
    0.9055    6.1807   -0.8744 H   0  0  0  0  0  0  0  0  0  0  0  0
    0.9031    8.4948   -0.0137 H   0  0  0  0  0  0  0  0  0  0  0  0
    2.5637    8.7346   -0.5706 H   0  0  0  0  0  0  0  0  0  0  0  0
    2.2242    7.5898    0.7341 H   0  0  0  0  0  0  0  0  0  0  0  0
   -0.3112    2.9722   -3.7147 H   0  0  0  0  0  0  0  0  0  0  0  0
   -3.8614    5.0757   -2.8376 H   0  0  0  0  0  0  0  0  0  0  0  0
   -7.2758    2.4318   -1.1168 H   0  0  0  0  0  0  0  0  0  0  0  0
   -6.1840   -0.1877    2.0287 H   0  0  0  0  0  0  0  0  0  0  0  0
   -7.6119   -2.0909    1.4358 H   0  0  0  0  0  0  0  0  0  0  0  0
  -11.4298   -2.9062   -1.5508 H   0  0  0  0  0  0  0  0  0  0  0  0
  -11.5464   -1.1624   -1.2533 H   0  0  0  0  0  0  0  0  0  0  0  0
  -10.2287   -1.6588   -3.3422 H   0  0  0  0  0  0  0  0  0  0  0  0
   -9.2131   -0.8671   -2.1329 H   0  0  0  0  0  0  0  0  0  0  0  0
   -9.0885   -2.6136   -2.3818 H   0  0  0  0  0  0  0  0  0  0  0  0
   -9.2364    2.4817    0.6423 H   0  0  0  0  0  0  0  0  0  0  0  0
   -5.4321    6.4456    4.3306 H   0  0  0  0  0  0  0  0  0  0  0  0
   -4.0887    8.4396    4.8651 H   0  0  0  0  0  0  0  0  0  0  0  0
   -1.1429   11.5330    2.4290 H   0  0  0  0  0  0  0  0  0  0  0  0
   -1.0027   10.0640    1.4470 H   0  0  0  0  0  0  0  0  0  0  0  0
   -3.6258   11.5142    2.1099 H   0  0  0  0  0  0  0  0  0  0  0  0
   -3.4909   10.0690    1.1024 H   0  0  0  0  0  0  0  0  0  0  0  0
   -2.7890   11.5928    0.5533 H   0  0  0  0  0  0  0  0  0  0  0  0
   -3.0669    5.8481    0.8108 H   0  0  0  0  0  0  0  0  0  0  0  0
   -3.7674    4.3514    4.6259 H   0  0  0  0  0  0  0  0  0  0  0  0
   -2.6299    3.4450    6.6462 H   0  0  0  0  0  0  0  0  0  0  0  0
   -1.8079    3.1393    8.8477 H   0  0  0  0  0  0  0  0  0  0  0  0
   -1.2965    5.3024   10.1108 H   0  0  0  0  0  0  0  0  0  0  0  0
    3.0885    8.1488    9.2943 H   0  0  0  0  0  0  0  0  0  0  0  0
    3.1099    6.5403    8.5316 H   0  0  0  0  0  0  0  0  0  0  0  0
    1.4175    7.3368    6.8517 H   0  0  0  0  0  0  0  0  0  0  0  0
    1.4038    8.9286    7.6200 H   0  0  0  0  0  0  0  0  0  0  0  0
    2.8642    8.3494    6.8048 H   0  0  0  0  0  0  0  0  0  0  0  0
   -2.2571   -2.2356    5.9912 H   0  0  0  0  0  0  0  0  0  0  0  0
   -2.2449   -4.5398    4.9210 H   0  0  0  0  0  0  0  0  0  0  0  0
    0.9982   -5.9460    1.0638 H   0  0  0  0  0  0  0  0  0  0  0  0
    1.0268   -4.2237    1.5121 H   0  0  0  0  0  0  0  0  0  0  0  0
    2.5708   -6.4553    2.9526 H   0  0  0  0  0  0  0  0  0  0  0  0
    3.2938   -5.3007    1.8219 H   0  0  0  0  0  0  0  0  0  0  0  0
    2.6350   -4.7351    3.3630 H   0  0  0  0  0  0  0  0  0  0  0  0
    2.2664   -0.6905    4.1073 H   0  0  0  0  0  0  0  0  0  0  0  0
    3.3060    0.9469    2.2883 H   0  0  0  0  0  0  0  0  0  0  0  0
    2.7670    2.6255    1.0050 H   0  0  0  0  0  0  0  0  0  0  0  0
    1.2130    2.1776   -0.9687 H   0  0  0  0  0  0  0  0  0  0  0  0
    4.2187    1.2142   -4.5936 H   0  0  0  0  0  0  0  0  0  0  0  0
    2.9146    1.1275   -5.8028 H   0  0  0  0  0  0  0  0  0  0  0  0
    2.3132    3.5015   -5.3428 H   0  0  0  0  0  0  0  0  0  0  0  0
    4.0211    3.3965   -5.7972 H   0  0  0  0  0  0  0  0  0  0  0  0
    3.5674    3.5936   -4.0997 H   0  0  0  0  0  0  0  0  0  0  0  0
   10.3322    1.9027    2.9376 H   0  0  0  0  0  0  0  0  0  0  0  0
   11.7899    2.7201    4.8586 H   0  0  0  0  0  0  0  0  0  0  0  0
   12.4867    3.6819    8.5666 H   0  0  0  0  0  0  0  0  0  0  0  0
   12.7559    3.1670    6.8918 H   0  0  0  0  0  0  0  0  0  0  0  0
   10.9668    1.4129    7.1717 H   0  0  0  0  0  0  0  0  0  0  0  0
   12.2554    1.1906    8.3616 H   0  0  0  0  0  0  0  0  0  0  0  0
   10.7260    1.9392    8.8399 H   0  0  0  0  0  0  0  0  0  0  0  0
    9.9075    3.5298    1.3236 H   0  0  0  0  0  0  0  0  0  0  0  0
    9.6414    3.6729   -1.2620 H   0  0  0  0  0  0  0  0  0  0  0  0
  1  2  2  0  0  0  0
  2  3  1  0  0  0  0
  3  4  2  0  0  0  0
  4  5  1  0  0  0  0
  5  6  2  0  0  0  0
  6  7  1  0  0  0  0
  7  8  2  0  0  0  0
  8  9  1  0  0  0  0
  9 10  1  0  0  0  0
 10 11  1  0  0  0  0
  8 12  1  0  0  0  0
  4 13  1  0  0  0  0
 13 14  2  0  0  0  0
 14 15  1  0  0  0  0
 15 16  1  0  0  0  0
 16 17  2  0  0  0  0
 17 18  1  0  0  0  0
 18 19  2  0  0  0  0
 19 20  1  0  0  0  0
 20 21  1  0  0  0  0
 21 22  1  0  0  0  0
 19 23  1  0  0  0  0
 15 24  2  0  0  0  0
 24 25  1  0  0  0  0
 14 26  1  0  0  0  0
 26 27  2  0  0  0  0
 27 28  1  0  0  0  0
 27 29  1  0  0  0  0
 29 30  2  0  0  0  0
 30 31  1  0  0  0  0
 31 32  2  0  0  0  0
 32 33  1  0  0  0  0
 33 34  2  0  0  0  0
 34 35  1  0  0  0  0
 35 36  2  0  0  0  0
 36 37  1  0  0  0  0
 37 38  1  0  0  0  0
 38 39  1  0  0  0  0
 36 40  1  0  0  0  0
 40 41  1  0  0  0  0
 40 42  2  0  0  0  0
 32 43  1  0  0  0  0
 43 44  2  0  0  0  0
 44 45  1  0  0  0  0
 45 46  1  0  0  0  0
 46 47  2  0  0  0  0
 47 48  1  0  0  0  0
 48 49  2  0  0  0  0
 49 50  1  0  0  0  0
 50 51  1  0  0  0  0
 51 52  1  0  0  0  0
 49 53  1  0  0  0  0
 53 54  2  0  0  0  0
 53 55  1  0  0  0  0
 45 56  2  0  0  0  0
 56 57  1  0  0  0  0
 44 58  1  0  0  0  0
 58 59  2  0  0  0  0
 59 60  1  0  0  0  0
 59 61  1  0  0  0  0
 61 62  2  0  0  0  0
 62 63  1  0  0  0  0
 63 64  2  0  0  0  0
 64 65  1  0  0  0  0
 65 66  2  0  0  0  0
 66 67  1  0  0  0  0
 67 68  2  0  0  0  0
 68 69  1  0  0  0  0
 69 70  1  0  0  0  0
 70 71  1  0  0  0  0
 68 72  1  0  0  0  0
 72 73  1  0  0  0  0
 72 74  2  0  0  0  0
 64 75  1  0  0  0  0
 75 76  2  0  0  0  0
 76 77  1  0  0  0  0
 77 78  1  0  0  0  0
 78 79  2  0  0  0  0
 79 80  1  0  0  0  0
 80 81  2  0  0  0  0
 81 82  1  0  0  0  0
 82 83  1  0  0  0  0
 83 84  1  0  0  0  0
 81 85  1  0  0  0  0
 85 86  2  0  0  0  0
 85 87  1  0  0  0  0
 77 88  2  0  0  0  0
 88 89  1  0  0  0  0
 76 90  1  0  0  0  0
 90 91  2  0  0  0  0
 91 92  1  0  0  0  0
 91 93  1  0  0  0  0
 93 94  2  0  0  0  0
 94 95  1  0  0  0  0
 95 96  2  0  0  0  0
 96 97  1  0  0  0  0
 97 98  2  0  0  0  0
 98 99  1  0  0  0  0
 99100  2  0  0  0  0
100101  1  0  0  0  0
101102  1  0  0  0  0
102103  1  0  0  0  0
100104  1  0  0  0  0
104105  1  0  0  0  0
104106  2  0  0  0  0
 96107  1  0  0  0  0
107108  2  0  0  0  0
108109  1  0  0  0  0
109110  1  0  0  0  0
110111  2  0  0  0  0
111112  1  0  0  0  0
112113  2  0  0  0  0
113114  1  0  0  0  0
114115  1  0  0  0  0
115116  1  0  0  0  0
113117  1  0  0  0  0
117118  2  0  0  0  0
117119  1  0  0  0  0
109120  2  0  0  0  0
120121  1  0  0  0  0
108122  1  0  0  0  0
122123  2  0  0  0  0
123124  1  0  0  0  0
123125  1  0  0  0  0
125126  2  0  0  0  0
126127  1  0  0  0  0
127128  2  0  0  0  0
128129  1  0  0  0  0
129130  2  0  0  0  0
130131  1  0  0  0  0
131132  2  0  0  0  0
132133  1  0  0  0  0
133134  1  0  0  0  0
134135  1  0  0  0  0
132136  1  0  0  0  0
128137  1  0  0  0  0
137138  2  0  0  0  0
138139  1  0  0  0  0
139140  1  0  0  0  0
140141  2  0  0  0  0
141142  1  0  0  0  0
142143  2  0  0  0  0
143144  1  0  0  0  0
144145  1  0  0  0  0
145146  1  0  0  0  0
143147  1  0  0  0  0
139148  2  0  0  0  0
148149  1  0  0  0  0
138150  1  0  0  0  0
150151  2  0  0  0  0
151152  1  0  0  0  0
151153  1  0  0  0  0
153154  2  0  0  0  0
154155  1  0  0  0  0
155156  2  0  0  0  0
156157  1  0  0  0  0
157158  2  0  0  0  0
158159  1  0  0  0  0
159160  2  0  0  0  0
160161  1  0  0  0  0
161162  1  0  0  0  0
162163  1  0  0  0  0
160164  1  0  0  0  0
156165  1  0  0  0  0
165166  2  0  0  0  0
166167  1  0  0  0  0
167168  1  0  0  0  0
168169  2  0  0  0  0
169170  1  0  0  0  0
170171  2  0  0  0  0
171172  1  0  0  0  0
172173  1  0  0  0  0
173174  1  0  0  0  0
171175  1  0  0  0  0
167176  2  0  0  0  0
176177  1  0  0  0  0
166178  1  0  0  0  0
178179  2  0  0  0  0
179180  1  0  0  0  0
 25  1  1  0  0  0  0
 57 29  1  0  0  0  0
 89 61  1  0  0  0  0
121 93  1  0  0  0  0
149125  1  0  0  0  0
177153  1  0  0  0  0
 24  3  1  0  0  0  0
 56 31  1  0  0  0  0
 88 63  1  0  0  0  0
120 95  1  0  0  0  0
148127  1  0  0  0  0
176155  1  0  0  0  0
 12  5  1  0  0  0  0
 28 13  1  0  0  0  0
 42 33  1  0  0  0  0
 60 43  1  0  0  0  0
 74 65  1  0  0  0  0
 92 75  1  0  0  0  0
106 97  1  0  0  0  0
124107  1  0  0  0  0
136129  1  0  0  0  0
152137  1  0  0  0  0
164157  1  0  0  0  0
180165  1  0  0  0  0
 23 16  1  0  0  0  0
 54 46  1  0  0  0  0
 86 78  1  0  0  0  0
118110  1  0  0  0  0
147140  1  0  0  0  0
175168  1  0  0  0  0
  1181  1  0  0  0  0
  2182  1  0  0  0  0
  6183  1  0  0  0  0
  7184  1  0  0  0  0
 10185  1  0  0  0  0
 10186  1  0  0  0  0
 11187  1  0  0  0  0
 11188  1  0  0  0  0
 11189  1  0  0  0  0
 17190  1  0  0  0  0
 18191  1  0  0  0  0
 21192  1  0  0  0  0
 21193  1  0  0  0  0
 22194  1  0  0  0  0
 22195  1  0  0  0  0
 22196  1  0  0  0  0
 26197  1  0  0  0  0
 30198  1  0  0  0  0
 34199  1  0  0  0  0
 35200  1  0  0  0  0
 38201  1  0  0  0  0
 38202  1  0  0  0  0
 39203  1  0  0  0  0
 39204  1  0  0  0  0
 39205  1  0  0  0  0
 42206  1  0  0  0  0
 47207  1  0  0  0  0
 48208  1  0  0  0  0
 51209  1  0  0  0  0
 51210  1  0  0  0  0
 52211  1  0  0  0  0
 52212  1  0  0  0  0
 52213  1  0  0  0  0
 54214  1  0  0  0  0
 58215  1  0  0  0  0
 62216  1  0  0  0  0
 66217  1  0  0  0  0
 67218  1  0  0  0  0
 70219  1  0  0  0  0
 70220  1  0  0  0  0
 71221  1  0  0  0  0
 71222  1  0  0  0  0
 71223  1  0  0  0  0
 74224  1  0  0  0  0
 79225  1  0  0  0  0
 80226  1  0  0  0  0
 83227  1  0  0  0  0
 83228  1  0  0  0  0
 84229  1  0  0  0  0
 84230  1  0  0  0  0
 84231  1  0  0  0  0
 86232  1  0  0  0  0
 90233  1  0  0  0  0
 94234  1  0  0  0  0
 98235  1  0  0  0  0
 99236  1  0  0  0  0
102237  1  0  0  0  0
102238  1  0  0  0  0
103239  1  0  0  0  0
103240  1  0  0  0  0
103241  1  0  0  0  0
106242  1  0  0  0  0
111243  1  0  0  0  0
112244  1  0  0  0  0
115245  1  0  0  0  0
115246  1  0  0  0  0
116247  1  0  0  0  0
116248  1  0  0  0  0
116249  1  0  0  0  0
118250  1  0  0  0  0
122251  1  0  0  0  0
126252  1  0  0  0  0
130253  1  0  0  0  0
131254  1  0  0  0  0
134255  1  0  0  0  0
134256  1  0  0  0  0
135257  1  0  0  0  0
135258  1  0  0  0  0
135259  1  0  0  0  0
141260  1  0  0  0  0
142261  1  0  0  0  0
145262  1  0  0  0  0
145263  1  0  0  0  0
146264  1  0  0  0  0
146265  1  0  0  0  0
146266  1  0  0  0  0
150267  1  0  0  0  0
154268  1  0  0  0  0
158269  1  0  0  0  0
159270  1  0  0  0  0
162271  1  0  0  0  0
162272  1  0  0  0  0
163273  1  0  0  0  0
163274  1  0  0  0  0
163275  1  0  0  0  0
169276  1  0  0  0  0
170277  1  0  0  0  0
173278  1  0  0  0  0
173279  1  0  0  0  0
174280  1  0  0  0  0
174281  1  0  0  0  0
174282  1  0  0  0  0
178283  1  0  0  0  0
179284  1  0  0  0  0
M  END
