284

C          2.98780       -6.83000        8.15090
C          4.04720       -7.10270        7.36330
C          3.67730       -7.45410        6.03160
C          4.52200       -7.74090        4.94170
C          5.96250       -7.81110        5.06510
C          6.69850       -8.36540        6.07450
C          8.09850       -8.32570        5.91630
C          8.53460       -7.71820        4.77360
S         10.22000       -7.48500        4.37000
C         10.12490       -7.12040        2.58010
C          9.78040       -8.34220        1.75360
Se         7.09110       -7.09380        3.73510
C          3.89030       -7.94730        3.71990
C          2.48860       -7.90630        3.53890
C          1.64260       -7.62090        4.62710
C          0.20440       -7.50350        4.48810
C         -0.73760       -7.95940        5.36820
C         -2.08030       -7.69090        5.03610
C         -2.25420       -6.97550        3.88950
S         -3.76880       -6.47100        3.16240
C         -4.67520       -5.83390        4.61780
C         -3.94000       -4.70030        5.30030
Se        -0.61820       -6.55460        3.07270
C          2.27410       -7.41430        5.85330
S          1.46890       -6.98230        7.33930
C          2.12510       -8.17340        2.19540
C          3.19030       -8.37540        1.37100
S          4.71490       -8.29810        2.22570
C          3.17970       -8.49530       -0.04590
C          4.24510       -8.42560       -0.89240
C          3.88600       -8.32710       -2.25950
C          4.72750       -8.07870       -3.36620
C          6.16000       -7.91830       -3.24410
C          7.10380       -8.27400       -4.16880
C          8.43660       -7.93430       -3.86410
C          8.60820       -7.26460       -2.68790
S         10.16230       -6.82760       -2.01480
C          9.69950       -5.40070       -0.96740
C          9.31370       -4.19080       -1.79230
Se         6.97270       -7.03780       -1.78450
C          4.08320       -7.89930       -4.59030
C          2.68320       -8.01880       -4.75840
C          1.84370       -8.29970       -3.65860
C          0.40560       -8.34270       -3.78950
C         -0.33750       -8.82160       -4.83420
C         -1.73430       -8.67860       -4.72260
C         -2.16180       -8.06990       -3.57660
S         -3.84280       -7.75020       -3.20490
C         -3.83330       -7.66750       -1.37590
C         -3.51500       -6.28580       -0.84410
Se        -0.71440       -7.58670       -2.47320
C          2.48320       -8.40350       -2.42960
S          1.65820       -8.56510       -0.90420
C          2.27010       -7.60510       -6.04440
C          3.28130       -7.13460       -6.83000
S          4.83890       -7.29520       -6.05100
C          3.04560       -6.35310       -8.00260
C          3.68870       -5.22570       -8.42070
C          2.88110       -4.38250       -9.23150
C          3.13050       -3.02720       -9.56380
C          4.45860       -2.48370       -9.51220
C          5.62920       -3.16820       -9.73140
C          6.81440       -2.42390       -9.62390
C          6.64190       -1.10390       -9.30530
S          7.97140       -0.00360       -9.03470
C          7.11400        1.60560       -8.92370
C          6.67640        2.12050      -10.27970
Se         4.81670       -0.67370       -9.12110
C          1.98830       -2.26200       -9.80730
C          0.69440       -2.81320       -9.94240
C          0.49700       -4.21070       -9.88340
C         -0.81650       -4.77710      -10.05420
C         -1.78420       -4.35150      -10.92530
C         -3.03880       -4.97830      -10.81710
C         -3.12810       -5.92520       -9.83540
S         -4.56370       -6.87200       -9.53210
C         -4.20820       -7.54700       -7.87120
C         -4.31270       -6.49190       -6.79090
Se        -1.47990       -6.15560       -8.94780
C          1.59760       -4.93570       -9.44120
S          1.48890       -6.54780       -8.79350
C         -0.31870       -1.83380       -9.81180
C          0.15790       -0.58460       -9.54250
S          1.91010       -0.52030       -9.68750
C         -0.55150        0.42480       -8.81830
C         -1.59880        0.13370       -7.99090
C         -1.87830        1.14810       -7.04680
C         -2.69140        1.02490       -5.90900
C         -3.53260       -0.16090       -5.70660
C         -4.41670       -0.58910       -6.69770
C         -5.20220       -1.70180       -6.50290
C         -5.14570       -2.44810       -5.32120
S         -6.24920       -3.81900       -5.25510
C         -5.93420       -4.68630       -3.67050
C         -6.86260       -5.88190       -3.58970
C         -4.25150       -2.01390       -4.34780
F         -4.10590       -2.67030       -3.17080
C         -3.46170       -0.89530       -4.52920
C         -2.58410        2.03590       -4.96910
C         -1.77750        3.18920       -5.14580
C         -0.98760        3.32060       -6.30200
C         -0.07400        4.45110       -6.50440
C         -0.07280        5.15210       -7.70630
C          0.79550        6.20500       -7.91980
C          1.70090        6.59110       -6.93820
S          2.88040        7.89070       -7.08730
C          2.28230        8.87560       -8.50390
C          0.99550        9.61400       -8.18870
C          1.70400        5.86380       -5.74610
C          0.83930        4.81760       -5.51780
F          2.58800        6.18920       -4.78220
C         -1.03750        2.27460       -7.21220
S          0.05450        2.04810       -8.56190
C         -1.83440        4.04790       -4.01470
C         -2.58240        3.54770       -2.99250
S         -3.35810        2.03200       -3.41040
C         -2.69450        3.99680       -1.64100
C         -2.98220        3.19430       -0.57820
C         -2.91180        3.85310        0.67250
C         -3.08810        3.28490        1.94570
C         -3.39590        1.85430        2.07840
C         -4.45040        1.27640        1.37260
C         -4.66150       -0.08630        1.41390
C         -3.83530       -0.91800        2.16260
S         -4.13530       -2.66700        2.14050
C         -2.48290       -3.32340        1.70010
C         -2.04290       -2.85360        0.32920
C         -2.83030       -0.32140        2.91650
F         -2.03550       -1.07290        3.70750
C         -2.59740        1.03840        2.87390
C         -2.89830        4.12660        3.02940
C         -2.57790        5.49950        2.88330
C         -2.41850        6.07230        1.60810
C         -2.11150        7.50190        1.48410
C         -2.85640        8.43920        2.20080
C         -2.51590        9.77510        2.19100
C         -1.41830       10.22250        1.46350
S         -0.88120       11.90700        1.50020
C         -0.98320       12.25530        3.29450
C         -0.09880       11.31690        4.09140
C         -0.72980        9.29140        0.68960
C         -1.05680        7.95050        0.69480
F          0.31350        9.69210       -0.05890
C         -2.55870        5.21830        0.52620
S         -2.34030        5.64040       -1.15580
C         -2.41680        6.13540        4.13750
C         -2.64240        5.31750        5.20580
S         -3.04490        3.68630        4.71220
C         -2.60640        5.70630        6.58000
C         -2.38270        6.96720        7.05170
C         -2.47740        7.07620        8.46080
C         -2.30810        8.22680        9.24980
C         -2.07830        9.54180        8.64090
C         -1.07700       10.39030        9.10370
C         -0.86600       11.63240        8.53550
C         -1.64410       12.07080        7.47060
S         -1.51320       13.63160        6.66040
C         -0.02960       14.40800        7.38610
C          1.26210       13.81540        6.85460
C         -2.64150       11.20760        7.01250
F         -3.41010       11.59220        5.96930
C         -2.87280        9.97610        7.57900
C         -2.39760        8.05060       10.62410
C         -2.65610        6.79690       11.22970
C         -2.82850        5.65030       10.44010
C         -3.06130        4.32930       11.03640
C         -4.10820        3.51990       10.60800
C         -4.31800        2.26930       11.15690
C         -3.48450        1.78130       12.15640
S         -3.61280        0.20470       12.93010
C         -5.21620       -0.45410       12.35770
C         -6.39380        0.23760       13.01840
C         -2.43170        2.60120       12.56950
C         -2.21330        3.84920       12.03330
F         -1.59390        2.15600       13.52820
C         -2.75020        5.82480        9.06600
S         -2.91820        4.56540        7.86940
C         -2.76640        6.91150       12.64830
C         -2.59380        8.17310       13.08930
S         -2.28410        9.31320       11.82450
H          2.98960       -6.54110        9.18360
H          5.06630       -7.03210        7.69560
H          6.23740       -8.86730        6.90890
H          8.77780       -8.75740        6.63090
H         11.11330       -6.73750        2.32810
H          9.38600       -6.32180        2.45600
H          9.79590       -8.09050        0.69490
H          8.78600       -8.71130        2.00610
H         10.50170       -9.13600        1.93210
H         -0.47730       -8.53880        6.23770
H         -2.90130       -8.03660        5.64100
H         -5.62370       -5.49650        4.20160
H         -4.85400       -6.67210        5.29060
H         -4.52720       -4.33990        6.14230
H         -3.78660       -3.87790        4.60620
H         -2.97170       -5.03300        5.67050
H          1.11070       -8.21250        1.83550
H          5.25510       -8.43030       -0.51770
H          6.85030       -8.80880       -5.06860
H          9.26160       -8.17530       -4.51170
H         10.58240       -5.20520       -0.35980
H          8.87990       -5.72650       -0.31830
H          8.43780       -4.40680       -2.40360
H         10.13100       -3.90160       -2.44880
H          9.07760       -3.35620       -1.13560
H          0.10980       -9.34110       -5.66510
H         -2.41740       -9.04330       -5.47040
H         -4.83360       -7.98170       -1.07920
H         -3.10680       -8.40710       -1.03260
H         -3.54160       -6.30640        0.24390
H         -4.23960       -5.55720       -1.19940
H         -2.51930       -5.96960       -1.16130
H          1.23970       -7.54000       -6.34200
H          4.64740       -4.93310       -8.03050
H          5.63630       -4.20590      -10.02030
H          7.78920       -2.85150       -9.78370
H          6.26430        1.47290       -8.24640
H          7.83940        2.27410       -8.46120
H          5.96670        1.43340      -10.74170
H          6.19210        3.08800      -10.16570
H          7.53370        2.23020      -10.93960
H         -1.58600       -3.59620      -11.66800
H         -3.87290       -4.72910      -11.45020
H         -4.94700       -8.33510       -7.72940
H         -3.20830       -7.99170       -7.91460
H         -4.15440       -6.94510       -5.81410
H         -5.29510       -6.02650       -6.80960
H         -3.56000       -5.71590       -6.93610
H         -1.36520       -2.07740       -9.79240
H         -2.07900       -0.82710       -7.96840
H         -4.49820       -0.02940       -7.61710
H         -5.89070       -2.02340       -7.26930
H         -6.12730       -3.98570       -2.85970
H         -4.89230       -5.00150       -3.66290
H         -7.90140       -5.56700       -3.65950
H         -6.71460       -6.39380       -2.64190
H         -6.65390       -6.58250       -4.39410
H         -2.77570       -0.62440       -3.74190
H         -0.77080        4.87810       -8.48290
H          0.76590        6.71790       -8.86720
H          2.18880        8.22300       -9.37100
H          3.09700        9.57680       -8.68490
H          0.19030        8.91840       -7.96190
H          1.13790       10.26450       -7.32900
H          0.69980       10.22280       -9.04100
H          0.90280        4.27700       -4.58650
H         -1.30930        4.98350       -3.94460
H         -3.19380        2.14610       -0.68810
H         -5.10660        1.90250        0.78740
H         -5.46550       -0.53310        0.85000
H         -1.77430       -3.04130        2.47670
H         -2.62070       -4.40530        1.72040
H         -1.10440       -3.33600        0.06320
H         -1.89240       -1.77470        0.31900
H         -2.78940       -3.10510       -0.42120
H         -1.78140        1.44560        3.45030
H         -3.72060        8.11570        2.76130
H         -3.10190       10.47880        2.76160
H         -2.02170       12.20720        3.61700
H         -0.64160       13.28610        3.37950
H         -0.13310       11.58200        5.14510
H         -0.43620       10.28690        3.98640
H          0.93100       11.37890        3.74620
H         -0.45810        7.26480        0.11660
H         -2.12400        7.16320        4.23930
H         -2.14050        7.79660        6.41430
H         -0.43860       10.07140        9.91280
H         -0.08480       12.25720        8.93600
H         -0.10410       14.34650        8.47090
H         -0.12250       15.45340        7.09140
H          1.30670       13.91920        5.77310
H          2.11210       14.33880        7.28820
H          1.34410       12.75910        7.10160
H         -3.68610        9.37260        7.20770
H         -4.78230        3.87700        9.84460
H         -5.13850        1.67540       10.78940
H         -5.17570       -1.50510       12.64400
H         -5.24930       -0.39310       11.27080
H         -6.40570        1.30040       12.78650
H         -6.33620        0.12430       14.09840
H         -7.32570       -0.20480       12.67120
H         -1.37110        4.42980       12.37610
H         -2.98540        6.07990       13.29270
H         -2.62680        8.52930       14.10030
