290

C         -4.88280       -6.98250        9.40470
C         -5.10480       -5.91990        8.60540
C         -5.19940       -6.27190        7.22580
C         -5.38290       -5.42380        6.12390
C         -5.54920       -3.97290        6.28550
C         -4.74130       -3.08070        5.58270
C         -4.87830       -1.72050        5.75770
C         -5.83640       -1.19310        6.62170
S         -5.94370        0.56940        6.72140
C         -6.30470        0.90770        8.48480
C         -5.24590        0.33300        9.40370
C         -6.66190       -2.09430        7.28690
F         -7.64610       -1.66100        8.10680
C         -6.51630       -3.45970        7.14310
C         -5.37800       -6.02140        4.87240
C         -5.18660       -7.41120        4.67380
C         -4.99290       -8.25790        5.77610
C         -4.73700       -9.69320        5.60740
C         -3.74240      -10.14360        4.73970
C         -3.49570      -11.49120        4.59420
C         -4.22010      -12.44510        5.30830
S         -3.76410      -14.13640        5.07010
C         -5.34300      -15.06010        5.15050
C         -6.33590      -14.58070        4.11120
C         -5.19100      -11.97940        6.18960
C         -5.45940      -10.63310        6.33400
F         -5.91480      -12.83640        6.94330
C         -5.02230       -7.66280        7.03040
S         -4.76860       -8.48230        8.55050
C         -5.25090       -7.76220        3.29940
C         -5.48200       -6.70280        2.47630
S         -5.63930       -5.19400        3.35970
C         -5.53790       -6.68250        1.05060
C         -5.91240       -5.64150        0.25640
C         -5.74670       -5.89330       -1.12810
C         -6.03100       -5.03110       -2.19830
C         -6.49850       -3.65370       -2.00400
C         -5.83580       -2.78980       -1.13620
C         -6.21770       -1.46810       -1.00760
C         -7.27930       -0.95960       -1.74870
S         -7.86260        0.69920       -1.69370
C         -6.60680        1.56360       -0.68180
C         -6.91940        3.04740       -0.69020
C         -7.93920       -1.84050       -2.60940
F         -8.97090       -1.37880       -3.34660
C         -7.56890       -3.15790       -2.74670
C         -5.74540       -5.50910       -3.46750
C         -5.15940       -6.77390       -3.71640
C         -4.93370       -7.66100       -2.64880
C         -4.41320       -9.01070       -2.88910
C         -4.98220       -9.81960       -3.87380
C         -4.50760      -11.09190       -4.09930
C         -3.44970      -11.61870       -3.35580
S         -2.97690      -13.27650       -3.72750
C         -1.20770      -13.38250       -3.24290
C         -0.58030      -14.56230       -3.95920
C         -2.90510      -10.80780       -2.36480
C         -3.36380       -9.52590       -2.13680
F         -1.89710      -11.24810       -1.57670
C         -5.22670       -7.18880       -1.37600
S         -4.99210       -8.06370        0.11780
C         -4.74020       -6.90480       -5.06950
C         -5.01840       -5.81290       -5.83320
S         -5.88360       -4.57500       -4.93000
C         -4.53140       -5.41940       -7.11720
C         -4.95660       -4.33560       -7.82460
C         -4.01760       -3.86410       -8.77040
C         -4.08930       -2.61430       -9.43350
C         -5.33620       -1.93450       -9.61660
C         -6.57900       -2.51350       -9.72390
C         -7.66350       -1.63630       -9.86970
C         -7.33440       -0.30660       -9.88440
S         -8.52180        0.97210       -9.94650
C         -7.47010        2.44360      -10.20030
C         -6.96620        2.54950      -11.62510
Se        -5.47420       -0.05930       -9.73290
C         -2.84300       -2.06270       -9.71460
C         -1.62940       -2.77910       -9.62640
C         -1.63610       -4.17550       -9.36180
C         -0.49440       -5.00450       -9.62490
C         -0.33690       -6.34340       -9.35380
C          0.81380       -6.96260       -9.87060
C          1.62780       -6.14470      -10.60170
S          3.11700       -6.50750      -11.43600
C          3.66800       -8.05620      -10.63670
C          4.08850       -7.83970       -9.19660
Se         0.97000       -4.39580      -10.67400
C         -2.83170       -4.63170       -8.78450
S         -3.01050       -6.03060       -7.74310
C         -0.51270       -1.90230       -9.56420
C         -0.85710       -0.58140       -9.56040
S         -2.56240       -0.35660       -9.91330
C         -0.16390        0.48720       -8.91180
C         -0.79750        1.38200       -8.09840
C          0.06070        2.03540       -7.18720
C         -0.33000        2.82200       -6.08710
C         -1.71000        3.04440       -5.71130
C         -2.22960        4.16530       -5.12560
C         -3.56140        4.07550       -4.67870
C         -4.15460        2.85740       -4.85720
S         -5.75770        2.48190       -4.26780
C         -6.08510        0.83590       -4.98290
C         -6.42400        0.90590       -6.45570
Se        -2.99010        1.65060       -5.71320
C          0.70270        3.25840       -5.26330
C          2.06860        2.99020       -5.51410
C          2.45870        2.21730       -6.63220
C          3.85000        1.94230       -6.91800
C          4.40020        0.79330       -7.41340
C          5.79210        0.81210       -7.62890
C          6.41140        1.99310       -7.33750
S          8.11550        2.28760       -7.59280
C          8.41420        3.72300       -6.50030
C          8.37880        3.35520       -5.03110
Se         5.17360        3.27920       -6.73820
C          1.42030        1.70570       -7.40760
S          1.57090        0.53220       -8.69880
C          2.88460        3.41240       -4.43370
C          2.18530        3.95270       -3.39610
S          0.47250        4.03720       -3.72220
C          2.70350        4.33180       -2.11850
C          3.97140        4.72630       -1.81610
C          4.18320        4.92590       -0.42770
C          5.36370        5.33310        0.21570
C          6.54720        5.69920       -0.57230
C          6.44170        6.62780       -1.60390
C          7.53060        6.95920       -2.38670
C          8.76730        6.36360       -2.16890
S         10.23620        6.66310       -3.09740
C          9.75710        7.92840       -4.32450
C          9.02580        7.34380       -5.51880
C          8.86270        5.44730       -1.11900
F         10.05120        4.85830       -0.87760
C          7.78770        5.11630       -0.32520
C          5.33390        5.37340        1.60020
C          4.18260        5.04390        2.36090
C          2.99800        4.65290        1.71760
C          1.79650        4.25650        2.46340
C          1.18030        3.03510        2.19050
C          0.06320        2.63910        2.88990
C         -0.50020        3.44460        3.88040
S         -1.95340        2.82390        4.66310
C         -1.95270        3.58550        6.33420
C         -2.79290        2.72100        7.25370
C          0.10790        4.67330        4.12200
C          1.24330        5.07240        3.44370
F         -0.40300        5.53550        5.03020
C          3.03060        4.61080        0.33200
S          1.69030        4.18500       -0.69770
C          4.42430        5.14810        3.75350
C          5.68400        5.56510        4.06180
S          6.66130        5.84260        2.63180
C          6.22450        5.79280        5.36140
C          7.49010        6.17040        5.69260
C          7.68640        6.34270        7.08800
C          8.86750        6.69670        7.75930
C         10.09970        7.00780        7.02640
C         10.09510        7.91110        5.96720
C         11.25030        8.20320        5.26800
C         12.45570        7.59470        5.60110
S         13.99210        7.86320        4.79070
C         13.53230        8.87250        3.33220
C         14.75680        9.03570        2.45150
C         12.44860        6.70260        6.67630
F         13.60100        6.09980        7.03010
C         11.30610        6.40720        7.38290
C          8.80320        6.74370        9.14580
C          7.62580        6.46060        9.87880
C          6.44830        6.09740        9.20880
C          5.22080        5.74300        9.93230
C          5.24190        4.79160       10.95170
C          4.08330        4.44150       11.60940
C          2.85580        5.01710       11.27910
S          1.44280        4.44210       12.16660
C          0.28830        5.87250       12.17110
C         -0.69290        5.70120       13.31400
C          2.84710        5.94950       10.24640
C          4.00310        6.31880        9.58860
F          1.69440        6.52930        9.84110
C          6.50840        6.06180        7.82350
S          5.19310        5.61440        6.76880
C          7.82070        6.64930       11.27960
C          9.07320        7.04310       11.58630
S         10.10590        7.21180       10.20880
H         -4.77470       -6.99320       10.47170
H         -5.18560       -4.91030        8.96480
H         -3.98090       -3.45900        4.91720
H         -4.23850       -1.03290        5.22650
H         -7.29820        0.53400        8.72190
H         -6.31560        1.99680        8.53130
H         -4.26050        0.70290        9.12920
H         -5.23490       -0.75400        9.35070
H         -5.45670        0.62330       10.43100
H         -7.18800       -4.11300        7.67870
H         -3.14930       -9.42900        4.18990
H         -2.72630      -11.83550        3.92070
H         -5.03660      -16.08820        4.95640
H         -5.74290      -14.99430        6.15980
H         -6.63590      -13.55260        4.30520
H         -7.22480      -15.20770        4.13830
H         -5.90130      -14.63160        3.11500
H         -6.23880      -10.33310        7.01680
H         -5.14620       -8.76820        2.93400
H         -6.30270       -4.72150        0.65310
H         -4.98680       -3.14720       -0.57330
H         -5.67580       -0.83200       -0.32730
H         -6.64940        1.16040        0.33020
H         -5.63210        1.37130       -1.12940
H         -6.88140        3.43350       -1.70610
H         -7.91100        3.23150       -0.28330
H         -6.18830        3.57880       -0.08500
H         -8.12310       -3.79100       -3.42150
H         -5.81340       -9.44810       -4.45360
H         -4.95200      -11.71380       -4.86100
H         -0.73440      -12.44660       -3.53570
H         -1.15210      -13.50380       -2.16240
H         -1.08030      -15.48710       -3.68070
H         -0.65710      -14.44050       -5.03740
H          0.47050      -14.63870       -3.68850
H         -2.88300       -8.93890       -1.37030
H         -4.19780       -7.75470       -5.44400
H         -5.86010       -3.80630       -7.57840
H         -6.70850       -3.58270       -9.73970
H         -8.68080       -1.97530       -9.96330
H         -8.10690        3.28860       -9.94060
H         -6.64650        2.37760       -9.48200
H         -6.36710        3.45040      -11.73840
H         -6.34500        1.68950      -11.87750
H         -7.80040        2.59110      -12.32140
H         -1.05050       -6.91190       -8.78440
H          1.01000       -8.00860       -9.70990
H          4.51050       -8.37790      -11.24850
H          2.86620       -8.78750      -10.72940
H          4.43390       -8.77860       -8.76850
H          3.25600       -7.47100       -8.60090
H          4.89710       -7.11420       -9.14480
H          0.48830       -2.22140       -9.32030
H         -1.86610        1.51480       -8.11770
H         -1.66780        5.08080       -5.04550
H         -4.07740        4.89890       -4.21630
H         -5.20200        0.21650       -4.79560
H         -6.92590        0.45200       -4.40650
H         -6.62400       -0.09670       -6.83230
H         -5.59190        1.32870       -7.02380
H         -7.30730        1.52020       -6.61490
H          3.82000       -0.09940       -7.57160
H          6.33690       -0.04480       -7.98540
H          9.39930        4.08370       -6.79360
H          7.66340        4.47950       -6.75040
H          8.61200        4.22670       -4.42300
H          7.39070        2.99080       -4.74900
H          9.10870        2.57850       -4.81680
H          3.94480        3.23730       -4.37200
H          4.73490        4.86450       -2.55990
H          5.49410        7.11130       -1.78800
H          7.40230        7.68880       -3.16910
H          9.17960        8.69810       -3.81440
H         10.71020        8.35770       -4.63360
H          8.78600        8.13440       -6.22730
H          9.65380        6.61010       -6.01810
H          8.10150        6.85530       -5.21830
H          7.91910        4.39190        0.46270
H          1.60000        2.37920        1.44380
H         -0.40070        1.68730        2.68360
H         -0.91860        3.63180        6.67180
H         -2.36110        4.59180        6.25430
H         -2.36580        1.72310        7.33060
H         -3.80730        2.63080        6.87090
H         -2.82720        3.16750        8.24540
H          1.66380        6.04120        3.66560
H          3.69290        4.91260        4.50560
H          8.26530        6.30230        4.95910
H          9.17780        8.41410        5.70050
H         11.20440        8.91510        4.46030
H         12.73800        8.34810        2.80120
H         13.17650        9.84050        3.68620
H         14.50630        9.63240        1.57700
H         15.55540        9.53270        2.99730
H         15.11810        8.06510        2.12030
H         11.35940        5.69360        8.18960
H          6.17260        4.31240       11.21480
H          4.10360        3.70350       12.39640
H         -0.22640        5.90410       11.21210
H          0.88840        6.77200       12.29860
H         -1.38450        6.54080       13.33200
H         -0.16840        5.65840       14.26590
H         -1.26260        4.78240       13.19340
H          3.93580        7.06130        8.80890
H          7.04220        6.51060       12.00760
H          9.47830        7.25370       12.55680
