
  xtb     03052209053D
 energy: -308.511727682565 gnorm: 0.000828924741 xtb: 6.4.1 (unknown)
170190  0     0  0            999 V2000
   12.8522   -6.0120   13.2087 C   0  0  0  0  0  0  0  0  0  0  0  0
   12.9448   -6.1218   11.8495 N   0  0  0  0  0  0  0  0  0  0  0  0
   11.6877   -6.0890   11.2208 C   0  0  0  0  0  0  0  0  0  0  0  0
   11.5284   -6.1667   10.0172 O   0  0  0  0  0  0  0  0  0  0  0  0
   10.7735   -5.9471   12.3270 C   0  0  0  0  0  0  0  0  0  0  0  0
   11.5361   -5.9015   13.5435 C   0  0  0  0  0  0  0  0  0  0  0  0
   10.6026   -5.7380   14.6483 C   0  0  0  0  0  0  0  0  0  0  0  0
   10.7516   -5.6492   15.8422 O   0  0  0  0  0  0  0  0  0  0  0  0
    9.3491   -5.6932   14.0118 N   0  0  0  0  0  0  0  0  0  0  0  0
    9.4367   -5.8138   12.6445 C   0  0  0  0  0  0  0  0  0  0  0  0
    8.3462   -5.7840   11.7399 C   0  0  0  0  0  0  0  0  0  0  0  0
    7.0078   -5.5606   11.9461 C   0  0  0  0  0  0  0  0  0  0  0  0
    6.2572   -5.5498   10.7510 C   0  0  0  0  0  0  0  0  0  0  0  0
    4.8656   -5.3204   10.5919 C   0  0  0  0  0  0  0  0  0  0  0  0
    3.9818   -5.2679   11.7290 C   0  0  0  0  0  0  0  0  0  0  0  0
    4.0776   -6.0063   12.8804 C   0  0  0  0  0  0  0  0  0  0  0  0
    3.1085   -5.7523   13.8658 C   0  0  0  0  0  0  0  0  0  0  0  0
    2.1903   -4.7915   13.5411 C   0  0  0  0  0  0  0  0  0  0  0  0
    0.8604   -4.3510   14.5847 S   0  0  0  0  0  0  0  0  0  0  0  0
    0.1191   -2.9419   13.6904 C   0  0  0  0  0  0  0  0  0  0  0  0
    0.9201   -1.6664   13.8564 C   0  0  0  0  0  0  0  0  0  0  0  0
    2.4964   -4.1090   11.8119 Se  0  0  0  0  0  2  0  0  0  0  0  0
    4.4337   -5.1479    9.2831 C   0  0  0  0  0  0  0  0  0  0  0  0
    5.2655   -5.2930    8.1387 C   0  0  0  0  0  0  0  0  0  0  0  0
    6.6227   -5.6769    8.2928 C   0  0  0  0  0  0  0  0  0  0  0  0
    7.4837   -5.9572    7.1800 C   0  0  0  0  0  0  0  0  0  0  0  0
    7.1292   -6.4315    5.9359 C   0  0  0  0  0  0  0  0  0  0  0  0
    8.1682   -6.5970    5.0150 C   0  0  0  0  0  0  0  0  0  0  0  0
    9.4139   -6.2477    5.4753 C   0  0  0  0  0  0  0  0  0  0  0  0
   10.8486   -6.3344    4.4916 S   0  0  0  0  0  0  0  0  0  0  0  0
   12.1278   -5.6221    5.5879 C   0  0  0  0  0  0  0  0  0  0  0  0
   12.6575   -6.6139    6.6042 C   0  0  0  0  0  0  0  0  0  0  0  0
    9.3578   -5.7044    7.2732 Se  0  0  0  0  0  2  0  0  0  0  0  0
    7.0781   -5.7392    9.6130 C   0  0  0  0  0  0  0  0  0  0  0  0
    8.7293   -6.0198   10.0521 S   0  0  0  0  0  0  0  0  0  0  0  0
    4.5887   -4.9605    6.9507 C   0  0  0  0  0  0  0  0  0  0  0  0
    3.2743   -4.6109    7.1434 C   0  0  0  0  0  0  0  0  0  0  0  0
    2.8110   -4.6983    8.8337 S   0  0  0  0  0  0  0  0  0  0  0  0
    2.3763   -4.2003    6.1374 C   0  0  0  0  0  0  0  0  0  0  0  0
    1.0846   -3.7743    6.3720 N   0  0  0  0  0  0  0  0  0  0  0  0
    0.4273   -3.3805    5.2054 C   0  0  0  0  0  0  0  0  0  0  0  0
   -0.7098   -2.9549    5.1456 O   0  0  0  0  0  0  0  0  0  0  0  0
    1.4134   -3.6070    4.1739 C   0  0  0  0  0  0  0  0  0  0  0  0
    2.5958   -4.1135    4.7685 C   0  0  0  0  0  0  0  0  0  0  0  0
    3.5716   -4.3369    3.7112 C   0  0  0  0  0  0  0  0  0  0  0  0
    4.7057   -4.7659    3.7486 O   0  0  0  0  0  0  0  0  0  0  0  0
    2.9042   -3.9377    2.5516 N   0  0  0  0  0  0  0  0  0  0  0  0
    1.6266   -3.4963    2.8081 C   0  0  0  0  0  0  0  0  0  0  0  0
    0.7560   -3.0022    1.8216 C   0  0  0  0  0  0  0  0  0  0  0  0
   -0.5123   -2.5370    2.0823 N   0  0  0  0  0  0  0  0  0  0  0  0
   -1.1513   -2.0632    0.9346 C   0  0  0  0  0  0  0  0  0  0  0  0
   -2.2739   -1.6040    0.9041 O   0  0  0  0  0  0  0  0  0  0  0  0
   -0.1686   -2.2671   -0.1198 C   0  0  0  0  0  0  0  0  0  0  0  0
    0.9833   -2.8525    0.4621 C   0  0  0  0  0  0  0  0  0  0  0  0
    1.9738   -3.0676   -0.5680 C   0  0  0  0  0  0  0  0  0  0  0  0
    3.0933   -3.5375   -0.5147 O   0  0  0  0  0  0  0  0  0  0  0  0
    1.3472   -2.5938   -1.7220 N   0  0  0  0  0  0  0  0  0  0  0  0
    0.0807   -2.1045   -1.4772 C   0  0  0  0  0  0  0  0  0  0  0  0
   -0.7544   -1.5284   -2.4566 C   0  0  0  0  0  0  0  0  0  0  0  0
   -1.9822   -0.9585   -2.2203 C   0  0  0  0  0  0  0  0  0  0  0  0
   -2.5878   -0.4254   -3.3735 C   0  0  0  0  0  0  0  0  0  0  0  0
   -3.8117    0.2882   -3.4564 C   0  0  0  0  0  0  0  0  0  0  0  0
   -4.7070    0.3809   -2.3357 C   0  0  0  0  0  0  0  0  0  0  0  0
   -4.9189   -0.5501   -1.3476 C   0  0  0  0  0  0  0  0  0  0  0  0
   -5.8454   -0.2027   -0.3545 C   0  0  0  0  0  0  0  0  0  0  0  0
   -6.4112    1.0371   -0.4942 C   0  0  0  0  0  0  0  0  0  0  0  0
   -7.5364    1.7138    0.6536 S   0  0  0  0  0  0  0  0  0  0  0  0
   -8.0839    3.2356   -0.1985 C   0  0  0  0  0  0  0  0  0  0  0  0
   -9.0810    2.9535   -1.3041 C   0  0  0  0  0  0  0  0  0  0  0  0
   -5.7800    1.9057   -2.0394 Se  0  0  0  0  0  2  0  0  0  0  0  0
   -4.0728    0.8927   -4.6847 C   0  0  0  0  0  0  0  0  0  0  0  0
   -3.2488    0.7454   -5.8253 C   0  0  0  0  0  0  0  0  0  0  0  0
   -2.0657   -0.0258   -5.7649 C   0  0  0  0  0  0  0  0  0  0  0  0
   -1.1884   -0.2084   -6.9017 C   0  0  0  0  0  0  0  0  0  0  0  0
   -0.4873   -1.3390   -7.2209 C   0  0  0  0  0  0  0  0  0  0  0  0
    0.3212   -1.2671   -8.3722 C   0  0  0  0  0  0  0  0  0  0  0  0
    0.3182   -0.0607   -9.0090 C   0  0  0  0  0  0  0  0  0  0  0  0
    1.2634    0.3182  -10.4293 S   0  0  0  0  0  0  0  0  0  0  0  0
    0.2074    1.5948  -11.2027 C   0  0  0  0  0  0  0  0  0  0  0  0
   -1.0938    1.0242  -11.7255 C   0  0  0  0  0  0  0  0  0  0  0  0
   -0.7718    1.1831   -8.1082 Se  0  0  0  0  0  2  0  0  0  0  0  0
   -1.7680   -0.5772   -4.5240 C   0  0  0  0  0  0  0  0  0  0  0  0
   -0.3004   -1.4398   -4.1480 S   0  0  0  0  0  0  0  0  0  0  0  0
   -3.7661    1.4427   -6.9397 C   0  0  0  0  0  0  0  0  0  0  0  0
   -4.9096    2.1402   -6.6756 C   0  0  0  0  0  0  0  0  0  0  0  0
   -5.4492    1.9054   -5.0304 S   0  0  0  0  0  0  0  0  0  0  0  0
   -5.5920    3.0211   -7.5645 C   0  0  0  0  0  0  0  0  0  0  0  0
   -5.1800    3.3997   -8.8102 C   0  0  0  0  0  0  0  0  0  0  0  0
   -6.0227    4.3562   -9.4250 C   0  0  0  0  0  0  0  0  0  0  0  0
   -5.8391    4.9990  -10.6662 C   0  0  0  0  0  0  0  0  0  0  0  0
   -4.6635    4.7981  -11.4866 C   0  0  0  0  0  0  0  0  0  0  0  0
   -4.6018    4.7833  -12.8526 C   0  0  0  0  0  0  0  0  0  0  0  0
   -3.3132    4.7162  -13.4181 C   0  0  0  0  0  0  0  0  0  0  0  0
   -2.2868    4.6965  -12.5200 C   0  0  0  0  0  0  0  0  0  0  0  0
   -0.6001    4.5395  -12.9590 S   0  0  0  0  0  0  0  0  0  0  0  0
    0.2036    5.3989  -11.5597 C   0  0  0  0  0  0  0  0  0  0  0  0
   -0.0451    6.8922  -11.5940 C   0  0  0  0  0  0  0  0  0  0  0  0
   -2.9272    4.6940  -10.7465 Se  0  0  0  0  0  2  0  0  0  0  0  0
   -6.8368    5.8995  -11.0395 C   0  0  0  0  0  0  0  0  0  0  0  0
   -7.9573    6.2021  -10.2314 C   0  0  0  0  0  0  0  0  0  0  0  0
   -8.1191    5.5880   -8.9754 C   0  0  0  0  0  0  0  0  0  0  0  0
   -9.2006    5.9086   -8.0666 C   0  0  0  0  0  0  0  0  0  0  0  0
   -9.8878    5.0377   -7.2685 C   0  0  0  0  0  0  0  0  0  0  0  0
  -10.8352    5.6092   -6.3973 C   0  0  0  0  0  0  0  0  0  0  0  0
  -10.9205    6.9709   -6.4452 C   0  0  0  0  0  0  0  0  0  0  0  0
  -11.9420    7.9113   -5.3815 S   0  0  0  0  0  0  0  0  0  0  0  0
  -11.9808    9.5282   -6.2311 C   0  0  0  0  0  0  0  0  0  0  0  0
  -12.8344    9.4989   -7.4822 C   0  0  0  0  0  0  0  0  0  0  0  0
   -9.7179    7.6869   -7.7052 Se  0  0  0  0  0  2  0  0  0  0  0  0
   -7.1420    4.6644   -8.6148 C   0  0  0  0  0  0  0  0  0  0  0  0
   -7.0827    3.8041   -7.0993 S   0  0  0  0  0  0  0  0  0  0  0  0
   -8.8074    7.1647  -10.8519 C   0  0  0  0  0  0  0  0  0  0  0  0
   -8.3416    7.5921  -12.0425 C   0  0  0  0  0  0  0  0  0  0  0  0
   -6.8529    6.8469  -12.5046 S   0  0  0  0  0  0  0  0  0  0  0  0
   13.7284   -6.0189   13.8292 H   0  0  0  0  0  0  0  0  0  0  0  0
   13.8068   -6.2205   11.3370 H   0  0  0  0  0  0  0  0  0  0  0  0
    8.4881   -5.5817   14.5228 H   0  0  0  0  0  0  0  0  0  0  0  0
    6.5838   -5.3550   12.9125 H   0  0  0  0  0  0  0  0  0  0  0  0
    4.8195   -6.7778   13.0021 H   0  0  0  0  0  0  0  0  0  0  0  0
    3.0788   -6.2770   14.8051 H   0  0  0  0  0  0  0  0  0  0  0  0
    0.0344   -3.2354   12.6393 H   0  0  0  0  0  0  0  0  0  0  0  0
   -0.8790   -2.8400   14.1155 H   0  0  0  0  0  0  0  0  0  0  0  0
    1.0043   -1.4049   14.9085 H   0  0  0  0  0  0  0  0  0  0  0  0
    0.4280   -0.8519   13.3295 H   0  0  0  0  0  0  0  0  0  0  0  0
    1.9234   -1.7853   13.4462 H   0  0  0  0  0  0  0  0  0  0  0  0
    6.1198   -6.7077    5.6873 H   0  0  0  0  0  0  0  0  0  0  0  0
    8.0046   -6.9549    4.0138 H   0  0  0  0  0  0  0  0  0  0  0  0
   11.6855   -4.7470    6.0720 H   0  0  0  0  0  0  0  0  0  0  0  0
   12.9150   -5.2984    4.9066 H   0  0  0  0  0  0  0  0  0  0  0  0
   13.4888   -6.1663    7.1443 H   0  0  0  0  0  0  0  0  0  0  0  0
   13.0051   -7.5180    6.1097 H   0  0  0  0  0  0  0  0  0  0  0  0
   11.8903   -6.8778    7.3321 H   0  0  0  0  0  0  0  0  0  0  0  0
    5.0404   -4.9209    5.9757 H   0  0  0  0  0  0  0  0  0  0  0  0
    0.6683   -3.7304    7.2895 H   0  0  0  0  0  0  0  0  0  0  0  0
    3.3093   -3.9583    1.6206 H   0  0  0  0  0  0  0  0  0  0  0  0
   -0.9245   -2.5333    3.0103 H   0  0  0  0  0  0  0  0  0  0  0  0
    1.7812   -2.5951   -2.6324 H   0  0  0  0  0  0  0  0  0  0  0  0
   -2.3877   -0.8948   -1.2266 H   0  0  0  0  0  0  0  0  0  0  0  0
   -4.4473   -1.5171   -1.3541 H   0  0  0  0  0  0  0  0  0  0  0  0
   -6.0905   -0.8572    0.4632 H   0  0  0  0  0  0  0  0  0  0  0  0
   -7.1864    3.7337   -0.5784 H   0  0  0  0  0  0  0  0  0  0  0  0
   -8.5273    3.8471    0.5867 H   0  0  0  0  0  0  0  0  0  0  0  0
   -9.9543    2.4422   -0.9063 H   0  0  0  0  0  0  0  0  0  0  0  0
   -9.3977    3.8887   -1.7608 H   0  0  0  0  0  0  0  0  0  0  0  0
   -8.6332    2.3287   -2.0775 H   0  0  0  0  0  0  0  0  0  0  0  0
   -0.5998   -2.2581   -6.6709 H   0  0  0  0  0  0  0  0  0  0  0  0
    0.8851   -2.1062   -8.7409 H   0  0  0  0  0  0  0  0  0  0  0  0
    0.8097    2.0099  -12.0093 H   0  0  0  0  0  0  0  0  0  0  0  0
    0.0332    2.3688  -10.4477 H   0  0  0  0  0  0  0  0  0  0  0  0
   -0.8999    0.2449  -12.4583 H   0  0  0  0  0  0  0  0  0  0  0  0
   -1.6826    0.5987  -10.9123 H   0  0  0  0  0  0  0  0  0  0  0  0
   -1.6758    1.8129  -12.1991 H   0  0  0  0  0  0  0  0  0  0  0  0
   -3.3217    1.4254   -7.9189 H   0  0  0  0  0  0  0  0  0  0  0  0
   -4.3007    2.9888   -9.2754 H   0  0  0  0  0  0  0  0  0  0  0  0
   -5.4853    4.8025  -13.4672 H   0  0  0  0  0  0  0  0  0  0  0  0
   -3.1434    4.7022  -14.4806 H   0  0  0  0  0  0  0  0  0  0  0  0
   -0.1789    4.9467  -10.6393 H   0  0  0  0  0  0  0  0  0  0  0  0
    1.2631    5.1666  -11.6608 H   0  0  0  0  0  0  0  0  0  0  0  0
    0.3176    7.3166  -12.5274 H   0  0  0  0  0  0  0  0  0  0  0  0
   -1.1102    7.1052  -11.5069 H   0  0  0  0  0  0  0  0  0  0  0  0
    0.4715    7.3717  -10.7653 H   0  0  0  0  0  0  0  0  0  0  0  0
   -9.7550    3.9712   -7.3358 H   0  0  0  0  0  0  0  0  0  0  0  0
  -11.4519    5.0213   -5.7400 H   0  0  0  0  0  0  0  0  0  0  0  0
  -12.3842   10.2186   -5.4911 H   0  0  0  0  0  0  0  0  0  0  0  0
  -10.9448    9.8036   -6.4517 H   0  0  0  0  0  0  0  0  0  0  0  0
  -12.4336    8.7863   -8.2035 H   0  0  0  0  0  0  0  0  0  0  0  0
  -12.8485   10.4843   -7.9430 H   0  0  0  0  0  0  0  0  0  0  0  0
  -13.8540    9.2091   -7.2394 H   0  0  0  0  0  0  0  0  0  0  0  0
   -9.7379    7.5032  -10.4289 H   0  0  0  0  0  0  0  0  0  0  0  0
   -8.7868    8.3041  -12.7093 H   0  0  0  0  0  0  0  0  0  0  0  0
  1  2  1  0  0  0  0
  2  3  1  0  0  0  0
  3  4  2  0  0  0  0
  3  5  1  0  0  0  0
  5  6  1  0  0  0  0
  6  7  1  0  0  0  0
  7  8  2  0  0  0  0
  7  9  1  0  0  0  0
  9 10  1  0  0  0  0
 10 11  1  0  0  0  0
 11 12  2  0  0  0  0
 12 13  1  0  0  0  0
 13 14  2  0  0  0  0
 14 15  1  0  0  0  0
 15 16  2  0  0  0  0
 16 17  1  0  0  0  0
 17 18  2  0  0  0  0
 18 19  1  0  0  0  0
 19 20  1  0  0  0  0
 20 21  1  0  0  0  0
 18 22  1  0  0  0  0
 14 23  1  0  0  0  0
 23 24  2  0  0  0  0
 24 25  1  0  0  0  0
 25 26  1  0  0  0  0
 26 27  2  0  0  0  0
 27 28  1  0  0  0  0
 28 29  2  0  0  0  0
 29 30  1  0  0  0  0
 30 31  1  0  0  0  0
 31 32  1  0  0  0  0
 29 33  1  0  0  0  0
 25 34  2  0  0  0  0
 34 35  1  0  0  0  0
 24 36  1  0  0  0  0
 36 37  2  0  0  0  0
 37 38  1  0  0  0  0
 37 39  1  0  0  0  0
 39 40  1  0  0  0  0
 40 41  1  0  0  0  0
 41 42  2  0  0  0  0
 41 43  1  0  0  0  0
 43 44  1  0  0  0  0
 44 45  1  0  0  0  0
 45 46  2  0  0  0  0
 45 47  1  0  0  0  0
 47 48  1  0  0  0  0
 48 49  1  0  0  0  0
 49 50  1  0  0  0  0
 50 51  1  0  0  0  0
 51 52  2  0  0  0  0
 51 53  1  0  0  0  0
 53 54  1  0  0  0  0
 54 55  1  0  0  0  0
 55 56  2  0  0  0  0
 55 57  1  0  0  0  0
 57 58  1  0  0  0  0
 58 59  1  0  0  0  0
 59 60  2  0  0  0  0
 60 61  1  0  0  0  0
 61 62  2  0  0  0  0
 62 63  1  0  0  0  0
 63 64  2  0  0  0  0
 64 65  1  0  0  0  0
 65 66  2  0  0  0  0
 66 67  1  0  0  0  0
 67 68  1  0  0  0  0
 68 69  1  0  0  0  0
 66 70  1  0  0  0  0
 62 71  1  0  0  0  0
 71 72  2  0  0  0  0
 72 73  1  0  0  0  0
 73 74  1  0  0  0  0
 74 75  2  0  0  0  0
 75 76  1  0  0  0  0
 76 77  2  0  0  0  0
 77 78  1  0  0  0  0
 78 79  1  0  0  0  0
 79 80  1  0  0  0  0
 77 81  1  0  0  0  0
 73 82  2  0  0  0  0
 82 83  1  0  0  0  0
 72 84  1  0  0  0  0
 84 85  2  0  0  0  0
 85 86  1  0  0  0  0
 85 87  1  0  0  0  0
 87 88  2  0  0  0  0
 88 89  1  0  0  0  0
 89 90  2  0  0  0  0
 90 91  1  0  0  0  0
 91 92  2  0  0  0  0
 92 93  1  0  0  0  0
 93 94  2  0  0  0  0
 94 95  1  0  0  0  0
 95 96  1  0  0  0  0
 96 97  1  0  0  0  0
 94 98  1  0  0  0  0
 90 99  1  0  0  0  0
 99100  2  0  0  0  0
100101  1  0  0  0  0
101102  1  0  0  0  0
102103  2  0  0  0  0
103104  1  0  0  0  0
104105  2  0  0  0  0
105106  1  0  0  0  0
106107  1  0  0  0  0
107108  1  0  0  0  0
105109  1  0  0  0  0
101110  2  0  0  0  0
110111  1  0  0  0  0
100112  1  0  0  0  0
112113  2  0  0  0  0
113114  1  0  0  0  0
  6  1  2  0  0  0  0
 35 11  1  0  0  0  0
 44 39  2  0  0  0  0
 54 49  2  0  0  0  0
 83 59  1  0  0  0  0
111 87  1  0  0  0  0
 10  5  2  0  0  0  0
 34 13  1  0  0  0  0
 48 43  2  0  0  0  0
 58 53  2  0  0  0  0
 82 61  1  0  0  0  0
110 89  1  0  0  0  0
 22 15  1  0  0  0  0
 38 23  1  0  0  0  0
 70 63  1  0  0  0  0
 86 71  1  0  0  0  0
 98 91  1  0  0  0  0
114 99  1  0  0  0  0
 33 26  1  0  0  0  0
 81 74  1  0  0  0  0
109102  1  0  0  0  0
  1115  1  0  0  0  0
  2116  1  0  0  0  0
  9117  1  0  0  0  0
 12118  1  0  0  0  0
 16119  1  0  0  0  0
 17120  1  0  0  0  0
 20121  1  0  0  0  0
 20122  1  0  0  0  0
 21123  1  0  0  0  0
 21124  1  0  0  0  0
 21125  1  0  0  0  0
 27126  1  0  0  0  0
 28127  1  0  0  0  0
 31128  1  0  0  0  0
 31129  1  0  0  0  0
 32130  1  0  0  0  0
 32131  1  0  0  0  0
 32132  1  0  0  0  0
 36133  1  0  0  0  0
 40134  1  0  0  0  0
 47135  1  0  0  0  0
 50136  1  0  0  0  0
 57137  1  0  0  0  0
 60138  1  0  0  0  0
 64139  1  0  0  0  0
 65140  1  0  0  0  0
 68141  1  0  0  0  0
 68142  1  0  0  0  0
 69143  1  0  0  0  0
 69144  1  0  0  0  0
 69145  1  0  0  0  0
 75146  1  0  0  0  0
 76147  1  0  0  0  0
 79148  1  0  0  0  0
 79149  1  0  0  0  0
 80150  1  0  0  0  0
 80151  1  0  0  0  0
 80152  1  0  0  0  0
 84153  1  0  0  0  0
 88154  1  0  0  0  0
 92155  1  0  0  0  0
 93156  1  0  0  0  0
 96157  1  0  0  0  0
 96158  1  0  0  0  0
 97159  1  0  0  0  0
 97160  1  0  0  0  0
 97161  1  0  0  0  0
103162  1  0  0  0  0
104163  1  0  0  0  0
107164  1  0  0  0  0
107165  1  0  0  0  0
108166  1  0  0  0  0
108167  1  0  0  0  0
108168  1  0  0  0  0
112169  1  0  0  0  0
113170  1  0  0  0  0
M  END
