182

C          9.72280       -5.46530       14.79390
N          9.24600       -4.34950       15.40310
C          8.21000       -3.82960       14.68660
C          7.49840       -2.64510       15.07250
C          7.73530       -1.90320       16.15460
C          8.02230       -4.65700       13.56900
C          8.99500       -5.68660       13.66090
C          7.03850       -4.47420       12.54840
C          6.89750       -5.25410       11.45710
C          5.91800       -5.03930       10.44170
C          4.88990       -4.14160       10.39620
C          4.13900       -4.17350        9.19720
C          3.03580       -3.37070        8.83860
C          2.50890       -2.32330        9.68650
C          1.19880       -1.95270        9.81210
C          0.94360       -0.82020       10.61010
C          2.04910       -0.22440       11.14160
S          1.99390        1.13040       12.24600
C          3.65770        1.84930       12.00950
C          3.80890        2.50760       10.65380
Se         3.61800       -1.15700       10.67320
C          2.49540       -3.60080        7.57500
C          2.98340       -4.58180        6.67950
C          4.04590       -5.42880        7.06580
C          4.51050       -6.48850        6.20120
C          3.74890       -7.29210        5.39680
C          4.44770       -8.23840        4.62420
C          5.80550       -8.21680        4.77370
S          6.88930       -9.22720        3.84430
C          8.45130       -9.05210        4.77380
C          8.43110       -9.81820        6.08060
Se         6.33960       -6.90440        6.01820
C          4.61170       -5.16980        8.30860
S          5.97130       -6.02010        8.98690
C          2.35800       -4.49970        5.41200
C          1.41530       -3.51610        5.32680
S          1.22980       -2.65450        6.83790
C          0.66170       -3.12670        4.18030
C          0.71310       -3.65880        2.92400
C         -0.10400       -2.98510        1.98420
C         -0.23080       -3.23400        0.59950
C          0.36210       -4.39910       -0.01870
C          0.48140       -5.64690        0.53400
C          1.15060       -6.61210       -0.24290
C          1.58150       -6.16600       -1.45720
S          2.46440       -7.06000       -2.68120
C          1.56540       -8.65610       -2.68310
C          0.11420       -8.48870       -3.08340
Se         1.11460       -4.36990       -1.75000
C         -0.95000       -2.28880       -0.12460
C         -1.60170       -1.17310        0.45450
C         -1.53050       -0.96370        1.84720
C         -2.16810        0.16560        2.48680
C         -2.24870        1.45510        2.03970
C         -2.96650        2.35080        2.85520
C         -3.49170        1.80480        3.99210
S         -4.36010        2.73590        5.19170
C         -5.05910        1.42560        6.25450
C         -6.23480        0.72420        5.60520
Se        -3.05110       -0.02210        4.14250
C         -0.77630       -1.88530        2.56740
S         -0.43180       -1.76450        4.27090
C         -2.26010       -0.38260       -0.52040
C         -2.09180       -0.83320       -1.79490
S         -1.16150       -2.32000       -1.85230
C         -2.46790       -0.20880       -3.01640
C         -2.20920       -0.66240       -4.27500
C         -2.55980        0.24990       -5.29810
C         -2.35200        0.11490       -6.68630
C         -1.66870       -1.02670       -7.25740
C         -1.95770       -1.67090       -8.42810
C         -1.10250       -2.73420       -8.77840
C         -0.07380       -2.96190       -7.90940
S          1.16210       -4.17480       -8.15360
C          1.85320       -4.34480       -6.46900
C          0.90870       -5.05820       -5.52580
Se        -0.10610       -1.74450       -6.47600
C         -2.80370        1.16880       -7.47330
C         -3.41110        2.33800       -6.95440
C         -3.57640        2.48770       -5.56090
C         -4.12300        3.69530       -4.98230
C         -3.89640        4.98810       -5.36380
C         -4.59170        5.97940       -4.64360
C         -5.40750        5.51030       -3.65400
S         -6.31300        6.55210       -2.57820
C         -7.42690        5.36370       -1.75210
C         -8.55540        4.90940       -2.65530
Se        -5.32300        3.63050       -3.52860
C         -3.15720        1.41940       -4.77510
S         -3.21890        1.37370       -3.03100
C         -3.76540        3.25040       -7.97910
C         -3.41200        2.84220       -9.23130
S         -2.64480        1.26270       -9.20620
C         -3.56980        3.54510      -10.46150
N         -3.24280        3.00210      -11.67020
C         -3.46360        3.89560      -12.67410
C         -3.22210        3.51840      -14.03960
C         -3.74960        4.08180      -15.12510
C         -3.92870        5.08170      -12.08230
C         -3.99960        4.83980      -10.69550
C         -4.16840        6.33130      -12.74810
C         -4.82400        7.37630      -12.21120
C         -5.01340        8.63580      -12.86060
N         -5.69350        9.65410      -12.25510
C         -5.74020       10.75180      -13.06070
C         -6.38400       11.97670      -12.68810
C         -7.00970       12.21790      -11.53470
C         -5.05950       10.42590      -14.24410
C         -4.61120        9.09970      -14.10230
C         -4.86690       11.29690      -15.37950
C         -4.21730       10.97430      -16.49360
H         10.54200       -6.02000       15.20790
H          9.60080       -3.95650       16.25820
H          6.70250       -2.35200       14.40240
H          7.15040       -1.02660       16.36820
H          8.51100       -2.13250       16.86640
H          9.13440       -6.49360       12.97090
H          6.37150       -3.63300       12.67590
H          7.56570       -6.08760       11.29640
H          4.66050       -3.49130       11.22250
H          0.39940       -2.50660        9.34990
H         -0.04870       -0.44070       10.78210
H          3.76450        2.57160       12.81810
H          4.38250        1.04120       12.15140
H          3.06580        3.29160       10.52750
H          4.80120        2.94480       10.56350
H          3.68030        1.77710        9.85560
H          2.67250       -7.24560        5.39990
H          3.95550       -8.93490        3.96740
H          8.61330       -7.98130        4.93290
H          9.21780       -9.43440        4.10030
H          8.23990      -10.87330        5.89910
H          7.65370       -9.43160        6.74000
H          9.39050       -9.71520        6.58300
H          2.63810       -5.11180        4.57530
H          1.36190       -4.47430        2.66490
H          0.05550       -5.89170        1.49270
H          1.30760       -7.61940        0.10450
H          2.11060       -9.26230       -3.40550
H          1.66790       -9.10270       -1.69520
H         -0.40900       -7.85210       -2.37200
H          0.04210       -8.03520       -4.06900
H         -0.37640       -9.45960       -3.10730
H         -1.75400        1.78260        1.14090
H         -3.09310        3.39070        2.60800
H         -5.35880        1.94020        7.16690
H         -4.24620        0.72930        6.48380
H         -6.63430       -0.02890        6.28100
H         -7.02020        1.43860        5.37000
H         -5.92550        0.23110        4.68340
H         -2.84100        0.49300       -0.29540
H         -1.78450       -1.63760       -4.44450
H         -2.82390       -1.42510       -9.01930
H         -1.25040       -3.33560       -9.65860
H          2.77500       -4.90900       -6.60600
H          2.09790       -3.33900       -6.11410
H          1.38660       -5.17410       -4.55260
H          0.65750       -6.04250       -5.91420
H         -0.01170       -4.48920       -5.39160
H         -3.19330        5.24030       -6.14000
H         -4.48870        7.03080       -4.85010
H         -7.80570        5.89870       -0.88190
H         -6.81040        4.52320       -1.41800
H         -8.16120        4.39270       -3.53070
H         -9.20680        4.22490       -2.11630
H         -9.14060        5.76270       -2.99010
H         -4.28640        4.17130       -7.79850
H         -2.91360        2.05840      -11.79810
H         -2.56130        2.66580      -14.15740
H         -3.50030        3.72830      -16.11050
H         -4.45660        4.88970      -15.06840
H         -4.29550        5.54250       -9.94330
H         -3.75210        6.42780      -13.73950
H         -5.25940        7.28600      -11.22390
H         -6.10140        9.60130      -11.33690
H         -6.34060       12.76010      -13.43170
H         -7.09260       11.48690      -10.74760
H         -7.46690       13.17100      -11.33690
H         -4.05290        8.54210      -14.82620
H         -5.29690       12.28630      -15.29020
H         -3.76970       10.00620      -16.63640
H         -4.11010       11.67300      -17.30540
