116

C          2.66760       10.21400       -5.19470
S          2.52500        9.04200       -6.46110
C          2.08770        7.77570       -5.32430
C          2.07050        8.28620       -4.05640
C          2.39840        9.66240       -3.98880
C          2.34450       10.14380       -2.57530
C          2.36930        8.83000       -1.76930
C          1.79160        7.74140       -2.69580
C          1.80950        6.45270       -5.77130
S          1.18730        5.24890       -4.66000
C          1.13410        4.01730       -5.90930
C          1.57880        4.54120       -7.09370
C          1.95220        5.89890       -7.01510
C          2.45860        6.38980       -8.33080
C          2.75770        5.07940       -9.08280
C          1.83090        4.01160       -8.46930
C          0.70230        2.69790       -5.57000
S          0.91410        2.12130       -3.92810
C          0.21050        0.56030       -4.30620
C         -0.15800        0.52910       -5.62210
C          0.10940        1.72460       -6.32710
C         -0.43480        1.64000       -7.71790
C         -1.43030        0.46990       -7.61240
C         -0.87970       -0.44130       -6.50060
C          0.09320       -0.42430       -3.27300
S         -0.30850        0.08440       -1.64290
C         -0.20860       -1.55040       -1.03520
C          0.11630       -2.40880       -2.05430
C          0.27360       -1.78130       -3.30730
C          0.66610       -2.78680       -4.34250
C          0.28210       -4.12340       -3.67900
C          0.35110       -3.88010       -2.16040
C         -0.47300       -1.88190        0.32570
C         -0.07050       -3.01840        0.96330
C         -0.56560       -3.14660        2.28310
C         -0.36270       -4.21370        3.18380
C          0.37120       -5.40650        2.82400
C          1.10570       -6.21410        3.64780
C          1.66560       -7.36660        3.06330
C          1.38680       -7.54060        1.73940
S          1.96030       -8.89830        0.79360
C          1.91610       -8.22840       -0.91030
C          0.56180       -8.39460       -1.57010
Se         0.29270       -6.15640        1.09330
C         -0.96980       -4.07870        4.43180
C         -1.75700       -2.96200        4.80280
C         -1.93520       -1.88630        3.90730
C         -2.70610       -0.71760        4.27560
C         -2.71690       -0.08900        5.49090
C         -3.61080        0.99220        5.62430
C         -4.34720        1.26170        4.50850
S         -5.57970        2.48460        4.27930
C         -4.98790        3.83530        5.36410
C         -3.65010        4.38440        4.91220
Se        -3.91760        0.11630        3.08540
C         -1.34440       -2.02690        2.65660
S         -1.45020       -0.86300        1.36170
C         -2.35280       -3.13470        6.07740
C         -2.03060       -4.31010        6.68530
S         -0.95610       -5.27930        5.69840
C         -2.46180       -4.77780        7.96070
S         -3.56060       -3.81020        8.93130
C         -3.57830       -4.99240       10.19430
C         -2.79140       -6.04930        9.88610
C         -2.15500       -5.93160        8.62540
C         -1.30330       -7.12570        8.35150
C         -1.18250       -7.78410        9.74040
C         -2.42360       -7.34120       10.54000
H          2.94440       11.21840       -5.44460
H          1.41110       10.68790       -2.40700
H          3.17140       10.80560       -2.31870
H          1.81400        8.91050       -0.83620
H          3.40330        8.57950       -1.52700
H          0.71350        7.62770       -2.55230
H          2.25040        6.76690       -2.52720
H          1.68310        6.97120       -8.83690
H          3.33920        7.02470       -8.23490
H          2.61210        5.17950      -10.15730
H          3.79640        4.79650       -8.90640
H          2.28980        3.02360       -8.45850
H          0.89440        3.94820       -9.02840
H         -0.91500        2.56430       -8.03580
H          0.36170        1.40310       -8.42740
H         -2.40490        0.85480       -7.30880
H         -1.55110       -0.05720       -8.55780
H         -0.17430       -1.16500       -6.92000
H         -1.66490       -0.98540       -5.97660
H          0.16300       -2.64640       -5.29620
H          1.74420       -2.73070       -4.51760
H         -0.74290       -4.37630       -3.95400
H          0.92920       -4.94020       -3.99530
H          1.34380       -4.13000       -1.77320
H         -0.38310       -4.46960       -1.60620
H          0.61660       -3.70610        0.50560
H          1.30410       -5.95670        4.67400
H          2.28510       -8.05490        3.61200
H          2.20850       -7.17780       -0.84800
H          2.68400       -8.78640       -1.44580
H          0.27820       -9.44390       -1.59610
H          0.59860       -8.01350       -2.58870
H         -0.20390       -7.84160       -1.02360
H         -2.05750       -0.37730        6.29250
H         -3.70100        1.54610        6.54310
H         -4.95530        3.46050        6.38620
H         -5.77100        4.58920        5.28930
H         -3.35550        5.21360        5.55240
H         -3.71460        4.73960        3.88640
H         -2.88180        3.61530        4.96300
H         -3.03270       -2.43030        6.52040
H         -4.17070       -4.81090       11.06860
H         -1.80650       -7.78660        7.64040
H         -0.33200       -6.86610        7.93040
H         -1.10260       -8.86790        9.67370
H         -0.28580       -7.40850       10.23570
H         -3.24040       -8.05880       10.42340
H         -2.21700       -7.23600       11.60470
