206

C          8.35750       -5.29700       11.06270
S          7.48210       -6.22200        9.91500
C          7.57760       -4.92480        8.74630
C          8.29310       -3.85880        9.24880
C          8.71480       -4.07270       10.59090
C          9.40860       -3.00720       11.38960
C          9.09010       -3.09820       12.88050
C          8.98980       -1.65300       10.81340
C          9.38290       -1.58510        9.34550
C          8.62300       -2.61050        8.47980
C          9.49800       -2.91920        7.29220
C          9.45280       -2.26790        6.14580
C          6.87720       -5.10860        7.51490
C          6.17500       -6.22260        7.15250
C          5.51160       -6.11510        5.90670
C          4.69810       -7.07300        5.26710
C          4.52560       -8.41350        5.78330
C          3.38770       -9.17020        5.78440
C          3.51040      -10.47490        6.30190
C          4.76470      -10.81950        6.71390
S          5.19300      -12.40690        7.31220
C          6.71400      -12.03760        8.25570
C          6.42940      -11.25920        9.52380
Se         5.98550       -9.41050        6.44540
C          4.07390       -6.65460        4.09540
C          4.27930       -5.38650        3.50160
C          5.17260       -4.46500        4.09150
C          5.51510       -3.21830        3.45100
C          5.62770       -2.97740        2.10740
C          5.95140       -1.66000        1.73410
C          6.11270       -0.78780        2.77250
S          6.60060        0.87950        2.56870
C          6.10800        1.59670        4.17510
C          4.60460        1.72990        4.30500
Se         5.89660       -1.65560        4.43300
C          5.71450       -4.84810        5.31570
S          6.74580       -3.85470        6.30160
C          3.47730       -5.21350        2.34900
C          2.71200       -6.29680        2.02160
S          2.95790       -7.60990        3.15820
C          1.74910       -6.33740        0.96680
S          1.47630       -4.85200        0.09240
C          0.16150       -5.56110       -0.80360
C         -0.04390       -6.86690       -0.42830
C          0.88710       -7.32550        0.53820
C          0.94820       -8.75290        1.00150
C          2.22450       -9.41370        0.46590
C         -0.27430       -9.56560        0.54900
C         -1.49750       -8.68880        0.33330
C         -1.22350       -7.71000       -0.82040
C         -2.45750       -6.89660       -1.07570
C         -3.32460       -7.15410       -2.03630
C         -0.53590       -4.70650       -1.72780
S         -0.94850       -3.10590       -1.18000
C         -1.65130       -2.71570       -2.71920
C         -1.54950       -3.77090       -3.59860
C         -0.89470       -4.89520       -3.04220
C         -0.49440       -6.09010       -3.85810
C          1.02800       -6.09200       -4.04570
C         -1.23280       -6.09860       -5.19940
C         -1.22020       -4.72570       -5.85890
C         -2.03740       -3.73880       -5.01490
C         -3.50430       -4.06540       -5.13460
C         -4.32770       -4.32390       -4.13650
C         -2.20290       -1.41060       -2.92190
C         -3.23970       -1.03310       -3.72000
C         -3.52420        0.35470       -3.67300
C         -4.57330        1.04200       -4.32110
C         -5.60840        0.33890       -5.04190
C         -6.15640       -0.87930       -4.74110
C         -7.15240       -1.34860       -5.61680
C         -7.44620       -0.51560       -6.65920
S         -8.66490       -0.88280       -7.86120
C         -8.80780        0.69790       -8.76700
C         -7.74650        0.84870       -9.83880
Se        -6.39630        1.04820       -6.60070
C         -4.55700        2.42800       -4.19760
C         -3.60440        3.13520       -3.42760
C         -2.61850        2.44070       -2.69460
C         -1.68160        3.11050       -1.81900
C         -0.37690        2.77230       -1.58550
C          0.31150        3.55560       -0.63950
C         -0.42610        4.54470       -0.05560
S          0.17490        5.59170        1.20950
C         -0.96990        7.01140        1.08610
C         -0.72700        7.83940       -0.15840
Se        -2.19260        4.55150       -0.70700
C         -2.60590        1.05630       -2.85500
S         -1.50010       -0.04400       -2.07760
C         -3.79280        4.53550       -3.51950
C         -4.86340        4.90140       -4.28150
S         -5.69740        3.51380       -4.94410
C         -5.31970        6.22520       -4.54970
C         -4.78910        7.39220       -4.08430
C         -5.47970        8.54740       -4.52590
C         -5.20570        9.89310       -4.21200
C         -4.04190       10.25670       -3.43400
C         -2.78260        9.73610       -3.54140
C         -1.82270       10.24950       -2.64750
C         -2.29010       11.19390       -1.77990
S         -1.32710       11.89010       -0.49550
C         -2.21330       13.45890       -0.19700
C         -2.05030       14.43400       -1.34450
Se        -4.12730       11.53620       -2.05360
C         -6.10260       10.83470       -4.70750
C         -7.21950       10.50810       -5.50920
C         -7.49440        9.16260       -5.82230
C         -8.66170        8.77920       -6.58600
C         -9.92360        9.29700       -6.49460
C        -10.88780        8.73470       -7.35360
C        -10.42290        7.74980       -8.17770
S        -11.40670        6.96460       -9.39240
C        -10.37500        5.52280       -9.83170
C        -10.37830        4.45760       -8.75410
Se        -8.58550        7.42960       -7.89830
C         -6.59480        8.22040       -5.33160
S         -6.72400        6.49770       -5.55860
C         -7.91110       11.67890       -5.94080
C         -7.36450       12.81840       -5.47270
S         -5.96770       12.55850       -4.48510
H          8.54670       -5.72240       12.02730
H         10.49370       -3.11630       11.26040
H          8.01410       -3.09170       13.04040
H          9.52240       -2.24780       13.40330
H          9.50060       -4.00610       13.31410
H          9.48130       -0.84870       11.36400
H          7.90980       -1.52920       10.92070
H         10.45600       -1.77850        9.26420
H          9.20020       -0.58760        8.94370
H          7.68840       -2.15650        8.12810
H         10.23940       -3.69030        7.45830
H         10.12930       -2.48570        5.33740
H          8.71970       -1.49780        5.96000
H          6.10730       -7.08370        7.79640
H          2.43670       -8.77670        5.46820
H          2.67700      -11.15140        6.38080
H          7.14560      -13.01350        8.47560
H          7.38520      -11.49040        7.58640
H          5.74040      -11.80920       10.16050
H          5.98780      -10.29050        9.28920
H          7.35540      -11.08980       10.06900
H          5.51570       -3.75810        1.37440
H          6.06200       -1.35600        0.70750
H          6.52730        0.95290        4.95560
H          6.59900        2.56860        4.20830
H          4.20720        2.35200        3.50650
H          4.12820        0.75080        4.25250
H          4.35460        2.18360        5.26170
H          3.42200       -4.29200        1.79820
H          0.98980       -8.75530        2.09640
H          2.22210       -9.40080       -0.62260
H          2.27690      -10.44590        0.80360
H          3.11370       -8.89490        0.81130
H         -0.04350      -10.07260       -0.39110
H         -0.48880      -10.33510        1.29210
H         -1.72540       -8.12680        1.24160
H         -2.36470       -9.30350        0.08550
H         -0.98800       -8.30570       -1.71200
H         -2.64390       -6.10390       -0.36350
H         -4.23130       -6.58810       -2.15750
H         -3.16470       -7.94710       -2.74930
H         -0.75980       -7.00080       -3.31700
H          1.33290       -6.94960       -4.64140
H          1.52540       -6.14750       -3.08040
H          1.36080       -5.18580       -4.54570
H         -2.27130       -6.39460       -5.03290
H         -0.77120       -6.83660       -5.85830
H         -1.64710       -4.78800       -6.86170
H         -0.19550       -4.36340       -5.95320
H         -1.89480       -2.72600       -5.41750
H         -3.86820       -4.07600       -6.15490
H         -5.36750       -4.54820       -4.30670
H         -3.99870       -4.31420       -3.11070
H         -3.79140       -1.72870       -4.32170
H         -5.89070       -1.42280       -3.85050
H         -7.66350       -2.28440       -5.47020
H         -8.74940        1.49660       -8.02230
H         -9.80740        0.67920       -9.20130
H         -7.81030        0.03190      -10.55360
H         -6.75040        0.84510       -9.39450
H         -7.88300        1.79020      -10.36720
H          0.12110        1.99160       -2.13450
H          1.34790        3.39700       -0.39680
H         -1.98780        6.61020        1.11530
H         -0.78780        7.59230        1.98930
H         -0.90310        7.24460       -1.05530
H          0.29740        8.20360       -0.17830
H         -1.39940        8.69440       -0.17200
H         -3.13750        5.25840       -3.06580
H         -3.94950        7.42740       -3.41570
H         -2.52320        9.02350       -4.30650
H         -0.79350        9.93480       -2.65160
H         -1.78220       13.84950        0.72410
H         -3.26440       13.20650       -0.02500
H         -0.99750       14.64410       -1.51820
H         -2.56190       15.36550       -1.11230
H         -2.47930       14.02460       -2.25930
H        -10.18240       10.04630       -5.76510
H        -11.91810        9.04620       -7.35760
H         -9.36530        5.89750      -10.02770
H        -10.80520        5.14930      -10.76050
H         -9.95940        4.84690       -7.82600
H        -11.39220        4.11500       -8.56110
H         -9.77440        3.61110       -9.07410
H         -8.76210       11.65710       -6.59630
H         -7.68560       13.82640       -5.64780
