170

C          0.84580        3.83900       11.74430
S         -0.03120        3.39070       10.35740
C         -1.49590        4.11800       10.93250
C         -1.27250        4.69400       12.19850
C          0.07590        4.53150       12.65600
C          0.48740        5.05600       13.91320
C          1.90130        4.87440       14.36650
C         -0.44220        5.71520       14.66520
C         -1.77090        5.87750       14.22230
C         -2.18710        5.38380       13.02040
C         -2.74220        4.16230       10.25900
C         -3.21570        3.74280        9.05610
C         -2.66630        3.05460        7.93900
C         -3.37840        2.80900        6.78970
C         -2.66850        2.10710        5.79060
C         -3.10650        1.71460        4.50540
C         -4.40400        2.08140        3.97680
C         -5.22220        1.30960        3.19970
C         -6.41120        1.91710        2.74670
C         -6.56920        3.21610        3.12850
S         -7.89180        4.31610        2.80450
C         -8.61960        3.62220        1.27770
C         -7.67640        3.72270        0.09580
Se        -5.13660        3.81870        4.17640
C         -2.20550        0.96370        3.75530
C         -0.90540        0.62380        4.20350
C         -0.44700        1.06610        5.46060
C          0.89760        0.79660        5.91670
C          2.05020        0.79940        5.18050
C          3.23070        0.46770        5.87300
C          3.05940        0.17160        7.19540
S          4.36120       -0.35450        8.24080
C          3.57600       -0.27600        9.88740
C          3.42240        1.14420       10.39270
Se         1.25070        0.32540        7.70690
C         -1.36430        1.77590        6.22570
S         -1.04950        2.39530        7.81800
C         -0.21160       -0.17300        3.26450
C         -0.90920       -0.41020        2.11780
S         -2.49190        0.33980        2.14660
C         -0.45430       -1.15770        0.99720
C         -1.11140       -1.49300       -0.14820
C         -0.31650       -2.21910       -1.06750
C         -0.66860       -2.68910       -2.35060
C         -2.01180       -2.58900       -2.86960
C         -3.19170       -2.69000       -2.18090
C         -4.36830       -2.53620       -2.93600
C         -4.17050       -2.29500       -4.26740
S         -5.46860       -1.99510       -5.40270
C         -4.57340       -1.96070       -6.99380
C         -4.19460       -3.34040       -7.49080
Se        -2.33860       -2.26750       -4.69550
C          0.36680       -3.23820       -3.09590
C          1.70180       -3.38690       -2.64850
C          2.03590       -2.98200       -1.33660
C          3.35950       -3.13760       -0.77240
C          4.57930       -2.99550       -1.37460
C          5.70870       -3.20210       -0.55770
C          5.43430       -3.53760        0.73720
S          6.65710       -3.90330        1.93260
C          5.71520       -3.71910        3.48860
C          5.39670       -2.27270        3.80800
Se         3.57600       -3.63520        1.03800
C          1.00370       -2.40770       -0.59770
S          1.20110       -1.73090        0.99490
C          2.54090       -3.93330       -3.64850
C          1.90600       -4.18810       -4.83600
S          0.18410       -3.83120       -4.71630
C          2.39370       -4.43730       -6.14470
S          1.30690       -3.91600       -7.39680
C          2.53080       -3.87760       -8.60580
C          3.73450       -4.38770       -8.07640
C          3.65250       -4.75180       -6.68960
C          4.75740       -5.40410       -6.08630
C          4.68150       -6.05450       -4.73780
C          5.91820       -5.52130       -6.81190
C          6.03220       -5.05420       -8.12880
C          4.94970       -4.52010       -8.76910
C          2.28350       -3.46980       -9.93590
C          1.20610       -2.81280      -10.45700
C          0.15350       -2.11480       -9.80380
S          0.44390       -1.25750       -8.32700
C         -1.12050       -0.52610       -8.29030
C         -1.84780       -0.91370       -9.44330
C         -1.14370       -1.83270      -10.28240
C         -1.80780       -2.40340      -11.39890
C         -1.18490       -3.46390      -12.25400
C         -3.08470       -1.98210      -11.68140
C         -3.74640       -1.02620      -10.89970
C         -3.14990       -0.50980       -9.78370
C         -1.62020        0.32700       -7.28920
C         -1.28250        0.63050       -5.99160
C         -0.24820        0.24750       -5.11320
S          1.22460       -0.49280       -5.65760
C          1.99310       -0.34910       -4.12630
C          1.12800        0.22870       -3.18930
C         -0.16580        0.53400       -3.72350
C         -1.16230        1.02510       -2.83800
C         -2.60050        1.21650       -3.21620
C         -0.79790        1.30600       -1.54210
C          0.49940        1.09640       -1.05410
C          1.44780        0.52680       -1.85070
C          3.34370       -0.76720       -3.93910
C          4.06990       -1.42060       -4.85040
H          1.88220        3.57650       11.81420
H          2.59020        5.32240       13.65110
H          2.05580        5.33840       15.33710
H          2.14250        3.81450       14.44370
H         -0.16210        6.12660       15.62420
H         -2.46670        6.40700       14.85610
H         -3.20970        5.52240       12.70480
H         -3.48850        4.67140       10.85780
H         -4.25750        3.98840        8.87720
H         -4.40700        3.11180        6.68630
H         -5.00500        0.27760        2.98260
H         -7.13180        1.37890        2.15550
H         -8.91800        2.59480        1.48210
H         -9.51430        4.22430        1.12090
H         -7.40720        4.76090       -0.08490
H         -6.76550        3.15640        0.27920
H         -8.15860        3.32600       -0.79560
H          2.06800        1.09560        4.14520
H          4.19820        0.45410        5.40130
H          2.60890       -0.78230        9.80640
H          4.23250       -0.85790       10.53380
H          2.77240        1.71910        9.73220
H          2.97800        1.12960       11.38600
H          4.39130        1.63580       10.44440
H          0.76300       -0.59230        3.43700
H         -2.12460       -1.18950       -0.33720
H         -3.22350       -2.93570       -1.13280
H         -5.35220       -2.60950       -2.50540
H         -3.68920       -1.33210       -6.84800
H         -5.25760       -1.46970       -7.68500
H         -5.07930       -3.96250       -7.60460
H         -3.69620       -3.25300       -8.45430
H         -3.51210       -3.82740       -6.79350
H          4.68070       -2.66900       -2.39460
H          6.71640       -3.08580       -0.91830
H          4.80670       -4.32120        3.38660
H          6.35500       -4.16180        4.25100
H          4.76020       -1.84000        3.03550
H          4.87240       -2.21280        4.75970
H          6.31170       -1.68850        3.87390
H          3.58980       -4.08410       -3.50580
H          5.16960       -5.44500       -3.97700
H          3.65230       -6.23250       -4.44120
H          5.20530       -7.00880       -4.76760
H          6.76690       -6.01610       -6.36140
H          6.97360       -5.16110       -8.64660
H          5.01640       -4.21180       -9.80080
H          3.04350       -3.77230      -10.64560
H          1.17610       -2.75480      -11.53650
H         -0.49200       -3.02690      -12.97320
H         -0.64180       -4.18390      -11.64520
H         -1.95590       -3.98810      -12.81490
H         -3.60220       -2.40450      -12.53080
H         -4.74340       -0.71700      -11.17570
H         -3.67730        0.20450       -9.17130
H         -2.52500        0.83070       -7.61220
H         -1.96860        1.32700       -5.53470
H         -3.20980        1.26840       -2.31590
H         -2.96100        0.38740       -3.82490
H         -2.74750        2.14670       -3.76600
H         -1.54410        1.69100       -0.86140
H          0.72650        1.35670       -0.03090
H          2.43390        0.30800       -1.47130
H          3.77550       -0.52400       -2.97740
H          3.66480       -1.68120       -5.81410
H          5.09280       -1.70140       -4.67080
