
  xtb     03072222243D
 energy: -474.122661826359 gnorm: 0.000694526729 xtb: 6.4.1 (unknown)
278307  0     0  0            999 V2000
    5.7713   -8.0638    9.1007 C   0  0  0  0  0  0  0  0  0  0  0  0
    6.3776   -6.9142    8.7418 C   0  0  0  0  0  0  0  0  0  0  0  0
    6.0573   -6.5059    7.4133 C   0  0  0  0  0  0  0  0  0  0  0  0
    6.5106   -5.3711    6.7173 C   0  0  0  0  0  0  0  0  0  0  0  0
    7.3495   -4.3571    7.3262 C   0  0  0  0  0  0  0  0  0  0  0  0
    8.4545   -3.7635    6.7904 C   0  0  0  0  0  0  0  0  0  0  0  0
    9.0255   -2.7196    7.5474 C   0  0  0  0  0  0  0  0  0  0  0  0
    8.3784   -2.4277    8.7131 C   0  0  0  0  0  0  0  0  0  0  0  0
    8.9308   -1.2048    9.8398 S   0  0  0  0  0  0  0  0  0  0  0  0
    7.4985   -1.0385   10.9620 C   0  0  0  0  0  0  0  0  0  0  0  0
    6.3505   -0.2783   10.3298 C   0  0  0  0  0  0  0  0  0  0  0  0
    6.9031   -3.5709    8.9815 Se  0  0  0  0  0  2  0  0  0  0  0  0
    6.0849   -5.2404    5.3994 C   0  0  0  0  0  0  0  0  0  0  0  0
    5.2035   -6.1564    4.7789 C   0  0  0  0  0  0  0  0  0  0  0  0
    4.7165   -7.2699    5.4877 C   0  0  0  0  0  0  0  0  0  0  0  0
    3.7710   -8.1787    4.8672 C   0  0  0  0  0  0  0  0  0  0  0  0
    2.6796   -7.8218    4.1215 C   0  0  0  0  0  0  0  0  0  0  0  0
    1.9622   -8.8845    3.5395 C   0  0  0  0  0  0  0  0  0  0  0  0
    2.4602  -10.1235    3.8060 C   0  0  0  0  0  0  0  0  0  0  0  0
    1.7969  -11.6380    3.2075 S   0  0  0  0  0  0  0  0  0  0  0  0
    0.3541  -11.7983    4.3293 C   0  0  0  0  0  0  0  0  0  0  0  0
    0.7793  -12.0573    5.7594 C   0  0  0  0  0  0  0  0  0  0  0  0
    3.9805  -10.0480    4.9152 Se  0  0  0  0  0  2  0  0  0  0  0  0
    5.1876   -7.4275    6.7857 C   0  0  0  0  0  0  0  0  0  0  0  0
    4.7671   -8.7329    7.8601 S   0  0  0  0  0  0  0  0  0  0  0  0
    4.9176   -5.7864    3.4438 C   0  0  0  0  0  0  0  0  0  0  0  0
    5.5046   -4.6193    3.0557 C   0  0  0  0  0  0  0  0  0  0  0  0
    6.5001   -3.9339    4.3186 S   0  0  0  0  0  0  0  0  0  0  0  0
    5.3433   -3.9986    1.7838 C   0  0  0  0  0  0  0  0  0  0  0  0
    5.7299   -2.7708    1.3378 C   0  0  0  0  0  0  0  0  0  0  0  0
    5.3564   -2.5135   -0.0086 C   0  0  0  0  0  0  0  0  0  0  0  0
    5.5555   -1.3366   -0.7624 C   0  0  0  0  0  0  0  0  0  0  0  0
    6.0643   -0.1204   -0.1685 C   0  0  0  0  0  0  0  0  0  0  0  0
    6.9351    0.7801   -0.7160 C   0  0  0  0  0  0  0  0  0  0  0  0
    7.2075    1.9201    0.0612 C   0  0  0  0  0  0  0  0  0  0  0  0
    6.5391    1.9800    1.2520 C   0  0  0  0  0  0  0  0  0  0  0  0
    6.7314    3.2668    2.4219 S   0  0  0  0  0  0  0  0  0  0  0  0
    5.4128    2.8039    3.6027 C   0  0  0  0  0  0  0  0  0  0  0  0
    5.4135    3.7199    4.8080 C   0  0  0  0  0  0  0  0  0  0  0  0
    5.4353    0.4828    1.5010 Se  0  0  0  0  0  2  0  0  0  0  0  0
    5.1715   -1.3939   -2.1005 C   0  0  0  0  0  0  0  0  0  0  0  0
    4.5555   -2.5251   -2.6884 C   0  0  0  0  0  0  0  0  0  0  0  0
    4.2299   -3.6495   -1.9006 C   0  0  0  0  0  0  0  0  0  0  0  0
    3.3937   -4.7188   -2.3927 C   0  0  0  0  0  0  0  0  0  0  0  0
    2.3148   -4.6087   -3.2289 C   0  0  0  0  0  0  0  0  0  0  0  0
    1.6164   -5.7990   -3.5018 C   0  0  0  0  0  0  0  0  0  0  0  0
    2.1189   -6.9171   -2.8980 C   0  0  0  0  0  0  0  0  0  0  0  0
    1.4734   -8.5245   -3.1298 S   0  0  0  0  0  0  0  0  0  0  0  0
    2.2336   -9.4371   -1.7399 C   0  0  0  0  0  0  0  0  0  0  0  0
    1.6133   -9.0837   -0.4036 C   0  0  0  0  0  0  0  0  0  0  0  0
    3.6359   -6.5095   -1.8590 Se  0  0  0  0  0  2  0  0  0  0  0  0
    4.6949   -3.6198   -0.5905 C   0  0  0  0  0  0  0  0  0  0  0  0
    4.4804   -4.9086    0.5555 S   0  0  0  0  0  0  0  0  0  0  0  0
    4.2795   -2.3244   -4.0605 C   0  0  0  0  0  0  0  0  0  0  0  0
    4.5760   -1.0691   -4.5040 C   0  0  0  0  0  0  0  0  0  0  0  0
    5.2887   -0.0790   -3.2467 S   0  0  0  0  0  0  0  0  0  0  0  0
    4.1943   -0.5278   -5.7675 C   0  0  0  0  0  0  0  0  0  0  0  0
    3.9052    0.7703   -6.0690 C   0  0  0  0  0  0  0  0  0  0  0  0
    3.1697    0.9279   -7.2722 C   0  0  0  0  0  0  0  0  0  0  0  0
    2.5506    2.1203   -7.7314 C   0  0  0  0  0  0  0  0  0  0  0  0
    3.0099    3.4168   -7.3131 C   0  0  0  0  0  0  0  0  0  0  0  0
    2.3616    4.6257   -7.3600 C   0  0  0  0  0  0  0  0  0  0  0  0
    3.1094    5.7511   -6.9753 C   0  0  0  0  0  0  0  0  0  0  0  0
    4.4086    5.4996   -6.6294 C   0  0  0  0  0  0  0  0  0  0  0  0
    5.5509    6.7428   -6.1824 S   0  0  0  0  0  0  0  0  0  0  0  0
    6.8673    5.7621   -5.3775 C   0  0  0  0  0  0  0  0  0  0  0  0
    6.4536    5.2564   -4.0107 C   0  0  0  0  0  0  0  0  0  0  0  0
    4.8092    3.6711   -6.7828 Se  0  0  0  0  0  2  0  0  0  0  0  0
    1.4495    1.9032   -8.5655 C   0  0  0  0  0  0  0  0  0  0  0  0
    1.1773    0.6487   -9.1572 C   0  0  0  0  0  0  0  0  0  0  0  0
    2.0421   -0.4579   -8.9751 C   0  0  0  0  0  0  0  0  0  0  0  0
    1.9370   -1.6320   -9.7972 C   0  0  0  0  0  0  0  0  0  0  0  0
    2.3277   -2.9208   -9.5398 C   0  0  0  0  0  0  0  0  0  0  0  0
    2.1774   -3.8377  -10.5942 C   0  0  0  0  0  0  0  0  0  0  0  0
    1.6829   -3.3161  -11.7577 C   0  0  0  0  0  0  0  0  0  0  0  0
    1.4904   -4.2426  -13.2260 S   0  0  0  0  0  0  0  0  0  0  0  0
    0.3547   -3.1803  -14.1858 C   0  0  0  0  0  0  0  0  0  0  0  0
   -1.0575   -3.2113  -13.6379 C   0  0  0  0  0  0  0  0  0  0  0  0
    1.3430   -1.4747  -11.5877 Se  0  0  0  0  0  2  0  0  0  0  0  0
    2.9292   -0.3125   -7.9070 C   0  0  0  0  0  0  0  0  0  0  0  0
    3.7173   -1.6136   -7.0545 S   0  0  0  0  0  0  0  0  0  0  0  0
   -0.1379    0.5721   -9.6750 C   0  0  0  0  0  0  0  0  0  0  0  0
   -0.8846    1.6950   -9.4574 C   0  0  0  0  0  0  0  0  0  0  0  0
    0.1102    3.0006   -8.8265 S   0  0  0  0  0  0  0  0  0  0  0  0
   -2.2913    1.7073   -9.2156 C   0  0  0  0  0  0  0  0  0  0  0  0
   -3.0004    2.6703   -8.5568 C   0  0  0  0  0  0  0  0  0  0  0  0
   -4.0970    2.1581   -7.8157 C   0  0  0  0  0  0  0  0  0  0  0  0
   -4.8410    2.8207   -6.8257 C   0  0  0  0  0  0  0  0  0  0  0  0
   -4.7653    4.2713   -6.6003 C   0  0  0  0  0  0  0  0  0  0  0  0
   -3.5575    4.9208   -6.3551 C   0  0  0  0  0  0  0  0  0  0  0  0
   -3.5310    6.2767   -6.1077 C   0  0  0  0  0  0  0  0  0  0  0  0
   -4.6977    7.0390   -6.1046 C   0  0  0  0  0  0  0  0  0  0  0  0
   -4.5267    8.7772   -5.8252 S   0  0  0  0  0  0  0  0  0  0  0  0
   -5.9618    9.2056   -4.7718 C   0  0  0  0  0  0  0  0  0  0  0  0
   -5.9924    8.3920   -3.4938 C   0  0  0  0  0  0  0  0  0  0  0  0
   -5.8941    6.3783   -6.3651 C   0  0  0  0  0  0  0  0  0  0  0  0
   -7.0645    7.0518   -6.4117 F   0  0  0  0  0  0  0  0  0  0  0  0
   -5.9386    5.0169   -6.5878 C   0  0  0  0  0  0  0  0  0  0  0  0
   -5.5581    2.0158   -5.9535 C   0  0  0  0  0  0  0  0  0  0  0  0
   -5.6258    0.6093   -6.0779 C   0  0  0  0  0  0  0  0  0  0  0  0
   -5.0525   -0.0321   -7.1903 C   0  0  0  0  0  0  0  0  0  0  0  0
   -5.2288   -1.4778   -7.3731 C   0  0  0  0  0  0  0  0  0  0  0  0
   -4.1589   -2.3482   -7.5690 C   0  0  0  0  0  0  0  0  0  0  0  0
   -4.3773   -3.6976   -7.7468 C   0  0  0  0  0  0  0  0  0  0  0  0
   -5.6624   -4.2367   -7.7313 C   0  0  0  0  0  0  0  0  0  0  0  0
   -5.8057   -5.9876   -7.9339 S   0  0  0  0  0  0  0  0  0  0  0  0
   -7.3067   -6.2023   -8.9604 C   0  0  0  0  0  0  0  0  0  0  0  0
   -7.2050   -5.4601  -10.2776 C   0  0  0  0  0  0  0  0  0  0  0  0
   -6.7186   -3.3612   -7.4969 C   0  0  0  0  0  0  0  0  0  0  0  0
   -6.5158   -2.0070   -7.3287 C   0  0  0  0  0  0  0  0  0  0  0  0
   -7.9914   -3.8107   -7.4215 F   0  0  0  0  0  0  0  0  0  0  0  0
   -4.2517    0.7580   -7.9977 C   0  0  0  0  0  0  0  0  0  0  0  0
   -3.1275    0.1553   -9.1903 S   0  0  0  0  0  0  0  0  0  0  0  0
   -6.0348   -0.0098   -4.8680 C   0  0  0  0  0  0  0  0  0  0  0  0
   -6.2686    0.8711   -3.8574 C   0  0  0  0  0  0  0  0  0  0  0  0
   -6.1809    2.5436   -4.4063 S   0  0  0  0  0  0  0  0  0  0  0  0
   -6.2063    0.6075   -2.4506 C   0  0  0  0  0  0  0  0  0  0  0  0
   -6.6403    1.3530   -1.3998 C   0  0  0  0  0  0  0  0  0  0  0  0
   -6.0504    0.9900   -0.1585 C   0  0  0  0  0  0  0  0  0  0  0  0
   -6.1992    1.6534    1.0779 C   0  0  0  0  0  0  0  0  0  0  0  0
   -7.2534    2.6157    1.3062 C   0  0  0  0  0  0  0  0  0  0  0  0
   -7.2195    3.7537    2.0631 C   0  0  0  0  0  0  0  0  0  0  0  0
   -8.4320    4.4613    2.1723 C   0  0  0  0  0  0  0  0  0  0  0  0
   -9.4939    3.8999    1.5227 C   0  0  0  0  0  0  0  0  0  0  0  0
  -11.1209    4.5360    1.5957 S   0  0  0  0  0  0  0  0  0  0  0  0
  -11.8867    3.7501    0.1346 C   0  0  0  0  0  0  0  0  0  0  0  0
  -11.3774    4.3391   -1.1648 C   0  0  0  0  0  0  0  0  0  0  0  0
   -8.9989    2.3029    0.6555 Se  0  0  0  0  0  2  0  0  0  0  0  0
   -5.2634    1.3265    2.0559 C   0  0  0  0  0  0  0  0  0  0  0  0
   -4.2530    0.3504    1.8740 C   0  0  0  0  0  0  0  0  0  0  0  0
   -4.1717   -0.3914    0.6754 C   0  0  0  0  0  0  0  0  0  0  0  0
   -3.1286   -1.3574    0.4080 C   0  0  0  0  0  0  0  0  0  0  0  0
   -3.2147   -2.4693   -0.3872 C   0  0  0  0  0  0  0  0  0  0  0  0
   -2.0200   -3.1813   -0.6045 C   0  0  0  0  0  0  0  0  0  0  0  0
   -0.9097   -2.6551   -0.0054 C   0  0  0  0  0  0  0  0  0  0  0  0
    0.6778   -3.3883   -0.0817 S   0  0  0  0  0  0  0  0  0  0  0  0
    1.6935   -2.2321    0.9031 C   0  0  0  0  0  0  0  0  0  0  0  0
    2.0918   -0.9951    0.1274 C   0  0  0  0  0  0  0  0  0  0  0  0
   -1.3389   -1.1069    0.9662 Se  0  0  0  0  0  2  0  0  0  0  0  0
   -5.0963   -0.0435   -0.3094 C   0  0  0  0  0  0  0  0  0  0  0  0
   -5.0906   -0.6525   -1.9428 S   0  0  0  0  0  0  0  0  0  0  0  0
   -3.3849    0.2866    2.9892 C   0  0  0  0  0  0  0  0  0  0  0  0
   -3.6784    1.1794    3.9757 C   0  0  0  0  0  0  0  0  0  0  0  0
   -5.1213    2.1008    3.6148 S   0  0  0  0  0  0  0  0  0  0  0  0
   -2.8517    1.5099    5.0895 C   0  0  0  0  0  0  0  0  0  0  0  0
   -3.1036    2.3545    6.1264 C   0  0  0  0  0  0  0  0  0  0  0  0
   -1.9670    2.6120    6.9386 C   0  0  0  0  0  0  0  0  0  0  0  0
   -1.8823    3.4318    8.0737 C   0  0  0  0  0  0  0  0  0  0  0  0
   -3.0451    4.1772    8.5708 C   0  0  0  0  0  0  0  0  0  0  0  0
   -3.4325    4.0991    9.9071 C   0  0  0  0  0  0  0  0  0  0  0  0
   -4.5380    4.7874   10.3576 C   0  0  0  0  0  0  0  0  0  0  0  0
   -5.2894    5.5960    9.5058 C   0  0  0  0  0  0  0  0  0  0  0  0
   -6.6577    6.4591   10.2176 S   0  0  0  0  0  0  0  0  0  0  0  0
   -7.9390    6.4522    8.9093 C   0  0  0  0  0  0  0  0  0  0  0  0
   -8.2988    5.0474    8.4700 C   0  0  0  0  0  0  0  0  0  0  0  0
   -4.8648    5.6974    8.1842 C   0  0  0  0  0  0  0  0  0  0  0  0
   -5.5051    6.5019    7.3069 F   0  0  0  0  0  0  0  0  0  0  0  0
   -3.7768    4.9915    7.7125 C   0  0  0  0  0  0  0  0  0  0  0  0
   -0.6393    3.5228    8.6848 C   0  0  0  0  0  0  0  0  0  0  0  0
    0.5158    2.8610    8.2030 C   0  0  0  0  0  0  0  0  0  0  0  0
    0.4292    2.0244    7.0783 C   0  0  0  0  0  0  0  0  0  0  0  0
    1.5952    1.3069    6.5491 C   0  0  0  0  0  0  0  0  0  0  0  0
    2.4485    0.5939    7.3887 C   0  0  0  0  0  0  0  0  0  0  0  0
    3.5477   -0.0776    6.8905 C   0  0  0  0  0  0  0  0  0  0  0  0
    3.8322   -0.0683    5.5295 C   0  0  0  0  0  0  0  0  0  0  0  0
    5.2019   -0.8844    4.7787 S   0  0  0  0  0  0  0  0  0  0  0  0
    6.4422   -0.9486    6.1138 C   0  0  0  0  0  0  0  0  0  0  0  0
    6.9033    0.4231    6.5606 C   0  0  0  0  0  0  0  0  0  0  0  0
    2.9471    0.6135    4.6960 C   0  0  0  0  0  0  0  0  0  0  0  0
    1.8604    1.3038    5.1797 C   0  0  0  0  0  0  0  0  0  0  0  0
    3.1722    0.6113    3.3596 F   0  0  0  0  0  0  0  0  0  0  0  0
   -0.8184    1.9219    6.4776 C   0  0  0  0  0  0  0  0  0  0  0  0
   -1.1912    0.9424    5.0838 S   0  0  0  0  0  0  0  0  0  0  0  0
    1.6735    3.2220    8.9556 C   0  0  0  0  0  0  0  0  0  0  0  0
    1.4034    4.0841    9.9568 C   0  0  0  0  0  0  0  0  0  0  0  0
   -0.2651    4.5264   10.0623 S   0  0  0  0  0  0  0  0  0  0  0  0
    5.8474   -8.5859   10.0342 H   0  0  0  0  0  0  0  0  0  0  0  0
    7.0539   -6.3786    9.3861 H   0  0  0  0  0  0  0  0  0  0  0  0
    8.8778   -4.0881    5.8548 H   0  0  0  0  0  0  0  0  0  0  0  0
    9.9039   -2.1833    7.2326 H   0  0  0  0  0  0  0  0  0  0  0  0
    7.2008   -2.0486   11.2600 H   0  0  0  0  0  0  0  0  0  0  0  0
    7.8913   -0.5110   11.8305 H   0  0  0  0  0  0  0  0  0  0  0  0
    5.5384   -0.1737   11.0462 H   0  0  0  0  0  0  0  0  0  0  0  0
    6.6753    0.7117   10.0182 H   0  0  0  0  0  0  0  0  0  0  0  0
    5.9749   -0.8130    9.4582 H   0  0  0  0  0  0  0  0  0  0  0  0
    2.3707   -6.7959    4.0108 H   0  0  0  0  0  0  0  0  0  0  0  0
    1.0913   -8.7325    2.9243 H   0  0  0  0  0  0  0  0  0  0  0  0
   -0.2126  -12.6349    3.9229 H   0  0  0  0  0  0  0  0  0  0  0  0
   -0.2312  -10.8837    4.2387 H   0  0  0  0  0  0  0  0  0  0  0  0
    1.3699  -11.2245    6.1415 H   0  0  0  0  0  0  0  0  0  0  0  0
    1.3799  -12.9623    5.8188 H   0  0  0  0  0  0  0  0  0  0  0  0
   -0.0982  -12.1762    6.3919 H   0  0  0  0  0  0  0  0  0  0  0  0
    4.3035   -6.3692    2.7816 H   0  0  0  0  0  0  0  0  0  0  0  0
    6.2835   -2.0841    1.9567 H   0  0  0  0  0  0  0  0  0  0  0  0
    7.4170    0.6106   -1.6643 H   0  0  0  0  0  0  0  0  0  0  0  0
    7.8917    2.6909   -0.2494 H   0  0  0  0  0  0  0  0  0  0  0  0
    4.4666    2.8579    3.0603 H   0  0  0  0  0  0  0  0  0  0  0  0
    5.6052    1.7665    3.8921 H   0  0  0  0  0  0  0  0  0  0  0  0
    4.6250    3.4194    5.4964 H   0  0  0  0  0  0  0  0  0  0  0  0
    5.2379    4.7494    4.5048 H   0  0  0  0  0  0  0  0  0  0  0  0
    6.3693    3.6719    5.3251 H   0  0  0  0  0  0  0  0  0  0  0  0
    1.9708   -3.6569   -3.5970 H   0  0  0  0  0  0  0  0  0  0  0  0
    0.7387   -5.8299   -4.1240 H   0  0  0  0  0  0  0  0  0  0  0  0
    3.3062   -9.2190   -1.7602 H   0  0  0  0  0  0  0  0  0  0  0  0
    2.0775  -10.4876   -1.9826 H   0  0  0  0  0  0  0  0  0  0  0  0
    2.0687   -9.6837    0.3821 H   0  0  0  0  0  0  0  0  0  0  0  0
    1.7714   -8.0295   -0.1728 H   0  0  0  0  0  0  0  0  0  0  0  0
    0.5437   -9.2799   -0.4200 H   0  0  0  0  0  0  0  0  0  0  0  0
    3.8636   -3.0798   -4.7020 H   0  0  0  0  0  0  0  0  0  0  0  0
    4.0815    1.5616   -5.3588 H   0  0  0  0  0  0  0  0  0  0  0  0
    1.3253    4.7185   -7.6330 H   0  0  0  0  0  0  0  0  0  0  0  0
    2.6944    6.7439   -6.9492 H   0  0  0  0  0  0  0  0  0  0  0  0
    7.1204    4.9411   -6.0558 H   0  0  0  0  0  0  0  0  0  0  0  0
    7.7150    6.4430   -5.3093 H   0  0  0  0  0  0  0  0  0  0  0  0
    7.2731    4.7022   -3.5583 H   0  0  0  0  0  0  0  0  0  0  0  0
    5.5932    4.5914   -4.0892 H   0  0  0  0  0  0  0  0  0  0  0  0
    6.1904    6.0879   -3.3612 H   0  0  0  0  0  0  0  0  0  0  0  0
    2.6835   -3.2376   -8.5754 H   0  0  0  0  0  0  0  0  0  0  0  0
    2.4283   -4.8800  -10.4986 H   0  0  0  0  0  0  0  0  0  0  0  0
    0.7721   -2.1685  -14.1780 H   0  0  0  0  0  0  0  0  0  0  0  0
    0.3964   -3.5761  -15.1998 H   0  0  0  0  0  0  0  0  0  0  0  0
   -1.4419   -4.2286  -13.6374 H   0  0  0  0  0  0  0  0  0  0  0  0
   -1.7057   -2.5899  -14.2520 H   0  0  0  0  0  0  0  0  0  0  0  0
   -1.0826   -2.8305  -12.6166 H   0  0  0  0  0  0  0  0  0  0  0  0
   -0.5863   -0.3469  -10.0161 H   0  0  0  0  0  0  0  0  0  0  0  0
   -2.6714    3.6921   -8.5025 H   0  0  0  0  0  0  0  0  0  0  0  0
   -2.6401    4.3537   -6.3172 H   0  0  0  0  0  0  0  0  0  0  0  0
   -2.5959    6.7755   -5.9052 H   0  0  0  0  0  0  0  0  0  0  0  0
   -5.8060   10.2637   -4.5610 H   0  0  0  0  0  0  0  0  0  0  0  0
   -6.8749    9.0908   -5.3516 H   0  0  0  0  0  0  0  0  0  0  0  0
   -6.8087    8.7354   -2.8615 H   0  0  0  0  0  0  0  0  0  0  0  0
   -6.1454    7.3357   -3.7077 H   0  0  0  0  0  0  0  0  0  0  0  0
   -5.0572    8.5016   -2.9486 H   0  0  0  0  0  0  0  0  0  0  0  0
   -6.8938    4.5514   -6.7767 H   0  0  0  0  0  0  0  0  0  0  0  0
   -3.1491   -1.9701   -7.5660 H   0  0  0  0  0  0  0  0  0  0  0  0
   -3.5461   -4.3681   -7.9002 H   0  0  0  0  0  0  0  0  0  0  0  0
   -8.1781   -5.8973   -8.3854 H   0  0  0  0  0  0  0  0  0  0  0  0
   -7.3454   -7.2802   -9.1185 H   0  0  0  0  0  0  0  0  0  0  0  0
   -6.3113   -5.7637  -10.8190 H   0  0  0  0  0  0  0  0  0  0  0  0
   -8.0774   -5.6799  -10.8896 H   0  0  0  0  0  0  0  0  0  0  0  0
   -7.1616   -4.3846  -10.1156 H   0  0  0  0  0  0  0  0  0  0  0  0
   -7.3712   -1.3695   -7.1641 H   0  0  0  0  0  0  0  0  0  0  0  0
   -6.0400   -1.0761   -4.7246 H   0  0  0  0  0  0  0  0  0  0  0  0
   -7.2963    2.1978   -1.5285 H   0  0  0  0  0  0  0  0  0  0  0  0
   -6.3107    4.1258    2.5038 H   0  0  0  0  0  0  0  0  0  0  0  0
   -8.5209    5.3825    2.7215 H   0  0  0  0  0  0  0  0  0  0  0  0
  -12.9556    3.9210    0.2572 H   0  0  0  0  0  0  0  0  0  0  0  0
  -11.6847    2.6764    0.2012 H   0  0  0  0  0  0  0  0  0  0  0  0
  -11.8746    3.8620   -2.0066 H   0  0  0  0  0  0  0  0  0  0  0  0
  -10.3034    4.1801   -1.2637 H   0  0  0  0  0  0  0  0  0  0  0  0
  -11.5736    5.4082   -1.1999 H   0  0  0  0  0  0  0  0  0  0  0  0
   -4.1524   -2.8136   -0.7903 H   0  0  0  0  0  0  0  0  0  0  0  0
   -1.9769   -4.0784   -1.1975 H   0  0  0  0  0  0  0  0  0  0  0  0
    2.5686   -2.8121    1.1923 H   0  0  0  0  0  0  0  0  0  0  0  0
    1.1232   -1.9797    1.8023 H   0  0  0  0  0  0  0  0  0  0  0  0
    2.6137   -1.2698   -0.7866 H   0  0  0  0  0  0  0  0  0  0  0  0
    2.7518   -0.3818    0.7418 H   0  0  0  0  0  0  0  0  0  0  0  0
    1.2162   -0.4016   -0.1370 H   0  0  0  0  0  0  0  0  0  0  0  0
   -2.5533   -0.3922    3.0805 H   0  0  0  0  0  0  0  0  0  0  0  0
   -4.0740    2.7833    6.2998 H   0  0  0  0  0  0  0  0  0  0  0  0
   -2.8799    3.4708   10.5884 H   0  0  0  0  0  0  0  0  0  0  0  0
   -4.8459    4.7103   11.3885 H   0  0  0  0  0  0  0  0  0  0  0  0
   -8.7853    6.9412    9.3922 H   0  0  0  0  0  0  0  0  0  0  0  0
   -7.6022    7.0671    8.0779 H   0  0  0  0  0  0  0  0  0  0  0  0
   -9.1189    5.0867    7.7560 H   0  0  0  0  0  0  0  0  0  0  0  0
   -7.4519    4.5598    7.9906 H   0  0  0  0  0  0  0  0  0  0  0  0
   -8.6057    4.4465    9.3236 H   0  0  0  0  0  0  0  0  0  0  0  0
   -3.4862    5.1162    6.6806 H   0  0  0  0  0  0  0  0  0  0  0  0
    2.2339    0.5412    8.4452 H   0  0  0  0  0  0  0  0  0  0  0  0
    4.1786   -0.6283    7.5696 H   0  0  0  0  0  0  0  0  0  0  0  0
    7.2628   -1.5067    5.6650 H   0  0  0  0  0  0  0  0  0  0  0  0
    6.0364   -1.5424    6.9338 H   0  0  0  0  0  0  0  0  0  0  0  0
    7.6691    0.3159    7.3262 H   0  0  0  0  0  0  0  0  0  0  0  0
    6.0773    1.0035    6.9679 H   0  0  0  0  0  0  0  0  0  0  0  0
    7.3299    0.9673    5.7214 H   0  0  0  0  0  0  0  0  0  0  0  0
    1.2394    1.8478    4.4866 H   0  0  0  0  0  0  0  0  0  0  0  0
    2.6618    2.8631    8.7329 H   0  0  0  0  0  0  0  0  0  0  0  0
    2.0902    4.5074   10.6636 H   0  0  0  0  0  0  0  0  0  0  0  0
  1  2  2  0  0  0  0
  2  3  1  0  0  0  0
  3  4  2  0  0  0  0
  4  5  1  0  0  0  0
  5  6  2  0  0  0  0
  6  7  1  0  0  0  0
  7  8  2  0  0  0  0
  8  9  1  0  0  0  0
  9 10  1  0  0  0  0
 10 11  1  0  0  0  0
  8 12  1  0  0  0  0
  4 13  1  0  0  0  0
 13 14  2  0  0  0  0
 14 15  1  0  0  0  0
 15 16  1  0  0  0  0
 16 17  2  0  0  0  0
 17 18  1  0  0  0  0
 18 19  2  0  0  0  0
 19 20  1  0  0  0  0
 20 21  1  0  0  0  0
 21 22  1  0  0  0  0
 19 23  1  0  0  0  0
 15 24  2  0  0  0  0
 24 25  1  0  0  0  0
 14 26  1  0  0  0  0
 26 27  2  0  0  0  0
 27 28  1  0  0  0  0
 27 29  1  0  0  0  0
 29 30  2  0  0  0  0
 30 31  1  0  0  0  0
 31 32  2  0  0  0  0
 32 33  1  0  0  0  0
 33 34  2  0  0  0  0
 34 35  1  0  0  0  0
 35 36  2  0  0  0  0
 36 37  1  0  0  0  0
 37 38  1  0  0  0  0
 38 39  1  0  0  0  0
 36 40  1  0  0  0  0
 32 41  1  0  0  0  0
 41 42  2  0  0  0  0
 42 43  1  0  0  0  0
 43 44  1  0  0  0  0
 44 45  2  0  0  0  0
 45 46  1  0  0  0  0
 46 47  2  0  0  0  0
 47 48  1  0  0  0  0
 48 49  1  0  0  0  0
 49 50  1  0  0  0  0
 47 51  1  0  0  0  0
 43 52  2  0  0  0  0
 52 53  1  0  0  0  0
 42 54  1  0  0  0  0
 54 55  2  0  0  0  0
 55 56  1  0  0  0  0
 55 57  1  0  0  0  0
 57 58  2  0  0  0  0
 58 59  1  0  0  0  0
 59 60  2  0  0  0  0
 60 61  1  0  0  0  0
 61 62  2  0  0  0  0
 62 63  1  0  0  0  0
 63 64  2  0  0  0  0
 64 65  1  0  0  0  0
 65 66  1  0  0  0  0
 66 67  1  0  0  0  0
 64 68  1  0  0  0  0
 60 69  1  0  0  0  0
 69 70  2  0  0  0  0
 70 71  1  0  0  0  0
 71 72  1  0  0  0  0
 72 73  2  0  0  0  0
 73 74  1  0  0  0  0
 74 75  2  0  0  0  0
 75 76  1  0  0  0  0
 76 77  1  0  0  0  0
 77 78  1  0  0  0  0
 75 79  1  0  0  0  0
 71 80  2  0  0  0  0
 80 81  1  0  0  0  0
 70 82  1  0  0  0  0
 82 83  2  0  0  0  0
 83 84  1  0  0  0  0
 83 85  1  0  0  0  0
 85 86  2  0  0  0  0
 86 87  1  0  0  0  0
 87 88  2  0  0  0  0
 88 89  1  0  0  0  0
 89 90  2  0  0  0  0
 90 91  1  0  0  0  0
 91 92  2  0  0  0  0
 92 93  1  0  0  0  0
 93 94  1  0  0  0  0
 94 95  1  0  0  0  0
 92 96  1  0  0  0  0
 96 97  1  0  0  0  0
 96 98  2  0  0  0  0
 88 99  1  0  0  0  0
 99100  2  0  0  0  0
100101  1  0  0  0  0
101102  1  0  0  0  0
102103  2  0  0  0  0
103104  1  0  0  0  0
104105  2  0  0  0  0
105106  1  0  0  0  0
106107  1  0  0  0  0
107108  1  0  0  0  0
105109  1  0  0  0  0
109110  2  0  0  0  0
109111  1  0  0  0  0
101112  2  0  0  0  0
112113  1  0  0  0  0
100114  1  0  0  0  0
114115  2  0  0  0  0
115116  1  0  0  0  0
115117  1  0  0  0  0
117118  2  0  0  0  0
118119  1  0  0  0  0
119120  2  0  0  0  0
120121  1  0  0  0  0
121122  2  0  0  0  0
122123  1  0  0  0  0
123124  2  0  0  0  0
124125  1  0  0  0  0
125126  1  0  0  0  0
126127  1  0  0  0  0
124128  1  0  0  0  0
120129  1  0  0  0  0
129130  2  0  0  0  0
130131  1  0  0  0  0
131132  1  0  0  0  0
132133  2  0  0  0  0
133134  1  0  0  0  0
134135  2  0  0  0  0
135136  1  0  0  0  0
136137  1  0  0  0  0
137138  1  0  0  0  0
135139  1  0  0  0  0
131140  2  0  0  0  0
140141  1  0  0  0  0
130142  1  0  0  0  0
142143  2  0  0  0  0
143144  1  0  0  0  0
143145  1  0  0  0  0
145146  2  0  0  0  0
146147  1  0  0  0  0
147148  2  0  0  0  0
148149  1  0  0  0  0
149150  2  0  0  0  0
150151  1  0  0  0  0
151152  2  0  0  0  0
152153  1  0  0  0  0
153154  1  0  0  0  0
154155  1  0  0  0  0
152156  1  0  0  0  0
156157  1  0  0  0  0
156158  2  0  0  0  0
148159  1  0  0  0  0
159160  2  0  0  0  0
160161  1  0  0  0  0
161162  1  0  0  0  0
162163  2  0  0  0  0
163164  1  0  0  0  0
164165  2  0  0  0  0
165166  1  0  0  0  0
166167  1  0  0  0  0
167168  1  0  0  0  0
165169  1  0  0  0  0
169170  2  0  0  0  0
169171  1  0  0  0  0
161172  2  0  0  0  0
172173  1  0  0  0  0
160174  1  0  0  0  0
174175  2  0  0  0  0
175176  1  0  0  0  0
 25  1  1  0  0  0  0
 53 29  1  0  0  0  0
 81 57  1  0  0  0  0
113 85  1  0  0  0  0
141117  1  0  0  0  0
173145  1  0  0  0  0
 24  3  1  0  0  0  0
 52 31  1  0  0  0  0
 80 59  1  0  0  0  0
112 87  1  0  0  0  0
140119  1  0  0  0  0
172147  1  0  0  0  0
 12  5  1  0  0  0  0
 28 13  1  0  0  0  0
 40 33  1  0  0  0  0
 56 41  1  0  0  0  0
 68 61  1  0  0  0  0
 84 69  1  0  0  0  0
 98 89  1  0  0  0  0
116 99  1  0  0  0  0
128121  1  0  0  0  0
144129  1  0  0  0  0
158149  1  0  0  0  0
176159  1  0  0  0  0
 23 16  1  0  0  0  0
 51 44  1  0  0  0  0
 79 72  1  0  0  0  0
110102  1  0  0  0  0
139132  1  0  0  0  0
170162  1  0  0  0  0
  1177  1  0  0  0  0
  2178  1  0  0  0  0
  6179  1  0  0  0  0
  7180  1  0  0  0  0
 10181  1  0  0  0  0
 10182  1  0  0  0  0
 11183  1  0  0  0  0
 11184  1  0  0  0  0
 11185  1  0  0  0  0
 17186  1  0  0  0  0
 18187  1  0  0  0  0
 21188  1  0  0  0  0
 21189  1  0  0  0  0
 22190  1  0  0  0  0
 22191  1  0  0  0  0
 22192  1  0  0  0  0
 26193  1  0  0  0  0
 30194  1  0  0  0  0
 34195  1  0  0  0  0
 35196  1  0  0  0  0
 38197  1  0  0  0  0
 38198  1  0  0  0  0
 39199  1  0  0  0  0
 39200  1  0  0  0  0
 39201  1  0  0  0  0
 45202  1  0  0  0  0
 46203  1  0  0  0  0
 49204  1  0  0  0  0
 49205  1  0  0  0  0
 50206  1  0  0  0  0
 50207  1  0  0  0  0
 50208  1  0  0  0  0
 54209  1  0  0  0  0
 58210  1  0  0  0  0
 62211  1  0  0  0  0
 63212  1  0  0  0  0
 66213  1  0  0  0  0
 66214  1  0  0  0  0
 67215  1  0  0  0  0
 67216  1  0  0  0  0
 67217  1  0  0  0  0
 73218  1  0  0  0  0
 74219  1  0  0  0  0
 77220  1  0  0  0  0
 77221  1  0  0  0  0
 78222  1  0  0  0  0
 78223  1  0  0  0  0
 78224  1  0  0  0  0
 82225  1  0  0  0  0
 86226  1  0  0  0  0
 90227  1  0  0  0  0
 91228  1  0  0  0  0
 94229  1  0  0  0  0
 94230  1  0  0  0  0
 95231  1  0  0  0  0
 95232  1  0  0  0  0
 95233  1  0  0  0  0
 98234  1  0  0  0  0
103235  1  0  0  0  0
104236  1  0  0  0  0
107237  1  0  0  0  0
107238  1  0  0  0  0
108239  1  0  0  0  0
108240  1  0  0  0  0
108241  1  0  0  0  0
110242  1  0  0  0  0
114243  1  0  0  0  0
118244  1  0  0  0  0
122245  1  0  0  0  0
123246  1  0  0  0  0
126247  1  0  0  0  0
126248  1  0  0  0  0
127249  1  0  0  0  0
127250  1  0  0  0  0
127251  1  0  0  0  0
133252  1  0  0  0  0
134253  1  0  0  0  0
137254  1  0  0  0  0
137255  1  0  0  0  0
138256  1  0  0  0  0
138257  1  0  0  0  0
138258  1  0  0  0  0
142259  1  0  0  0  0
146260  1  0  0  0  0
150261  1  0  0  0  0
151262  1  0  0  0  0
154263  1  0  0  0  0
154264  1  0  0  0  0
155265  1  0  0  0  0
155266  1  0  0  0  0
155267  1  0  0  0  0
158268  1  0  0  0  0
163269  1  0  0  0  0
164270  1  0  0  0  0
167271  1  0  0  0  0
167272  1  0  0  0  0
168273  1  0  0  0  0
168274  1  0  0  0  0
168275  1  0  0  0  0
170276  1  0  0  0  0
174277  1  0  0  0  0
175278  1  0  0  0  0
M  END
