179

C          1.09800       -5.18700       14.24400
S          0.63190       -5.53640       12.62760
C          1.32980       -4.06440       12.00020
C          1.90510       -3.33600       13.03910
C          1.75670       -3.99820       14.30130
S          2.47350       -3.11000       15.61290
C          2.97340       -1.86480       14.47010
C          3.68030       -0.75000       14.92720
N          4.25990        0.17360       15.28730
C          2.61020       -2.11740       13.17830
C          1.23880       -3.83500       10.60400
C          1.70750       -2.76460        9.92330
C          1.63540       -2.63370        8.50940
C          2.13500       -1.60110        7.76280
C          1.98720       -1.77450        6.36780
C          2.40770       -0.91590        5.32790
C          3.13740        0.30140        5.59590
C          4.11270        0.50460        6.53410
C          4.63010        1.81030        6.62180
C          4.08670        2.70630        5.74520
S          4.59400        4.37490        5.63390
C          3.31580        5.07290        4.53110
C          1.99430        5.28330        5.24230
Se         2.80020        1.88680        4.63810
C          2.08040       -1.31540        4.03740
C          1.42110       -2.52890        3.72830
C          1.00280       -3.38800        4.76490
C          0.28150       -4.61960        4.50120
C          0.57630       -5.59420        3.58920
C         -0.27270       -6.71960        3.58880
C         -1.30200       -6.66000        4.48060
S         -2.48000       -7.87830        4.91210
C         -2.91950       -8.64540        3.30850
C         -3.94970       -7.82120        2.56260
Se        -1.29180       -5.06250        5.45420
C          1.29720       -2.97300        6.05990
S          0.91110       -3.87190        7.49940
C          1.21710       -2.68250        2.33480
C          1.68200       -1.63270        1.59870
S          2.43610       -0.40660        2.59750
C          1.57160       -1.40260        0.19770
C          1.14500       -2.24570       -0.78630
C          1.11450       -1.65010       -2.07150
C          0.75910       -2.25270       -3.29860
C          0.20770       -3.58580       -3.38740
C          0.38390       -4.50020       -4.39050
C         -0.34700       -5.69760       -4.27640
C         -1.16190       -5.77660       -3.18320
S         -2.21890       -7.12270       -2.83940
C         -2.50240       -6.89640       -1.04700
C         -1.27220       -7.21130       -0.22240
Se        -1.07250       -4.20890       -2.14740
C          0.90730       -1.45390       -4.42870
C          1.27590       -0.08620       -4.38490
C          1.63450        0.51860       -3.15940
C          2.07030        1.89010       -3.06900
C          2.74290        2.64050       -3.99970
C          3.01460        3.97440       -3.65110
C          2.56590        4.35360       -2.41570
S          2.77560        5.95580       -1.75150
C          1.66450        5.91750       -0.30160
C          2.30930        5.30230        0.92390
Se         1.75910        2.91510       -1.52040
C          1.54830       -0.30460       -2.03990
S          1.98360        0.17870       -0.42660
C          1.14470        0.52840       -5.64900
C          0.77590       -0.32920       -6.64610
S          0.56000       -1.96340       -6.06110
C          0.39580        0.03950       -7.96190
S          0.19610        1.73720       -8.32680
C         -0.75190        1.42130       -9.75160
C         -0.72390        0.06980      -10.04110
C         -0.07890       -0.69870       -9.01980
S         -0.11470       -2.39930       -9.35200
C         -1.01260       -2.07470      -10.84070
C         -1.40430       -3.13990      -11.65620
N         -1.74350       -4.00910      -12.32460
C         -1.26440       -0.75380      -11.06010
C         -1.57340        2.47060      -10.31330
C         -2.32140        3.26770       -9.53320
C         -2.39930        3.05510       -8.09490
C         -2.69600        1.89060       -7.45820
C         -2.39960        1.89290       -6.06890
C         -2.51680        0.83400       -5.14320
C         -3.04440       -0.47610       -5.46120
C         -3.78390       -1.26320       -4.61670
C         -4.12890       -2.54060       -5.08540
C         -3.66640       -2.84830       -6.33380
S         -3.91210       -4.41010       -7.07220
C         -3.42240       -4.10840       -8.80430
C         -4.43630       -3.28050       -9.56670
Se        -2.69780       -1.41380       -7.06260
C         -2.10700        1.11970       -3.84050
C         -1.65300        2.39080       -3.41560
C         -1.50110        3.43290       -4.35110
C         -0.92780        4.72040       -4.01150
C          0.02710        5.39270       -4.72040
C          0.37910        6.66760       -4.23390
C         -0.30100        7.07130       -3.12460
S          0.01360        8.55770       -2.25920
C         -1.67160        8.96450       -1.67360
C         -2.58570        9.34220       -2.81960
Se        -1.50070        5.73820       -2.53250
C         -1.88080        3.14360       -5.65790
S         -1.81860        4.27640       -6.98330
C         -1.35060        2.41160       -2.03240
C         -1.50620        1.20240       -1.41630
S         -2.04910       -0.03450       -2.53130
C         -1.32170        0.88450       -0.04520
S         -0.73850        2.04840        1.11360
C         -0.82070        0.92650        2.44440
C         -1.28170       -0.30740        1.99910
C         -1.55000       -0.31060        0.59720
S         -2.12740       -1.84000        0.02270
C         -1.97670       -2.48370        1.65630
C         -2.23220       -3.83480        1.88370
N         -2.39970       -4.95930        2.05100
C         -1.54420       -1.57440        2.57690
C         -0.42570        1.38680        3.73930
C         -0.43970        0.68880        4.87700
H          0.86350       -5.86730       15.03690
H          2.85380       -1.44350       12.37810
H          0.74870       -4.62030       10.04200
H          2.19420       -1.94970       10.43670
H          2.58090       -0.73150        8.20980
H          4.49640       -0.29920        7.14000
H          5.39660        2.08950        7.32400
H          3.73340        6.01730        4.18400
H          3.21720        4.38730        3.68300
H          2.12270        5.94730        6.09390
H          1.27080        5.72510        4.55960
H          1.59650        4.33240        5.60000
H          1.44980       -5.54740        2.96060
H         -0.09300       -7.56600        2.94820
H         -3.31340       -9.62490        3.58040
H         -2.00380       -8.77590        2.73570
H         -4.84360       -7.69720        3.17060
H         -4.22580       -8.32570        1.63800
H         -3.55340       -6.83790        2.32550
H          0.71300       -3.52880        1.90510
H          0.89510       -3.27620       -0.59670
H          1.09360       -4.34850       -5.18700
H         -0.26550       -6.50150       -4.98710
H         -2.83170       -5.86290       -0.89560
H         -3.32510       -7.56900       -0.80800
H         -1.47780       -6.99860        0.82320
H         -0.43210       -6.59080       -0.53710
H         -0.99120       -8.25600       -0.33640
H          3.09380        2.22320       -4.92840
H          3.53330        4.65380       -4.30500
H          0.76700        5.36620       -0.60140
H          1.40440        6.96170       -0.12970
H          2.57480        4.25940        0.74050
H          1.61040        5.33610        1.75730
H          3.21000        5.84890        1.19180
H          1.25360        1.58420       -5.81650
H         -1.79830       -0.38710      -11.91870
H         -1.59030        2.57880      -11.38930
H         -2.87150        4.09540       -9.95770
H         -3.09310        1.03740       -7.98570
H         -4.14280       -0.90780       -3.66590
H         -4.71610       -3.23470       -4.51010
H         -3.32100       -5.10260       -9.23890
H         -2.44070       -3.62990       -8.77350
H         -5.41330       -3.75710       -9.54050
H         -4.12160       -3.18520      -10.60420
H         -4.52510       -2.28180       -9.13600
H          0.49740        4.96760       -5.59100
H          1.12560        7.28670       -4.70000
H         -2.04290        8.09170       -1.12670
H         -1.53440        9.79260       -0.97950
H         -3.56470        9.62430       -2.44000
H         -2.16940       10.18000       -3.37400
H         -2.70840        8.50200       -3.50240
H         -1.07350        3.29680       -1.48280
H         -1.41390       -1.82960        3.61240
H         -0.08920        2.41680        3.75810
H         -0.76710       -0.33220        4.93610
H         -0.12140        1.13790        5.80200
