
  xtb     03072214503D
 energy: -220.589928509855 gnorm: 0.000332716486 xtb: 6.4.1 (unknown)
121135  0     0  0            999 V2000
    5.9922   -8.2262    6.3126 C   0  0  0  0  0  0  0  0  0  0  0  0
    6.1905   -7.9415    7.6763 C   0  0  0  0  0  0  0  0  0  0  0  0
    6.0974   -8.6903    8.7603 N   0  0  0  0  0  0  0  0  0  0  0  0
    6.4140   -7.9016    9.7842 O   0  0  0  0  0  0  0  0  0  0  0  0
    6.7110   -6.6572    9.4187 N   0  0  0  0  0  0  0  0  0  0  0  0
    6.5898   -6.6220    8.1056 C   0  0  0  0  0  0  0  0  0  0  0  0
    6.7610   -5.5636    7.1750 C   0  0  0  0  0  0  0  0  0  0  0  0
    6.5753   -5.9025    5.8556 C   0  0  0  0  0  0  0  0  0  0  0  0
    6.2022   -7.2003    5.4368 C   0  0  0  0  0  0  0  0  0  0  0  0
    7.1832   -4.2528    7.6400 C   0  0  0  0  0  0  0  0  0  0  0  0
    6.7429   -3.0599    7.2113 C   0  0  0  0  0  0  0  0  0  0  0  0
    5.6323   -2.8222    6.3293 C   0  0  0  0  0  0  0  0  0  0  0  0
    4.5229   -3.5868    6.1257 C   0  0  0  0  0  0  0  0  0  0  0  0
    3.5940   -3.0295    5.2150 C   0  0  0  0  0  0  0  0  0  0  0  0
    2.3478   -3.5721    4.8262 C   0  0  0  0  0  0  0  0  0  0  0  0
    1.9500   -4.9012    5.2254 C   0  0  0  0  0  0  0  0  0  0  0  0
    2.7520   -6.0036    5.3530 C   0  0  0  0  0  0  0  0  0  0  0  0
    2.1249   -7.1822    5.7961 C   0  0  0  0  0  0  0  0  0  0  0  0
    0.7848   -7.0674    6.0393 C   0  0  0  0  0  0  0  0  0  0  0  0
   -0.2221   -8.4116    6.5239 S   0  0  0  0  0  0  0  0  0  0  0  0
   -1.7795   -7.5712    6.9762 C   0  0  0  0  0  0  0  0  0  0  0  0
   -1.6820   -6.8533    8.3069 C   0  0  0  0  0  0  0  0  0  0  0  0
    0.1666   -5.3269    5.6614 Se  0  0  0  0  0  2  0  0  0  0  0  0
    1.5525   -2.7522    4.0352 C   0  0  0  0  0  0  0  0  0  0  0  0
    1.9630   -1.4795    3.5706 C   0  0  0  0  0  0  0  0  0  0  0  0
    3.2250   -0.9487    3.9242 C   0  0  0  0  0  0  0  0  0  0  0  0
    3.6518    0.3676    3.5128 C   0  0  0  0  0  0  0  0  0  0  0  0
    4.9363    0.7904    3.2801 C   0  0  0  0  0  0  0  0  0  0  0  0
    5.0993    2.1483    2.9616 C   0  0  0  0  0  0  0  0  0  0  0  0
    3.9439    2.8823    2.9499 C   0  0  0  0  0  0  0  0  0  0  0  0
    3.8582    4.5840    2.5781 S   0  0  0  0  0  0  0  0  0  0  0  0
    2.0421    4.8250    2.5862 C   0  0  0  0  0  0  0  0  0  0  0  0
    1.6984    6.2526    2.2173 C   0  0  0  0  0  0  0  0  0  0  0  0
    2.4519    1.8198    3.3542 Se  0  0  0  0  0  2  0  0  0  0  0  0
    4.0088   -1.7595    4.7459 C   0  0  0  0  0  0  0  0  0  0  0  0
    5.5614   -1.3307    5.4145 S   0  0  0  0  0  0  0  0  0  0  0  0
    0.9840   -0.8889    2.7428 C   0  0  0  0  0  0  0  0  0  0  0  0
   -0.1547   -1.6285    2.6037 C   0  0  0  0  0  0  0  0  0  0  0  0
   -0.0445   -3.1535    3.4613 S   0  0  0  0  0  0  0  0  0  0  0  0
   -1.3191   -1.2533    1.8655 C   0  0  0  0  0  0  0  0  0  0  0  0
   -1.4326    0.0483    1.2998 C   0  0  0  0  0  0  0  0  0  0  0  0
   -0.6291    1.0932    1.3422 N   0  0  0  0  0  0  0  0  0  0  0  0
   -1.2377    2.0622    0.6571 O   0  0  0  0  0  0  0  0  0  0  0  0
   -2.4148    1.6862    0.1653 N   0  0  0  0  0  0  0  0  0  0  0  0
   -2.5954    0.4344    0.5341 C   0  0  0  0  0  0  0  0  0  0  0  0
   -3.6717   -0.4722    0.3111 C   0  0  0  0  0  0  0  0  0  0  0  0
   -3.5248   -1.7126    0.9135 C   0  0  0  0  0  0  0  0  0  0  0  0
   -2.4026   -2.0879    1.6577 C   0  0  0  0  0  0  0  0  0  0  0  0
   -4.8150   -0.1591   -0.4912 C   0  0  0  0  0  0  0  0  0  0  0  0
   -4.9631    0.9859   -1.1916 C   0  0  0  0  0  0  0  0  0  0  0  0
   -6.0606    1.3000   -2.0597 C   0  0  0  0  0  0  0  0  0  0  0  0
   -5.9472    2.4336   -2.9126 C   0  0  0  0  0  0  0  0  0  0  0  0
   -5.0058    3.3495   -3.0102 N   0  0  0  0  0  0  0  0  0  0  0  0
   -5.3955    4.1872   -3.9670 O   0  0  0  0  0  0  0  0  0  0  0  0
   -6.5664    3.8479   -4.5124 N   0  0  0  0  0  0  0  0  0  0  0  0
   -6.9569    2.7521   -3.8901 C   0  0  0  0  0  0  0  0  0  0  0  0
   -8.1209    1.9510   -4.0307 C   0  0  0  0  0  0  0  0  0  0  0  0
   -8.2420    0.9262   -3.1162 C   0  0  0  0  0  0  0  0  0  0  0  0
   -7.2463    0.5984   -2.1829 C   0  0  0  0  0  0  0  0  0  0  0  0
   -9.1133    2.2159   -5.0516 C   0  0  0  0  0  0  0  0  0  0  0  0
   -8.8501    2.6327   -6.2996 C   0  0  0  0  0  0  0  0  0  0  0  0
   -7.5358    2.7289   -6.9004 C   0  0  0  0  0  0  0  0  0  0  0  0
   -6.5012    1.7962   -6.6214 C   0  0  0  0  0  0  0  0  0  0  0  0
   -6.4792    0.7075   -5.8763 N   0  0  0  0  0  0  0  0  0  0  0  0
   -5.2475    0.2047   -5.9879 O   0  0  0  0  0  0  0  0  0  0  0  0
   -4.4623    0.9257   -6.7820 N   0  0  0  0  0  0  0  0  0  0  0  0
   -5.1940    1.9324   -7.2137 C   0  0  0  0  0  0  0  0  0  0  0  0
   -4.8759    3.0008   -8.0983 C   0  0  0  0  0  0  0  0  0  0  0  0
   -5.9315    3.8483   -8.3816 C   0  0  0  0  0  0  0  0  0  0  0  0
   -7.2092    3.7046   -7.8187 C   0  0  0  0  0  0  0  0  0  0  0  0
   -3.5357    3.0996   -8.6036 C   0  0  0  0  0  0  0  0  0  0  0  0
   -3.0535    4.1049   -9.3637 C   0  0  0  0  0  0  0  0  0  0  0  0
   -1.7039    4.1893   -9.8394 C   0  0  0  0  0  0  0  0  0  0  0  0
   -0.7127    3.1979   -9.5888 C   0  0  0  0  0  0  0  0  0  0  0  0
   -0.7513    2.0520   -8.9382 N   0  0  0  0  0  0  0  0  0  0  0  0
    0.4701    1.5292   -9.0222 O   0  0  0  0  0  0  0  0  0  0  0  0
    1.3166    2.2915   -9.7076 N   0  0  0  0  0  0  0  0  0  0  0  0
    0.6325    3.3526  -10.0893 C   0  0  0  0  0  0  0  0  0  0  0  0
    1.0350    4.4849  -10.8463 C   0  0  0  0  0  0  0  0  0  0  0  0
    0.0413    5.4161  -11.0686 C   0  0  0  0  0  0  0  0  0  0  0  0
   -1.2673    5.2709  -10.5862 C   0  0  0  0  0  0  0  0  0  0  0  0
    2.4048    4.5697  -11.3083 C   0  0  0  0  0  0  0  0  0  0  0  0
    2.9372    5.5720  -12.0029 C   0  0  0  0  0  0  0  0  0  0  0  0
    5.7005   -9.2142    5.9989 H   0  0  0  0  0  0  0  0  0  0  0  0
    6.7249   -5.1457    5.0997 H   0  0  0  0  0  0  0  0  0  0  0  0
    6.0827   -7.3731    4.3770 H   0  0  0  0  0  0  0  0  0  0  0  0
    7.9306   -4.2788    8.4218 H   0  0  0  0  0  0  0  0  0  0  0  0
    7.2297   -2.1667    7.5811 H   0  0  0  0  0  0  0  0  0  0  0  0
    4.3452   -4.4986    6.6641 H   0  0  0  0  0  0  0  0  0  0  0  0
    3.7966   -5.9859    5.0911 H   0  0  0  0  0  0  0  0  0  0  0  0
    2.6564   -8.1080    5.9342 H   0  0  0  0  0  0  0  0  0  0  0  0
   -2.0231   -6.8833    6.1601 H   0  0  0  0  0  0  0  0  0  0  0  0
   -2.5229   -8.3670    7.0088 H   0  0  0  0  0  0  0  0  0  0  0  0
   -0.9190   -6.0754    8.2687 H   0  0  0  0  0  0  0  0  0  0  0  0
   -1.4241   -7.5532    9.0981 H   0  0  0  0  0  0  0  0  0  0  0  0
   -2.6358   -6.3874    8.5453 H   0  0  0  0  0  0  0  0  0  0  0  0
    5.7738    0.1138    3.2840 H   0  0  0  0  0  0  0  0  0  0  0  0
    6.0570    2.5845    2.7368 H   0  0  0  0  0  0  0  0  0  0  0  0
    1.6187    4.1166    1.8681 H   0  0  0  0  0  0  0  0  0  0  0  0
    1.6882    4.5775    3.5915 H   0  0  0  0  0  0  0  0  0  0  0  0
    0.6186    6.3818    2.2216 H   0  0  0  0  0  0  0  0  0  0  0  0
    2.1381    6.9479    2.9287 H   0  0  0  0  0  0  0  0  0  0  0  0
    2.0740    6.4892    1.2247 H   0  0  0  0  0  0  0  0  0  0  0  0
    1.0972    0.0426    2.2186 H   0  0  0  0  0  0  0  0  0  0  0  0
   -4.3148   -2.4392    0.7898 H   0  0  0  0  0  0  0  0  0  0  0  0
   -2.3712   -3.0815    2.0813 H   0  0  0  0  0  0  0  0  0  0  0  0
   -5.5655   -0.9368   -0.5438 H   0  0  0  0  0  0  0  0  0  0  0  0
   -4.1819    1.7317   -1.1515 H   0  0  0  0  0  0  0  0  0  0  0  0
   -9.1256    0.3058   -3.1551 H   0  0  0  0  0  0  0  0  0  0  0  0
   -7.4215   -0.2530   -1.5435 H   0  0  0  0  0  0  0  0  0  0  0  0
  -10.1432    2.0674   -4.7534 H   0  0  0  0  0  0  0  0  0  0  0  0
   -9.6745    2.9131   -6.9428 H   0  0  0  0  0  0  0  0  0  0  0  0
   -5.7781    4.6704   -9.0637 H   0  0  0  0  0  0  0  0  0  0  0  0
   -7.9662    4.4263   -8.0901 H   0  0  0  0  0  0  0  0  0  0  0  0
   -2.8758    2.2926   -8.3175 H   0  0  0  0  0  0  0  0  0  0  0  0
   -3.6887    4.9339   -9.6471 H   0  0  0  0  0  0  0  0  0  0  0  0
    0.2690    6.3034  -11.6390 H   0  0  0  0  0  0  0  0  0  0  0  0
   -1.9758    6.0560  -10.8102 H   0  0  0  0  0  0  0  0  0  0  0  0
    3.0120    3.7170  -11.0361 H   0  0  0  0  0  0  0  0  0  0  0  0
    2.3753    6.4432  -12.2942 H   0  0  0  0  0  0  0  0  0  0  0  0
    3.9696    5.5525  -12.3052 H   0  0  0  0  0  0  0  0  0  0  0  0
  1  2  1  0  0  0  0
  2  3  2  0  0  0  0
  3  4  1  0  0  0  0
  4  5  1  0  0  0  0
  5  6  2  0  0  0  0
  6  7  1  0  0  0  0
  7  8  2  0  0  0  0
  8  9  1  0  0  0  0
  7 10  1  0  0  0  0
 10 11  2  0  0  0  0
 11 12  1  0  0  0  0
 12 13  2  0  0  0  0
 13 14  1  0  0  0  0
 14 15  2  0  0  0  0
 15 16  1  0  0  0  0
 16 17  2  0  0  0  0
 17 18  1  0  0  0  0
 18 19  2  0  0  0  0
 19 20  1  0  0  0  0
 20 21  1  0  0  0  0
 21 22  1  0  0  0  0
 19 23  1  0  0  0  0
 15 24  1  0  0  0  0
 24 25  2  0  0  0  0
 25 26  1  0  0  0  0
 26 27  1  0  0  0  0
 27 28  2  0  0  0  0
 28 29  1  0  0  0  0
 29 30  2  0  0  0  0
 30 31  1  0  0  0  0
 31 32  1  0  0  0  0
 32 33  1  0  0  0  0
 30 34  1  0  0  0  0
 26 35  2  0  0  0  0
 35 36  1  0  0  0  0
 25 37  1  0  0  0  0
 37 38  2  0  0  0  0
 38 39  1  0  0  0  0
 38 40  1  0  0  0  0
 40 41  1  0  0  0  0
 41 42  2  0  0  0  0
 42 43  1  0  0  0  0
 43 44  1  0  0  0  0
 44 45  2  0  0  0  0
 45 46  1  0  0  0  0
 46 47  2  0  0  0  0
 47 48  1  0  0  0  0
 46 49  1  0  0  0  0
 49 50  2  0  0  0  0
 50 51  1  0  0  0  0
 51 52  1  0  0  0  0
 52 53  2  0  0  0  0
 53 54  1  0  0  0  0
 54 55  1  0  0  0  0
 55 56  2  0  0  0  0
 56 57  1  0  0  0  0
 57 58  2  0  0  0  0
 58 59  1  0  0  0  0
 57 60  1  0  0  0  0
 60 61  2  0  0  0  0
 61 62  1  0  0  0  0
 62 63  1  0  0  0  0
 63 64  2  0  0  0  0
 64 65  1  0  0  0  0
 65 66  1  0  0  0  0
 66 67  2  0  0  0  0
 67 68  1  0  0  0  0
 68 69  2  0  0  0  0
 69 70  1  0  0  0  0
 68 71  1  0  0  0  0
 71 72  2  0  0  0  0
 72 73  1  0  0  0  0
 73 74  1  0  0  0  0
 74 75  2  0  0  0  0
 75 76  1  0  0  0  0
 76 77  1  0  0  0  0
 77 78  2  0  0  0  0
 78 79  1  0  0  0  0
 79 80  2  0  0  0  0
 80 81  1  0  0  0  0
 79 82  1  0  0  0  0
 82 83  2  0  0  0  0
  9  1  2  0  0  0  0
 36 12  1  0  0  0  0
 48 40  2  0  0  0  0
 59 51  2  0  0  0  0
 70 62  2  0  0  0  0
 81 73  2  0  0  0  0
  6  2  1  0  0  0  0
 35 14  1  0  0  0  0
 45 41  1  0  0  0  0
 56 52  1  0  0  0  0
 67 63  1  0  0  0  0
 78 74  1  0  0  0  0
 23 16  1  0  0  0  0
 39 24  1  0  0  0  0
 34 27  1  0  0  0  0
  1 84  1  0  0  0  0
  8 85  1  0  0  0  0
  9 86  1  0  0  0  0
 10 87  1  0  0  0  0
 11 88  1  0  0  0  0
 13 89  1  0  0  0  0
 17 90  1  0  0  0  0
 18 91  1  0  0  0  0
 21 92  1  0  0  0  0
 21 93  1  0  0  0  0
 22 94  1  0  0  0  0
 22 95  1  0  0  0  0
 22 96  1  0  0  0  0
 28 97  1  0  0  0  0
 29 98  1  0  0  0  0
 32 99  1  0  0  0  0
 32100  1  0  0  0  0
 33101  1  0  0  0  0
 33102  1  0  0  0  0
 33103  1  0  0  0  0
 37104  1  0  0  0  0
 47105  1  0  0  0  0
 48106  1  0  0  0  0
 49107  1  0  0  0  0
 50108  1  0  0  0  0
 58109  1  0  0  0  0
 59110  1  0  0  0  0
 60111  1  0  0  0  0
 61112  1  0  0  0  0
 69113  1  0  0  0  0
 70114  1  0  0  0  0
 71115  1  0  0  0  0
 72116  1  0  0  0  0
 80117  1  0  0  0  0
 81118  1  0  0  0  0
 82119  1  0  0  0  0
 83120  1  0  0  0  0
 83121  1  0  0  0  0
M  END
