215

C          3.53220      -14.19880       12.17400
S          2.32000      -13.17800       11.53400
C          3.24800      -12.78300       10.12110
C          4.47280      -13.44860       10.17070
C          4.63070      -14.25550       11.34820
N          5.77040      -14.95480       11.55710
C          6.69890      -14.87060       10.64520
C          7.93410      -15.68130       10.89340
C          7.78860      -17.08210       10.27200
O          8.90310      -17.89780       10.52050
C          6.53510      -14.06700        9.46290
C          7.62990      -13.93660        8.43970
N          7.12230      -13.43650        7.17870
N          5.45010      -13.36940        9.24860
C          2.81440      -11.90790        9.09780
C          1.64920      -11.22120        9.10440
C          1.24200      -10.31630        8.08450
C          1.83940      -10.02550        6.88860
C          1.17420       -9.02800        6.14030
C          1.56470       -8.47530        4.90150
C          2.80170       -8.83380        4.24410
C          4.02550       -9.05950        4.81260
C          5.08120       -9.33770        3.92250
C          4.73420       -9.35700        2.60120
S          5.84480       -9.72140        1.30110
C          4.93570       -9.08010       -0.15020
C          4.91060       -7.56620       -0.19930
Se         2.89610       -9.01330        2.37000
C          0.70910       -7.52000        4.36540
C         -0.46560       -7.06210        5.00730
C         -0.84810       -7.59550        6.25630
C         -2.02780       -7.14900        6.96950
C         -2.86060       -7.92390        7.72740
C         -3.91600       -7.26070        8.38750
C         -3.94970       -5.91220        8.19200
S         -5.07760       -4.72760        8.80890
C         -6.11800       -5.73320        9.93110
C         -7.11270       -4.82830       10.63100
Se        -2.56650       -5.33080        7.06950
C         -0.00900       -8.57740        6.78060
S         -0.21950       -9.37500        8.31550
C         -1.11460       -6.05720        4.24960
C         -0.46550       -5.73230        3.09690
S          0.98500       -6.68030        2.86330
C         -0.79840       -4.70680        2.16980
C         -0.24740       -4.46230        0.94860
C         -0.74590       -3.29260        0.32330
C         -0.36110       -2.73650       -0.91370
C          0.68570       -3.31300       -1.73190
C          0.71130       -3.40290       -3.09550
C          1.88990       -3.92890       -3.66180
C          2.86440       -4.25740       -2.76690
S          4.38150       -5.01990       -3.18760
C          5.48760       -4.26830       -1.93900
C          5.68200       -2.78560       -2.17720
Se         2.30290       -3.94990       -0.99330
C         -1.02700       -1.57400       -1.29440
C         -2.01070       -0.93570       -0.49890
C         -2.36460       -1.47010        0.75720
C         -3.27000       -0.79820        1.66280
C         -3.36580        0.54410        1.91280
C         -4.26660        0.92230        2.92780
C         -4.93400       -0.10960        3.52270
S         -6.11720        0.07120        4.79600
C         -5.98680       -1.55770        5.62170
C         -4.66040       -1.74350        6.32810
Se        -4.46720       -1.76480        2.75060
C         -1.73480       -2.65900        1.11190
S         -1.99500       -3.50940        2.60940
C         -2.51350        0.23350       -1.11860
C         -1.92130        0.52070       -2.31230
S         -0.72100       -0.67520       -2.75740
C         -2.16210        1.64300       -3.15460
C         -1.56020        1.94420       -4.34030
C         -2.00350        3.16250       -4.90880
C         -1.52110        3.79730       -6.07110
C         -0.49040        3.21960       -6.91240
C         -0.40040        1.92830       -7.35570
C          0.69050        1.65190       -8.20200
C          1.50340        2.71610       -8.44990
S          2.90440        2.69570       -9.50920
C          2.14170        3.39620      -11.02870
C          1.98280        4.90060      -10.96960
Se         0.95340        4.25720       -7.52800
C         -2.04500        5.05140       -6.34480
C         -2.99960        5.71180       -5.53370
C         -3.46260        5.08800       -4.35320
C         -4.29840        5.78090       -3.39950
C         -5.27080        5.24830       -2.60040
C         -5.86190        6.13490       -1.67800
C         -5.37520        7.40860       -1.71310
S         -5.81950        8.78860       -0.73370
C         -7.45510        8.31160       -0.07310
C         -8.51770        8.26460       -1.15360
Se        -4.04150        7.61290       -3.00080
C         -2.96580        3.81140       -4.09690
S         -3.32540        2.86350       -2.67660
C         -3.30520        7.00460       -6.02570
C         -2.57720        7.35470       -7.12890
S         -1.55290        6.04170       -7.68770
C         -2.36470        8.63680       -7.69000
S         -1.11050        8.78450       -8.87650
C         -0.89890       10.47640       -8.60900
C         -1.91860       10.94770       -7.78940
C         -2.73050        9.90210       -7.22600
N         -3.66840       10.18520       -6.30070
C         -3.81160       11.43730       -5.94930
C         -4.87140       11.77910       -4.93710
C         -5.26990       10.59850       -4.05060
O         -4.27450       10.28780       -3.09800
C         -3.02460       12.48280       -6.53930
C         -3.21210       13.93470       -6.16930
N         -2.39010       14.86060       -6.91760
N         -2.10660       12.23300       -7.43450
C          0.27470       11.14850       -9.07350
C          1.50190       10.58170       -9.07880
C          1.85570        9.32610       -8.47850
S          3.07950        8.32500       -9.18990
C          2.96150        7.08660       -7.98690
C          1.99440        7.44480       -7.04920
C          1.41000        8.72940       -7.29760
N          0.54960        9.27020       -6.40810
C          0.24360        8.57430       -5.34810
C         -0.67140        9.20010       -4.34020
C         -0.67310       10.72730       -4.41140
O         -1.61690       11.30150       -3.54420
C          0.72230        7.22720       -5.17550
C          0.23150        6.38820       -4.03150
N          0.86870        5.09010       -3.98400
N          1.56800        6.68960       -6.01260
C          3.81670        5.93980       -8.03280
C          3.93790        5.05070       -7.04200
H          3.38170      -14.69890       13.10860
H          8.05870      -15.80110       11.97050
H          8.81670      -15.18500       10.48430
H          6.93940      -17.59320       10.73000
H          7.60130      -16.99660        9.19120
H          9.68800      -17.48770       10.13960
H          8.08910      -14.91410        8.25590
H          8.40690      -13.28710        8.88780
H          7.84680      -12.96360        6.65250
H          6.36350      -12.78770        7.35820
H          3.51240      -11.80660        8.27880
H          0.97750      -11.33080        9.94620
H          2.71720      -10.53350        6.53610
H          4.19220       -8.95320        5.87160
H          6.09300       -9.50120        4.25110
H          5.46240       -9.49460       -1.00910
H          3.92660       -9.50220       -0.10980
H          5.92410       -7.17140       -0.19680
H          4.37510       -7.15960        0.65960
H          4.40700       -7.23840       -1.10690
H         -2.75530       -8.99370        7.78770
H         -4.62950       -7.79580        8.98900
H         -6.62580       -6.48350        9.32470
H         -5.45150       -6.21650       10.64550
H         -7.75290       -4.33220        9.90520
H         -7.73500       -5.41560       11.30270
H         -6.59370       -4.06790       11.21000
H         -2.04500       -5.58870        4.52420
H          0.47850       -5.12870        0.51320
H         -0.12710       -3.11220       -3.70530
H          2.02260       -4.05220       -4.72260
H          5.04820       -4.46770       -0.95680
H          6.42470       -4.81550       -2.03240
H          6.36790       -2.37880       -1.43710
H          4.73260       -2.25710       -2.09560
H          6.09070       -2.60970       -3.16960
H         -2.72900        1.26480        1.42780
H         -4.39580        1.94440        3.23950
H         -6.14800       -2.32030        4.85330
H         -6.81810       -1.57670        6.32520
H         -4.50860       -0.95980        7.06610
H         -4.64450       -2.70790        6.83480
H         -3.83510       -1.71710        5.61600
H         -3.30280        0.83780       -0.70950
H         -0.79700        1.32420       -4.77510
H         -1.14900        1.18810       -7.12520
H          0.86080        0.68340       -8.64110
H          1.18360        2.89320      -11.15740
H          2.81640        3.09980      -11.83080
H          2.95350        5.38660      -10.91610
H          1.40010        5.19520      -10.09400
H          1.46280        5.25360      -11.85810
H         -5.60560        4.22830       -2.68840
H         -6.63630        5.81010       -1.00430
H         -7.67590        9.08450        0.66300
H         -7.34690        7.35810        0.44200
H         -8.25900        7.53540       -1.91870
H         -9.47530        7.98690       -0.71800
H         -8.61930        9.23870       -1.62690
H         -4.01500        7.68530       -5.58880
H         -4.51880       12.60010       -4.30870
H         -5.75690       12.12860       -5.47580
H         -6.22070       10.81160       -3.54900
H         -5.38230        9.70120       -4.66390
H         -4.26280       10.95470       -2.40130
H         -4.26270       14.21250       -6.31290
H         -2.97350       14.05770       -5.10660
H         -1.41210       14.63000       -6.77170
H         -2.56720       14.74420       -7.91080
H          0.15530       12.17160       -9.40190
H          2.31590       11.11340       -9.55500
H         -0.39360        8.88750       -3.33180
H         -1.69350        8.83600       -4.52130
H          0.30190       11.11800       -4.10820
H         -0.84840       11.04110       -5.44690
H         -2.44390       10.79590       -3.61180
H          0.46390        6.90720       -3.09140
H         -0.87160        6.34380       -4.10260
H          0.28540        4.41630       -3.50300
H          1.05040        4.75580       -4.92630
H          4.40640        5.83520       -8.93460
H          4.59750        4.20590       -7.13830
H          3.40360        5.17020       -6.11420
