173

C          9.57500       -0.23860       12.76420
C         10.11800       -0.97690       11.77590
C          9.20530       -1.24860       10.71400
C          9.45880       -1.94780        9.51840
C         10.77360       -2.43350        9.15230
C         11.07830       -3.61250        8.53390
C         12.43360       -3.80660        8.20070
C         13.26260       -2.76890        8.51500
S         14.96380       -2.73370        8.10490
C         15.57230       -1.35420        9.13630
C         15.66120       -1.72620       10.60230
Se        12.31520       -1.35980        9.32960
C          8.37450       -2.10550        8.66110
C          7.09400       -1.56720        8.92420
C          6.85400       -0.80790       10.08760
C          5.60480       -0.11460       10.31220
C          4.99140        0.14700       11.50740
C          3.84640        0.96400       11.45800
C          3.51140        1.41780       10.21280
S          2.15300        2.46450        9.87680
C          2.35250        2.71050        8.07410
C          1.38140        3.76130        7.57990
Se         4.68490        0.75250        8.90420
C          7.92800       -0.69940       10.97130
S          7.91850        0.16770       12.48540
C          6.18350       -1.86080        7.88390
C          6.72340       -2.54410        6.83150
S          8.41520       -2.90530        7.10980
C          6.01860       -2.84480        5.62800
S          4.48840       -2.03860        5.42050
C          4.28440       -2.73610        3.83990
C          5.34550       -3.55650        3.51210
C          6.32600       -3.62640        4.53310
C          7.55890       -4.46320        4.44320
C          5.43460       -4.26650        2.20270
C          3.10930       -2.37310        3.12260
C          2.14890       -1.52020        3.59100
C          1.07930       -1.29320        2.69790
C         -0.04710       -0.46150        2.88490
C         -0.33200        0.18230        4.14720
C         -0.97890        1.37000        4.35930
C         -1.22160        1.72130        5.70010
C         -0.78900        0.81440        6.62700
S         -0.96590        1.04210        8.35430
C          0.02120       -0.32960        9.04690
C         -0.75620       -1.62840        9.10830
Se         0.02800       -0.66090        5.79980
C         -0.89330       -0.33610        1.78410
C         -0.69420       -1.01780        0.55840
C          0.41330       -1.87590        0.39060
C          0.64580       -2.59180       -0.84660
C          0.47910       -2.12830       -2.12160
C          0.71100       -3.05600       -3.15840
C          1.07460       -4.30070       -2.73750
S          1.41150       -5.73490       -3.68280
C          1.94860       -5.03410       -5.28500
C          3.24820       -4.26420       -5.16490
Se         1.19430       -4.40520       -0.86760
C          1.26600       -1.98960        1.48160
S          2.72810       -2.93880        1.50880
C         -1.72740       -0.74670       -0.37000
C         -2.67910        0.11780        0.08600
S         -2.35060        0.62020        1.73180
C         -3.74930        0.67010       -0.68070
S         -3.66090        0.52440       -2.41610
C         -5.09200        1.49420       -2.60630
C         -5.62070        1.85790       -1.39280
C         -4.85380        1.39540       -0.29230
C         -5.20710        1.67800        1.12960
C         -6.90040        2.61500       -1.24710
C         -5.52460        1.85980       -3.93140
S         -5.80890        0.63860       -5.13510
C         -6.16810        1.85260       -6.33480
C         -6.07080        3.12290       -5.80950
C         -5.69310        3.12330       -4.44290
C         -5.42490        4.37090       -3.66510
C         -6.32840        4.37380       -6.58230
C         -6.47800        1.42250       -7.66010
C         -6.77100        0.15150       -8.05900
C         -7.00550        0.01910       -9.45070
C         -7.34780       -1.14230      -10.17370
C         -7.38090       -2.44120       -9.54250
C         -6.52210       -2.92870       -8.59570
C         -6.78910       -4.22840       -8.12500
C         -7.89010       -4.82590       -8.66980
S         -8.47390       -6.40040       -8.18020
C         -9.69630       -6.77140       -9.48590
C         -9.04280       -7.14910      -10.79980
Se        -8.72700       -3.70320       -9.93170
C         -7.65650       -0.95450      -11.51960
C         -7.56730        0.28960      -12.18220
C         -7.12360        1.43040      -11.48380
C         -6.90610        2.69330      -12.15150
C         -6.41080        2.88930      -13.41170
C         -6.31420        4.22590      -13.84310
C         -6.73330        5.15750      -12.93650
S         -6.63860        6.88170      -13.21970
C         -7.55490        7.55250      -11.78960
C         -9.05420        7.39160      -11.93820
Se        -7.29550        4.34530      -11.33080
C         -6.89860        1.25920      -10.12040
S         -6.45740        2.53180       -9.01890
C         -8.00370        0.19360      -13.53730
C         -8.36380       -1.05610      -13.88930
S         -8.19460       -2.20690      -12.60790
H         10.03930        0.09510       13.67140
H         11.13010       -1.34380       11.80380
H         10.33720       -4.37330        8.35580
H         12.79630       -4.70570        7.73350
H         16.55370       -1.11660        8.72710
H         14.90040       -0.50580        8.97260
H         16.04630       -0.88460       11.17410
H         14.67690       -1.98650       10.99200
H         16.32380       -2.57770       10.73840
H          5.33890       -0.27540       12.43480
H          3.28010        1.22700       12.33450
H          3.38910        3.01640        7.90430
H          2.17690        1.74550        7.58880
H          1.58700        4.71990        8.05030
H          0.36010        3.47120        7.81450
H          1.47530        3.86930        6.50160
H          5.13610       -1.61090        7.91050
H          8.35730       -3.91530        3.94210
H          7.91010       -4.73650        5.43460
H          7.36310       -5.37620        3.88620
H          6.37160       -4.80580        2.11090
H          4.61000       -4.97080        2.09200
H          5.36700       -3.55260        1.38240
H          2.25680       -1.03340        4.54600
H         -1.24570        2.03050        3.55240
H         -1.70880        2.63900        5.98120
H          0.30340        0.01300       10.04230
H          0.92160       -0.42700        8.43280
H         -0.13640       -2.40680        9.54820
H         -1.05300       -1.94860        8.10870
H         -1.65180       -1.50730        9.71320
H          0.22270       -1.10350       -2.33300
H          0.59540       -2.78740       -4.19430
H          1.13820       -4.41930       -5.67420
H          2.06550       -5.90880       -5.92430
H          3.54760       -3.88960       -6.14180
H          3.13470       -3.41970       -4.48800
H          4.03500       -4.90970       -4.78150
H         -1.78430       -1.19210       -1.34600
H         -6.25230        1.96000        1.21550
H         -5.02590        0.80580        1.75430
H         -4.59730        2.49510        1.51660
H         -6.73060        3.57820       -0.76730
H         -7.35360        2.78020       -2.22020
H         -7.60030        2.04880       -0.63310
H         -4.76440        5.02660       -4.23030
H         -6.34930        4.91090       -3.46040
H         -4.94810        4.12960       -2.71940
H         -5.50680        4.57480       -7.27070
H         -6.43370        5.22120       -5.91170
H         -7.23870        4.28190       -7.17280
H         -6.85720       -0.66110       -7.36030
H         -5.65620       -2.37640       -8.27080
H         -6.17180       -4.72210       -7.39450
H        -10.33490       -5.88840       -9.58950
H        -10.28640       -7.59500       -9.08520
H         -8.44380       -6.32270      -11.18290
H         -9.80760       -7.38860      -11.53560
H         -8.39730       -8.01430      -10.66800
H         -6.06900        2.07200      -14.02430
H         -5.93330        4.49990      -14.81190
H         -7.27130        8.60370      -11.74840
H         -7.17820        7.04190      -10.89760
H         -9.55950        7.83130      -11.08100
H         -9.32290        6.33630      -11.99300
H         -9.40080        7.88530      -12.84300
H         -8.07670        1.03760      -14.19820
H         -8.73200       -1.39690      -14.83690
