
  xtb     03082210213D
 energy: -315.383425720462 gnorm: 0.004391351222 xtb: 6.4.1 (unknown)
179199  0     0  0            999 V2000
    1.0980   -5.1870   14.2440 C   0  0  0  0  0  0  0  0  0  0  0  0
    0.6319   -5.5364   12.6276 S   0  0  0  0  0  0  0  0  0  0  0  0
    1.3298   -4.0644   12.0002 C   0  0  0  0  0  0  0  0  0  0  0  0
    1.9051   -3.3360   13.0391 C   0  0  0  0  0  0  0  0  0  0  0  0
    1.7567   -3.9982   14.3013 C   0  0  0  0  0  0  0  0  0  0  0  0
    2.4735   -3.1100   15.6129 S   0  0  0  0  0  0  0  0  0  0  0  0
    2.9734   -1.8648   14.4701 C   0  0  0  0  0  0  0  0  0  0  0  0
    3.6803   -0.7500   14.9272 C   0  0  0  0  0  0  0  0  0  0  0  0
    4.2599    0.1736   15.2873 N   0  0  0  0  0  0  0  0  0  0  0  0
    2.6102   -2.1174   13.1783 C   0  0  0  0  0  0  0  0  0  0  0  0
    1.2388   -3.8350   10.6040 C   0  0  0  0  0  0  0  0  0  0  0  0
    1.7075   -2.7646    9.9233 C   0  0  0  0  0  0  0  0  0  0  0  0
    1.6354   -2.6337    8.5094 C   0  0  0  0  0  0  0  0  0  0  0  0
    2.1350   -1.6011    7.7628 C   0  0  0  0  0  0  0  0  0  0  0  0
    1.9872   -1.7745    6.3678 C   0  0  0  0  0  0  0  0  0  0  0  0
    2.4077   -0.9159    5.3279 C   0  0  0  0  0  0  0  0  0  0  0  0
    3.1374    0.3014    5.5959 C   0  0  0  0  0  0  0  0  0  0  0  0
    4.1127    0.5046    6.5341 C   0  0  0  0  0  0  0  0  0  0  0  0
    4.6301    1.8103    6.6218 C   0  0  0  0  0  0  0  0  0  0  0  0
    4.0867    2.7063    5.7452 C   0  0  0  0  0  0  0  0  0  0  0  0
    4.5940    4.3749    5.6339 S   0  0  0  0  0  0  0  0  0  0  0  0
    3.3158    5.0729    4.5311 C   0  0  0  0  0  0  0  0  0  0  0  0
    1.9943    5.2833    5.2423 C   0  0  0  0  0  0  0  0  0  0  0  0
    2.8002    1.8868    4.6381 Se  0  0  0  0  0  2  0  0  0  0  0  0
    2.0804   -1.3154    4.0374 C   0  0  0  0  0  0  0  0  0  0  0  0
    1.4211   -2.5289    3.7283 C   0  0  0  0  0  0  0  0  0  0  0  0
    1.0028   -3.3880    4.7649 C   0  0  0  0  0  0  0  0  0  0  0  0
    0.2815   -4.6196    4.5012 C   0  0  0  0  0  0  0  0  0  0  0  0
    0.5763   -5.5942    3.5892 C   0  0  0  0  0  0  0  0  0  0  0  0
   -0.2727   -6.7196    3.5888 C   0  0  0  0  0  0  0  0  0  0  0  0
   -1.3020   -6.6600    4.4806 C   0  0  0  0  0  0  0  0  0  0  0  0
   -2.4800   -7.8783    4.9121 S   0  0  0  0  0  0  0  0  0  0  0  0
   -2.9195   -8.6454    3.3085 C   0  0  0  0  0  0  0  0  0  0  0  0
   -3.9497   -7.8212    2.5626 C   0  0  0  0  0  0  0  0  0  0  0  0
   -1.2918   -5.0625    5.4542 Se  0  0  0  0  0  2  0  0  0  0  0  0
    1.2972   -2.9730    6.0599 C   0  0  0  0  0  0  0  0  0  0  0  0
    0.9111   -3.8719    7.4994 S   0  0  0  0  0  0  0  0  0  0  0  0
    1.2171   -2.6825    2.3348 C   0  0  0  0  0  0  0  0  0  0  0  0
    1.6820   -1.6327    1.5987 C   0  0  0  0  0  0  0  0  0  0  0  0
    2.4361   -0.4066    2.5975 S   0  0  0  0  0  0  0  0  0  0  0  0
    1.5716   -1.4026    0.1977 C   0  0  0  0  0  0  0  0  0  0  0  0
    1.1450   -2.2457   -0.7863 C   0  0  0  0  0  0  0  0  0  0  0  0
    1.1145   -1.6501   -2.0715 C   0  0  0  0  0  0  0  0  0  0  0  0
    0.7591   -2.2527   -3.2986 C   0  0  0  0  0  0  0  0  0  0  0  0
    0.2077   -3.5858   -3.3874 C   0  0  0  0  0  0  0  0  0  0  0  0
    0.3839   -4.5002   -4.3905 C   0  0  0  0  0  0  0  0  0  0  0  0
   -0.3470   -5.6976   -4.2764 C   0  0  0  0  0  0  0  0  0  0  0  0
   -1.1619   -5.7766   -3.1832 C   0  0  0  0  0  0  0  0  0  0  0  0
   -2.2189   -7.1227   -2.8394 S   0  0  0  0  0  0  0  0  0  0  0  0
   -2.5024   -6.8964   -1.0470 C   0  0  0  0  0  0  0  0  0  0  0  0
   -1.2722   -7.2113   -0.2224 C   0  0  0  0  0  0  0  0  0  0  0  0
   -1.0725   -4.2089   -2.1474 Se  0  0  0  0  0  2  0  0  0  0  0  0
    0.9073   -1.4539   -4.4287 C   0  0  0  0  0  0  0  0  0  0  0  0
    1.2759   -0.0862   -4.3849 C   0  0  0  0  0  0  0  0  0  0  0  0
    1.6345    0.5186   -3.1594 C   0  0  0  0  0  0  0  0  0  0  0  0
    2.0703    1.8901   -3.0690 C   0  0  0  0  0  0  0  0  0  0  0  0
    2.7429    2.6405   -3.9997 C   0  0  0  0  0  0  0  0  0  0  0  0
    3.0146    3.9744   -3.6511 C   0  0  0  0  0  0  0  0  0  0  0  0
    2.5659    4.3536   -2.4157 C   0  0  0  0  0  0  0  0  0  0  0  0
    2.7756    5.9558   -1.7515 S   0  0  0  0  0  0  0  0  0  0  0  0
    1.6645    5.9175   -0.3016 C   0  0  0  0  0  0  0  0  0  0  0  0
    2.3093    5.3023    0.9239 C   0  0  0  0  0  0  0  0  0  0  0  0
    1.7591    2.9151   -1.5204 Se  0  0  0  0  0  2  0  0  0  0  0  0
    1.5483   -0.3046   -2.0399 C   0  0  0  0  0  0  0  0  0  0  0  0
    1.9836    0.1787   -0.4266 S   0  0  0  0  0  0  0  0  0  0  0  0
    1.1447    0.5284   -5.6490 C   0  0  0  0  0  0  0  0  0  0  0  0
    0.7759   -0.3292   -6.6461 C   0  0  0  0  0  0  0  0  0  0  0  0
    0.5600   -1.9634   -6.0611 S   0  0  0  0  0  0  0  0  0  0  0  0
    0.3958    0.0395   -7.9619 C   0  0  0  0  0  0  0  0  0  0  0  0
    0.1961    1.7372   -8.3268 S   0  0  0  0  0  0  0  0  0  0  0  0
   -0.7519    1.4213   -9.7516 C   0  0  0  0  0  0  0  0  0  0  0  0
   -0.7239    0.0698  -10.0411 C   0  0  0  0  0  0  0  0  0  0  0  0
   -0.0789   -0.6987   -9.0198 C   0  0  0  0  0  0  0  0  0  0  0  0
   -0.1147   -2.3993   -9.3520 S   0  0  0  0  0  0  0  0  0  0  0  0
   -1.0126   -2.0747  -10.8407 C   0  0  0  0  0  0  0  0  0  0  0  0
   -1.4043   -3.1399  -11.6562 C   0  0  0  0  0  0  0  0  0  0  0  0
   -1.7435   -4.0091  -12.3246 N   0  0  0  0  0  0  0  0  0  0  0  0
   -1.2644   -0.7538  -11.0601 C   0  0  0  0  0  0  0  0  0  0  0  0
   -1.5734    2.4706  -10.3133 C   0  0  0  0  0  0  0  0  0  0  0  0
   -2.3214    3.2677   -9.5332 C   0  0  0  0  0  0  0  0  0  0  0  0
   -2.3993    3.0551   -8.0949 C   0  0  0  0  0  0  0  0  0  0  0  0
   -2.6960    1.8906   -7.4582 C   0  0  0  0  0  0  0  0  0  0  0  0
   -2.3996    1.8929   -6.0689 C   0  0  0  0  0  0  0  0  0  0  0  0
   -2.5168    0.8340   -5.1432 C   0  0  0  0  0  0  0  0  0  0  0  0
   -3.0444   -0.4761   -5.4612 C   0  0  0  0  0  0  0  0  0  0  0  0
   -3.7839   -1.2632   -4.6167 C   0  0  0  0  0  0  0  0  0  0  0  0
   -4.1289   -2.5406   -5.0854 C   0  0  0  0  0  0  0  0  0  0  0  0
   -3.6664   -2.8483   -6.3338 C   0  0  0  0  0  0  0  0  0  0  0  0
   -3.9121   -4.4101   -7.0722 S   0  0  0  0  0  0  0  0  0  0  0  0
   -3.4224   -4.1084   -8.8043 C   0  0  0  0  0  0  0  0  0  0  0  0
   -4.4363   -3.2805   -9.5667 C   0  0  0  0  0  0  0  0  0  0  0  0
   -2.6978   -1.4138   -7.0626 Se  0  0  0  0  0  2  0  0  0  0  0  0
   -2.1070    1.1197   -3.8405 C   0  0  0  0  0  0  0  0  0  0  0  0
   -1.6530    2.3908   -3.4156 C   0  0  0  0  0  0  0  0  0  0  0  0
   -1.5011    3.4329   -4.3511 C   0  0  0  0  0  0  0  0  0  0  0  0
   -0.9278    4.7204   -4.0115 C   0  0  0  0  0  0  0  0  0  0  0  0
    0.0271    5.3927   -4.7204 C   0  0  0  0  0  0  0  0  0  0  0  0
    0.3791    6.6676   -4.2339 C   0  0  0  0  0  0  0  0  0  0  0  0
   -0.3010    7.0713   -3.1246 C   0  0  0  0  0  0  0  0  0  0  0  0
    0.0136    8.5577   -2.2592 S   0  0  0  0  0  0  0  0  0  0  0  0
   -1.6716    8.9645   -1.6736 C   0  0  0  0  0  0  0  0  0  0  0  0
   -2.5857    9.3422   -2.8196 C   0  0  0  0  0  0  0  0  0  0  0  0
   -1.5007    5.7382   -2.5325 Se  0  0  0  0  0  2  0  0  0  0  0  0
   -1.8808    3.1436   -5.6579 C   0  0  0  0  0  0  0  0  0  0  0  0
   -1.8186    4.2764   -6.9833 S   0  0  0  0  0  0  0  0  0  0  0  0
   -1.3506    2.4116   -2.0324 C   0  0  0  0  0  0  0  0  0  0  0  0
   -1.5062    1.2024   -1.4163 C   0  0  0  0  0  0  0  0  0  0  0  0
   -2.0491   -0.0345   -2.5313 S   0  0  0  0  0  0  0  0  0  0  0  0
   -1.3217    0.8845   -0.0452 C   0  0  0  0  0  0  0  0  0  0  0  0
   -0.7385    2.0484    1.1136 S   0  0  0  0  0  0  0  0  0  0  0  0
   -0.8207    0.9265    2.4444 C   0  0  0  0  0  0  0  0  0  0  0  0
   -1.2817   -0.3074    1.9991 C   0  0  0  0  0  0  0  0  0  0  0  0
   -1.5500   -0.3106    0.5972 C   0  0  0  0  0  0  0  0  0  0  0  0
   -2.1274   -1.8400    0.0227 S   0  0  0  0  0  0  0  0  0  0  0  0
   -1.9767   -2.4837    1.6563 C   0  0  0  0  0  0  0  0  0  0  0  0
   -2.2322   -3.8348    1.8837 C   0  0  0  0  0  0  0  0  0  0  0  0
   -2.3997   -4.9593    2.0510 N   0  0  0  0  0  0  0  0  0  0  0  0
   -1.5442   -1.5744    2.5769 C   0  0  0  0  0  0  0  0  0  0  0  0
   -0.4257    1.3868    3.7393 C   0  0  0  0  0  0  0  0  0  0  0  0
   -0.4397    0.6888    4.8770 C   0  0  0  0  0  0  0  0  0  0  0  0
    0.8635   -5.8673   15.0369 H   0  0  0  0  0  0  0  0  0  0  0  0
    2.8538   -1.4435   12.3781 H   0  0  0  0  0  0  0  0  0  0  0  0
    0.7487   -4.6203   10.0420 H   0  0  0  0  0  0  0  0  0  0  0  0
    2.1942   -1.9497   10.4367 H   0  0  0  0  0  0  0  0  0  0  0  0
    2.5809   -0.7315    8.2098 H   0  0  0  0  0  0  0  0  0  0  0  0
    4.4964   -0.2992    7.1400 H   0  0  0  0  0  0  0  0  0  0  0  0
    5.3966    2.0895    7.3240 H   0  0  0  0  0  0  0  0  0  0  0  0
    3.7334    6.0173    4.1840 H   0  0  0  0  0  0  0  0  0  0  0  0
    3.2172    4.3873    3.6830 H   0  0  0  0  0  0  0  0  0  0  0  0
    2.1227    5.9473    6.0939 H   0  0  0  0  0  0  0  0  0  0  0  0
    1.2708    5.7251    4.5596 H   0  0  0  0  0  0  0  0  0  0  0  0
    1.5965    4.3324    5.6000 H   0  0  0  0  0  0  0  0  0  0  0  0
    1.4498   -5.5474    2.9606 H   0  0  0  0  0  0  0  0  0  0  0  0
   -0.0930   -7.5660    2.9482 H   0  0  0  0  0  0  0  0  0  0  0  0
   -3.3134   -9.6249    3.5804 H   0  0  0  0  0  0  0  0  0  0  0  0
   -2.0038   -8.7759    2.7357 H   0  0  0  0  0  0  0  0  0  0  0  0
   -4.8436   -7.6972    3.1706 H   0  0  0  0  0  0  0  0  0  0  0  0
   -4.2258   -8.3257    1.6380 H   0  0  0  0  0  0  0  0  0  0  0  0
   -3.5534   -6.8379    2.3255 H   0  0  0  0  0  0  0  0  0  0  0  0
    0.7130   -3.5288    1.9051 H   0  0  0  0  0  0  0  0  0  0  0  0
    0.8951   -3.2762   -0.5967 H   0  0  0  0  0  0  0  0  0  0  0  0
    1.0936   -4.3485   -5.1870 H   0  0  0  0  0  0  0  0  0  0  0  0
   -0.2655   -6.5015   -4.9871 H   0  0  0  0  0  0  0  0  0  0  0  0
   -2.8317   -5.8629   -0.8956 H   0  0  0  0  0  0  0  0  0  0  0  0
   -3.3251   -7.5690   -0.8080 H   0  0  0  0  0  0  0  0  0  0  0  0
   -1.4778   -6.9986    0.8232 H   0  0  0  0  0  0  0  0  0  0  0  0
   -0.4321   -6.5908   -0.5371 H   0  0  0  0  0  0  0  0  0  0  0  0
   -0.9912   -8.2560   -0.3364 H   0  0  0  0  0  0  0  0  0  0  0  0
    3.0938    2.2232   -4.9284 H   0  0  0  0  0  0  0  0  0  0  0  0
    3.5333    4.6538   -4.3050 H   0  0  0  0  0  0  0  0  0  0  0  0
    0.7670    5.3662   -0.6014 H   0  0  0  0  0  0  0  0  0  0  0  0
    1.4044    6.9617   -0.1297 H   0  0  0  0  0  0  0  0  0  0  0  0
    2.5748    4.2594    0.7405 H   0  0  0  0  0  0  0  0  0  0  0  0
    1.6104    5.3361    1.7573 H   0  0  0  0  0  0  0  0  0  0  0  0
    3.2100    5.8489    1.1918 H   0  0  0  0  0  0  0  0  0  0  0  0
    1.2536    1.5842   -5.8165 H   0  0  0  0  0  0  0  0  0  0  0  0
   -1.7983   -0.3871  -11.9187 H   0  0  0  0  0  0  0  0  0  0  0  0
   -1.5903    2.5788  -11.3893 H   0  0  0  0  0  0  0  0  0  0  0  0
   -2.8715    4.0954   -9.9577 H   0  0  0  0  0  0  0  0  0  0  0  0
   -3.0931    1.0374   -7.9857 H   0  0  0  0  0  0  0  0  0  0  0  0
   -4.1428   -0.9078   -3.6659 H   0  0  0  0  0  0  0  0  0  0  0  0
   -4.7161   -3.2347   -4.5101 H   0  0  0  0  0  0  0  0  0  0  0  0
   -3.3210   -5.1026   -9.2389 H   0  0  0  0  0  0  0  0  0  0  0  0
   -2.4407   -3.6299   -8.7735 H   0  0  0  0  0  0  0  0  0  0  0  0
   -5.4133   -3.7571   -9.5405 H   0  0  0  0  0  0  0  0  0  0  0  0
   -4.1216   -3.1852  -10.6042 H   0  0  0  0  0  0  0  0  0  0  0  0
   -4.5251   -2.2818   -9.1360 H   0  0  0  0  0  0  0  0  0  0  0  0
    0.4974    4.9676   -5.5910 H   0  0  0  0  0  0  0  0  0  0  0  0
    1.1256    7.2867   -4.7000 H   0  0  0  0  0  0  0  0  0  0  0  0
   -2.0429    8.0917   -1.1267 H   0  0  0  0  0  0  0  0  0  0  0  0
   -1.5344    9.7926   -0.9795 H   0  0  0  0  0  0  0  0  0  0  0  0
   -3.5647    9.6243   -2.4400 H   0  0  0  0  0  0  0  0  0  0  0  0
   -2.1694   10.1800   -3.3740 H   0  0  0  0  0  0  0  0  0  0  0  0
   -2.7084    8.5020   -3.5024 H   0  0  0  0  0  0  0  0  0  0  0  0
   -1.0735    3.2968   -1.4828 H   0  0  0  0  0  0  0  0  0  0  0  0
   -1.4139   -1.8296    3.6124 H   0  0  0  0  0  0  0  0  0  0  0  0
   -0.0892    2.4168    3.7581 H   0  0  0  0  0  0  0  0  0  0  0  0
   -0.7671   -0.3322    4.9361 H   0  0  0  0  0  0  0  0  0  0  0  0
   -0.1214    1.1379    5.8020 H   0  0  0  0  0  0  0  0  0  0  0  0
  1  2  1  0  0  0  0
  2  3  1  0  0  0  0
  3  4  2  0  0  0  0
  4  5  1  0  0  0  0
  5  6  1  0  0  0  0
  6  7  1  0  0  0  0
  7  8  1  0  0  0  0
  8  9  3  0  0  0  0
  7 10  2  0  0  0  0
  3 11  1  0  0  0  0
 11 12  2  0  0  0  0
 12 13  1  0  0  0  0
 13 14  2  0  0  0  0
 14 15  1  0  0  0  0
 15 16  2  0  0  0  0
 16 17  1  0  0  0  0
 17 18  2  0  0  0  0
 18 19  1  0  0  0  0
 19 20  2  0  0  0  0
 20 21  1  0  0  0  0
 21 22  1  0  0  0  0
 22 23  1  0  0  0  0
 20 24  1  0  0  0  0
 16 25  1  0  0  0  0
 25 26  2  0  0  0  0
 26 27  1  0  0  0  0
 27 28  1  0  0  0  0
 28 29  2  0  0  0  0
 29 30  1  0  0  0  0
 30 31  2  0  0  0  0
 31 32  1  0  0  0  0
 32 33  1  0  0  0  0
 33 34  1  0  0  0  0
 31 35  1  0  0  0  0
 27 36  2  0  0  0  0
 36 37  1  0  0  0  0
 26 38  1  0  0  0  0
 38 39  2  0  0  0  0
 39 40  1  0  0  0  0
 39 41  1  0  0  0  0
 41 42  2  0  0  0  0
 42 43  1  0  0  0  0
 43 44  2  0  0  0  0
 44 45  1  0  0  0  0
 45 46  2  0  0  0  0
 46 47  1  0  0  0  0
 47 48  2  0  0  0  0
 48 49  1  0  0  0  0
 49 50  1  0  0  0  0
 50 51  1  0  0  0  0
 48 52  1  0  0  0  0
 44 53  1  0  0  0  0
 53 54  2  0  0  0  0
 54 55  1  0  0  0  0
 55 56  1  0  0  0  0
 56 57  2  0  0  0  0
 57 58  1  0  0  0  0
 58 59  2  0  0  0  0
 59 60  1  0  0  0  0
 60 61  1  0  0  0  0
 61 62  1  0  0  0  0
 59 63  1  0  0  0  0
 55 64  2  0  0  0  0
 64 65  1  0  0  0  0
 54 66  1  0  0  0  0
 66 67  2  0  0  0  0
 67 68  1  0  0  0  0
 67 69  1  0  0  0  0
 69 70  1  0  0  0  0
 70 71  1  0  0  0  0
 71 72  2  0  0  0  0
 72 73  1  0  0  0  0
 73 74  1  0  0  0  0
 74 75  1  0  0  0  0
 75 76  1  0  0  0  0
 76 77  3  0  0  0  0
 75 78  2  0  0  0  0
 71 79  1  0  0  0  0
 79 80  2  0  0  0  0
 80 81  1  0  0  0  0
 81 82  2  0  0  0  0
 82 83  1  0  0  0  0
 83 84  2  0  0  0  0
 84 85  1  0  0  0  0
 85 86  2  0  0  0  0
 86 87  1  0  0  0  0
 87 88  2  0  0  0  0
 88 89  1  0  0  0  0
 89 90  1  0  0  0  0
 90 91  1  0  0  0  0
 88 92  1  0  0  0  0
 84 93  1  0  0  0  0
 93 94  2  0  0  0  0
 94 95  1  0  0  0  0
 95 96  1  0  0  0  0
 96 97  2  0  0  0  0
 97 98  1  0  0  0  0
 98 99  2  0  0  0  0
 99100  1  0  0  0  0
100101  1  0  0  0  0
101102  1  0  0  0  0
 99103  1  0  0  0  0
 95104  2  0  0  0  0
104105  1  0  0  0  0
 94106  1  0  0  0  0
106107  2  0  0  0  0
107108  1  0  0  0  0
107109  1  0  0  0  0
109110  1  0  0  0  0
110111  1  0  0  0  0
111112  2  0  0  0  0
112113  1  0  0  0  0
113114  1  0  0  0  0
114115  1  0  0  0  0
115116  1  0  0  0  0
116117  3  0  0  0  0
115118  2  0  0  0  0
111119  1  0  0  0  0
119120  2  0  0  0  0
  5  1  2  0  0  0  0
 37 13  1  0  0  0  0
 65 41  1  0  0  0  0
 73 69  2  0  0  0  0
105 81  1  0  0  0  0
113109  2  0  0  0  0
 10  4  1  0  0  0  0
 36 15  1  0  0  0  0
 64 43  1  0  0  0  0
 78 72  1  0  0  0  0
104 83  1  0  0  0  0
118112  1  0  0  0  0
 24 17  1  0  0  0  0
 40 25  1  0  0  0  0
 52 45  1  0  0  0  0
 68 53  1  0  0  0  0
 92 85  1  0  0  0  0
108 93  1  0  0  0  0
 35 28  1  0  0  0  0
 63 56  1  0  0  0  0
103 96  1  0  0  0  0
  1121  1  0  0  0  0
 10122  1  0  0  0  0
 11123  1  0  0  0  0
 12124  1  0  0  0  0
 14125  1  0  0  0  0
 18126  1  0  0  0  0
 19127  1  0  0  0  0
 22128  1  0  0  0  0
 22129  1  0  0  0  0
 23130  1  0  0  0  0
 23131  1  0  0  0  0
 23132  1  0  0  0  0
 29133  1  0  0  0  0
 30134  1  0  0  0  0
 33135  1  0  0  0  0
 33136  1  0  0  0  0
 34137  1  0  0  0  0
 34138  1  0  0  0  0
 34139  1  0  0  0  0
 38140  1  0  0  0  0
 42141  1  0  0  0  0
 46142  1  0  0  0  0
 47143  1  0  0  0  0
 50144  1  0  0  0  0
 50145  1  0  0  0  0
 51146  1  0  0  0  0
 51147  1  0  0  0  0
 51148  1  0  0  0  0
 57149  1  0  0  0  0
 58150  1  0  0  0  0
 61151  1  0  0  0  0
 61152  1  0  0  0  0
 62153  1  0  0  0  0
 62154  1  0  0  0  0
 62155  1  0  0  0  0
 66156  1  0  0  0  0
 78157  1  0  0  0  0
 79158  1  0  0  0  0
 80159  1  0  0  0  0
 82160  1  0  0  0  0
 86161  1  0  0  0  0
 87162  1  0  0  0  0
 90163  1  0  0  0  0
 90164  1  0  0  0  0
 91165  1  0  0  0  0
 91166  1  0  0  0  0
 91167  1  0  0  0  0
 97168  1  0  0  0  0
 98169  1  0  0  0  0
101170  1  0  0  0  0
101171  1  0  0  0  0
102172  1  0  0  0  0
102173  1  0  0  0  0
102174  1  0  0  0  0
106175  1  0  0  0  0
118176  1  0  0  0  0
119177  1  0  0  0  0
120178  1  0  0  0  0
120179  1  0  0  0  0
M  END
