
  xtb     03072218073D
 energy: -512.325399843842 gnorm: 0.000568751748 xtb: 6.4.1 (unknown)
296325  0     0  0            999 V2000
   -1.6470   -6.2266    7.9658 C   0  0  0  0  0  0  0  0  0  0  0  0
   -1.0297   -5.1502    7.4391 C   0  0  0  0  0  0  0  0  0  0  0  0
   -1.0228   -5.1578    6.0123 C   0  0  0  0  0  0  0  0  0  0  0  0
   -0.4931   -4.1940    5.1430 C   0  0  0  0  0  0  0  0  0  0  0  0
    0.2420   -3.0246    5.6462 C   0  0  0  0  0  0  0  0  0  0  0  0
    1.3258   -3.2041    6.5038 C   0  0  0  0  0  0  0  0  0  0  0  0
    2.0369   -2.1199    6.9777 C   0  0  0  0  0  0  0  0  0  0  0  0
    1.6817   -0.8260    6.6181 C   0  0  0  0  0  0  0  0  0  0  0  0
    2.5551    0.5601    7.3121 S   0  0  0  0  0  0  0  0  0  0  0  0
    3.2545    1.3208    5.7993 C   0  0  0  0  0  0  0  0  0  0  0  0
    4.4919    0.5794    5.3341 C   0  0  0  0  0  0  0  0  0  0  0  0
    0.5917   -0.6595    5.7718 C   0  0  0  0  0  0  0  0  0  0  0  0
    0.1938    0.5858    5.4382 F   0  0  0  0  0  0  0  0  0  0  0  0
   -0.1153   -1.7337    5.2693 C   0  0  0  0  0  0  0  0  0  0  0  0
   -0.6464   -4.4327    3.7871 C   0  0  0  0  0  0  0  0  0  0  0  0
   -1.2225   -5.6172    3.2637 C   0  0  0  0  0  0  0  0  0  0  0  0
   -1.7915   -6.5612    4.1327 C   0  0  0  0  0  0  0  0  0  0  0  0
   -2.5048   -7.7418    3.6305 C   0  0  0  0  0  0  0  0  0  0  0  0
   -3.7919   -8.0180    4.0821 C   0  0  0  0  0  0  0  0  0  0  0  0
   -4.4991   -9.1092    3.6177 C   0  0  0  0  0  0  0  0  0  0  0  0
   -3.9426   -9.9655    2.6765 C   0  0  0  0  0  0  0  0  0  0  0  0
   -4.7110  -11.4071    2.0121 S   0  0  0  0  0  0  0  0  0  0  0  0
   -6.3835  -11.4174    2.7421 C   0  0  0  0  0  0  0  0  0  0  0  0
   -7.3238  -10.4371    2.0660 C   0  0  0  0  0  0  0  0  0  0  0  0
   -2.6526   -9.6754    2.2284 C   0  0  0  0  0  0  0  0  0  0  0  0
   -1.9338   -8.5951    2.6881 C   0  0  0  0  0  0  0  0  0  0  0  0
   -2.0845  -10.4843    1.3077 F   0  0  0  0  0  0  0  0  0  0  0  0
   -1.6877   -6.2936    5.4915 C   0  0  0  0  0  0  0  0  0  0  0  0
   -2.2713   -7.3194    6.7780 S   0  0  0  0  0  0  0  0  0  0  0  0
   -1.1479   -5.6535    1.8482 C   0  0  0  0  0  0  0  0  0  0  0  0
   -0.5659   -4.5505    1.3018 C   0  0  0  0  0  0  0  0  0  0  0  0
   -0.1111   -3.3749    2.5154 S   0  0  0  0  0  0  0  0  0  0  0  0
   -0.4039   -4.2479   -0.0811 C   0  0  0  0  0  0  0  0  0  0  0  0
   -0.1208   -3.0345   -0.6358 C   0  0  0  0  0  0  0  0  0  0  0  0
   -0.2853   -3.0058   -2.0436 C   0  0  0  0  0  0  0  0  0  0  0  0
   -0.2296   -1.8877   -2.8950 C   0  0  0  0  0  0  0  0  0  0  0  0
    0.2185   -0.5764   -2.4028 C   0  0  0  0  0  0  0  0  0  0  0  0
   -0.3766    0.0507   -1.3090 C   0  0  0  0  0  0  0  0  0  0  0  0
    0.1137    1.2476   -0.8372 C   0  0  0  0  0  0  0  0  0  0  0  0
    1.2193    1.8699   -1.4202 C   0  0  0  0  0  0  0  0  0  0  0  0
    1.7427    3.3705   -0.6493 S   0  0  0  0  0  0  0  0  0  0  0  0
    3.5059    3.6126   -1.0962 C   0  0  0  0  0  0  0  0  0  0  0  0
    3.6943    4.5737   -2.2529 C   0  0  0  0  0  0  0  0  0  0  0  0
    1.7641    1.2614   -2.5465 C   0  0  0  0  0  0  0  0  0  0  0  0
    2.8004    1.8149   -3.2147 F   0  0  0  0  0  0  0  0  0  0  0  0
    1.2799    0.0616   -3.0317 C   0  0  0  0  0  0  0  0  0  0  0  0
   -0.6949   -2.0718   -4.1862 C   0  0  0  0  0  0  0  0  0  0  0  0
   -1.1230   -3.3291   -4.6826 C   0  0  0  0  0  0  0  0  0  0  0  0
   -1.0561   -4.4744   -3.8709 C   0  0  0  0  0  0  0  0  0  0  0  0
   -1.5023   -5.7846   -4.3599 C   0  0  0  0  0  0  0  0  0  0  0  0
   -2.4477   -6.5313   -3.6599 C   0  0  0  0  0  0  0  0  0  0  0  0
   -2.8176   -7.7915   -4.0865 C   0  0  0  0  0  0  0  0  0  0  0  0
   -2.2488   -8.3528   -5.2242 C   0  0  0  0  0  0  0  0  0  0  0  0
   -2.5930   -9.9814   -5.8106 S   0  0  0  0  0  0  0  0  0  0  0  0
   -3.0162  -10.9038   -4.2839 C   0  0  0  0  0  0  0  0  0  0  0  0
   -4.5088  -11.1004   -4.0972 C   0  0  0  0  0  0  0  0  0  0  0  0
   -1.3532   -7.5686   -5.9520 C   0  0  0  0  0  0  0  0  0  0  0  0
   -0.9791   -6.3082   -5.5403 C   0  0  0  0  0  0  0  0  0  0  0  0
   -0.8176   -8.0599   -7.0869 F   0  0  0  0  0  0  0  0  0  0  0  0
   -0.6746   -4.2714   -2.5532 C   0  0  0  0  0  0  0  0  0  0  0  0
   -0.7346   -5.4702   -1.2879 S   0  0  0  0  0  0  0  0  0  0  0  0
   -1.8966   -3.2005   -5.8612 C   0  0  0  0  0  0  0  0  0  0  0  0
   -2.1549   -1.9012   -6.2088 C   0  0  0  0  0  0  0  0  0  0  0  0
   -1.1652   -0.7801   -5.2706 S   0  0  0  0  0  0  0  0  0  0  0  0
   -3.4179   -1.4416   -6.7099 C   0  0  0  0  0  0  0  0  0  0  0  0
   -4.5310   -2.2418   -6.6522 C   0  0  0  0  0  0  0  0  0  0  0  0
   -5.6946   -1.5613   -6.2292 C   0  0  0  0  0  0  0  0  0  0  0  0
   -6.7532   -2.1407   -5.4951 C   0  0  0  0  0  0  0  0  0  0  0  0
   -6.9374   -3.5700   -5.3221 C   0  0  0  0  0  0  0  0  0  0  0  0
   -8.1454   -4.1946   -5.1766 C   0  0  0  0  0  0  0  0  0  0  0  0
   -8.1048   -5.5836   -4.9324 C   0  0  0  0  0  0  0  0  0  0  0  0
   -6.8556   -6.1126   -4.8441 C   0  0  0  0  0  0  0  0  0  0  0  0
   -6.4541   -7.8068   -4.6395 S   0  0  0  0  0  0  0  0  0  0  0  0
   -5.6279   -8.0759   -6.2547 C   0  0  0  0  0  0  0  0  0  0  0  0
   -6.5834   -7.9023   -7.4150 C   0  0  0  0  0  0  0  0  0  0  0  0
   -5.5244   -4.7943   -5.0373 Se  0  0  0  0  0  2  0  0  0  0  0  0
   -7.4760   -1.2601   -4.6960 C   0  0  0  0  0  0  0  0  0  0  0  0
   -7.3127    0.1471   -4.7131 C   0  0  0  0  0  0  0  0  0  0  0  0
   -6.3369    0.7300   -5.5486 C   0  0  0  0  0  0  0  0  0  0  0  0
   -6.0355    2.1500   -5.5659 C   0  0  0  0  0  0  0  0  0  0  0  0
   -5.8154    3.0080   -4.5289 C   0  0  0  0  0  0  0  0  0  0  0  0
   -5.4655    4.3266   -4.8866 C   0  0  0  0  0  0  0  0  0  0  0  0
   -5.3962    4.5659   -6.2283 C   0  0  0  0  0  0  0  0  0  0  0  0
   -5.0746    6.1385   -6.9208 S   0  0  0  0  0  0  0  0  0  0  0  0
   -4.4748    5.6806   -8.5855 C   0  0  0  0  0  0  0  0  0  0  0  0
   -3.1044    5.0364   -8.5428 C   0  0  0  0  0  0  0  0  0  0  0  0
   -5.8209    3.0216   -7.2233 Se  0  0  0  0  0  2  0  0  0  0  0  0
   -5.4986   -0.1603   -6.2085 C   0  0  0  0  0  0  0  0  0  0  0  0
   -3.8641    0.2570   -6.6877 S   0  0  0  0  0  0  0  0  0  0  0  0
   -7.8843    0.7607   -3.5684 C   0  0  0  0  0  0  0  0  0  0  0  0
   -8.2986   -0.1386   -2.6247 C   0  0  0  0  0  0  0  0  0  0  0  0
   -8.3626   -1.7718   -3.2759 S   0  0  0  0  0  0  0  0  0  0  0  0
   -8.0890    0.0550   -1.2207 C   0  0  0  0  0  0  0  0  0  0  0  0
   -7.5016   -0.8919   -0.4276 C   0  0  0  0  0  0  0  0  0  0  0  0
   -6.6494   -0.3447    0.5654 C   0  0  0  0  0  0  0  0  0  0  0  0
   -5.5980   -1.0273    1.2032 C   0  0  0  0  0  0  0  0  0  0  0  0
   -5.5584   -2.4953    1.1693 C   0  0  0  0  0  0  0  0  0  0  0  0
   -6.6316   -3.2307    1.6726 C   0  0  0  0  0  0  0  0  0  0  0  0
   -6.6281   -4.6074    1.6234 C   0  0  0  0  0  0  0  0  0  0  0  0
   -5.5675   -5.3083    1.0490 C   0  0  0  0  0  0  0  0  0  0  0  0
   -5.6609   -7.0700    1.0601 S   0  0  0  0  0  0  0  0  0  0  0  0
   -4.7441   -7.5989   -0.4428 C   0  0  0  0  0  0  0  0  0  0  0  0
   -5.2306   -8.9715   -0.8579 C   0  0  0  0  0  0  0  0  0  0  0  0
   -4.5067   -4.5592    0.5524 C   0  0  0  0  0  0  0  0  0  0  0  0
   -3.4505   -5.1659   -0.0315 F   0  0  0  0  0  0  0  0  0  0  0  0
   -4.4870   -3.1805    0.6108 C   0  0  0  0  0  0  0  0  0  0  0  0
   -4.5878   -0.2412    1.7338 C   0  0  0  0  0  0  0  0  0  0  0  0
   -4.6694    1.1734    1.8049 C   0  0  0  0  0  0  0  0  0  0  0  0
   -5.7717    1.8504    1.2538 C   0  0  0  0  0  0  0  0  0  0  0  0
   -5.8769    3.3143    1.2412 C   0  0  0  0  0  0  0  0  0  0  0  0
   -4.8396    4.1212    0.7840 C   0  0  0  0  0  0  0  0  0  0  0  0
   -4.9569    5.4980    0.7693 C   0  0  0  0  0  0  0  0  0  0  0  0
   -6.1190    6.1180    1.2155 C   0  0  0  0  0  0  0  0  0  0  0  0
   -6.3931    7.8527    1.2703 S   0  0  0  0  0  0  0  0  0  0  0  0
   -4.7679    8.5565    0.8004 C   0  0  0  0  0  0  0  0  0  0  0  0
   -4.8380   10.0662    0.9327 C   0  0  0  0  0  0  0  0  0  0  0  0
   -7.1620    5.2937    1.6465 C   0  0  0  0  0  0  0  0  0  0  0  0
   -7.0598    3.9221    1.6594 C   0  0  0  0  0  0  0  0  0  0  0  0
   -8.3080    5.8612    2.0710 F   0  0  0  0  0  0  0  0  0  0  0  0
   -6.7029    1.0682    0.5902 C   0  0  0  0  0  0  0  0  0  0  0  0
   -7.8602    1.6766   -0.5749 S   0  0  0  0  0  0  0  0  0  0  0  0
   -3.4792    1.7434    2.3205 C   0  0  0  0  0  0  0  0  0  0  0  0
   -2.4841    0.8366    2.5361 C   0  0  0  0  0  0  0  0  0  0  0  0
   -3.0240   -0.8121    2.2686 S   0  0  0  0  0  0  0  0  0  0  0  0
   -1.1043    1.1468    2.7348 C   0  0  0  0  0  0  0  0  0  0  0  0
   -0.0208    0.3693    2.4503 C   0  0  0  0  0  0  0  0  0  0  0  0
    1.2061    1.0792    2.4924 C   0  0  0  0  0  0  0  0  0  0  0  0
    2.4707    0.6311    2.0884 C   0  0  0  0  0  0  0  0  0  0  0  0
    2.6908   -0.7598    1.6529 C   0  0  0  0  0  0  0  0  0  0  0  0
    2.8311   -1.0631    0.3051 C   0  0  0  0  0  0  0  0  0  0  0  0
    2.9676   -2.3706   -0.1217 C   0  0  0  0  0  0  0  0  0  0  0  0
    2.9964   -3.4156    0.7942 C   0  0  0  0  0  0  0  0  0  0  0  0
    3.0398   -5.1308    0.4006 S   0  0  0  0  0  0  0  0  0  0  0  0
    3.0486   -5.1842   -1.4237 C   0  0  0  0  0  0  0  0  0  0  0  0
    4.4302   -4.9512   -2.0050 C   0  0  0  0  0  0  0  0  0  0  0  0
    2.9268   -3.0850    2.1494 C   0  0  0  0  0  0  0  0  0  0  0  0
    2.9939   -4.0693    3.0687 F   0  0  0  0  0  0  0  0  0  0  0  0
    2.7555   -1.7896    2.5844 C   0  0  0  0  0  0  0  0  0  0  0  0
    3.4864    1.5672    2.0627 C   0  0  0  0  0  0  0  0  0  0  0  0
    3.3192    2.9088    2.4882 C   0  0  0  0  0  0  0  0  0  0  0  0
    2.0571    3.3575    2.9076 C   0  0  0  0  0  0  0  0  0  0  0  0
    1.8190    4.7497    3.3036 C   0  0  0  0  0  0  0  0  0  0  0  0
    2.2202    5.8112    2.4941 C   0  0  0  0  0  0  0  0  0  0  0  0
    1.9926    7.1132    2.8822 C   0  0  0  0  0  0  0  0  0  0  0  0
    1.3427    7.4133    4.0792 C   0  0  0  0  0  0  0  0  0  0  0  0
    1.0740    9.1266    4.4245 S   0  0  0  0  0  0  0  0  0  0  0  0
    1.1371    9.2738    6.2475 C   0  0  0  0  0  0  0  0  0  0  0  0
    2.4464    8.7740    6.8227 C   0  0  0  0  0  0  0  0  0  0  0  0
    0.9101    6.3426    4.8555 C   0  0  0  0  0  0  0  0  0  0  0  0
    1.1538    5.0335    4.4912 C   0  0  0  0  0  0  0  0  0  0  0  0
    0.2300    6.5475    6.0043 F   0  0  0  0  0  0  0  0  0  0  0  0
    1.0256    2.4316    2.8754 C   0  0  0  0  0  0  0  0  0  0  0  0
   -0.6548    2.7897    3.1519 S   0  0  0  0  0  0  0  0  0  0  0  0
    4.5242    3.6458    2.3773 C   0  0  0  0  0  0  0  0  0  0  0  0
    5.5575    2.9303    1.8419 C   0  0  0  0  0  0  0  0  0  0  0  0
    5.1095    1.2699    1.4978 S   0  0  0  0  0  0  0  0  0  0  0  0
    6.8497    3.4233    1.4837 C   0  0  0  0  0  0  0  0  0  0  0  0
    7.3105    4.7002    1.6205 C   0  0  0  0  0  0  0  0  0  0  0  0
    8.6050    4.8991    1.0779 C   0  0  0  0  0  0  0  0  0  0  0  0
    9.3581    6.0845    1.0560 C   0  0  0  0  0  0  0  0  0  0  0  0
    8.7999    7.3493    1.5466 C   0  0  0  0  0  0  0  0  0  0  0  0
    7.5431    7.7776    1.1247 C   0  0  0  0  0  0  0  0  0  0  0  0
    7.0024    8.9657    1.5745 C   0  0  0  0  0  0  0  0  0  0  0  0
    7.6966    9.7691    2.4723 C   0  0  0  0  0  0  0  0  0  0  0  0
    7.1242   11.3077    3.1106 S   0  0  0  0  0  0  0  0  0  0  0  0
    5.3170   11.2508    2.8438 C   0  0  0  0  0  0  0  0  0  0  0  0
    4.6419   10.2108    3.7160 C   0  0  0  0  0  0  0  0  0  0  0  0
    8.9635    9.3381    2.8708 C   0  0  0  0  0  0  0  0  0  0  0  0
    9.6708   10.0957    3.7315 F   0  0  0  0  0  0  0  0  0  0  0  0
    9.5164    8.1585    2.4254 C   0  0  0  0  0  0  0  0  0  0  0  0
   10.6323    5.9991    0.5126 C   0  0  0  0  0  0  0  0  0  0  0  0
   11.1662    4.8033   -0.0265 C   0  0  0  0  0  0  0  0  0  0  0  0
   10.4086    3.6227   -0.0161 C   0  0  0  0  0  0  0  0  0  0  0  0
   10.9341    2.3637   -0.5585 C   0  0  0  0  0  0  0  0  0  0  0  0
   12.1751    1.8754   -0.1604 C   0  0  0  0  0  0  0  0  0  0  0  0
   12.6718    0.6881   -0.6628 C   0  0  0  0  0  0  0  0  0  0  0  0
   11.9483   -0.0497   -1.5930 C   0  0  0  0  0  0  0  0  0  0  0  0
   12.4548   -1.5783   -2.3072 S   0  0  0  0  0  0  0  0  0  0  0  0
   14.2424   -1.6697   -1.9467 C   0  0  0  0  0  0  0  0  0  0  0  0
   15.0425   -0.6541   -2.7400 C   0  0  0  0  0  0  0  0  0  0  0  0
   10.6993    0.4457   -1.9726 C   0  0  0  0  0  0  0  0  0  0  0  0
   10.1893    1.6223   -1.4733 C   0  0  0  0  0  0  0  0  0  0  0  0
    9.9661   -0.2464   -2.8669 F   0  0  0  0  0  0  0  0  0  0  0  0
    9.1376    3.7045    0.5339 C   0  0  0  0  0  0  0  0  0  0  0  0
    8.0112    2.3819    0.6884 S   0  0  0  0  0  0  0  0  0  0  0  0
   12.4602    5.0154   -0.5897 C   0  0  0  0  0  0  0  0  0  0  0  0
   12.8823    6.2903   -0.4722 C   0  0  0  0  0  0  0  0  0  0  0  0
   11.7494    7.3267    0.3245 S   0  0  0  0  0  0  0  0  0  0  0  0
   -1.7916   -6.4622    9.0020 H   0  0  0  0  0  0  0  0  0  0  0  0
   -0.5980   -4.3602    8.0267 H   0  0  0  0  0  0  0  0  0  0  0  0
    1.6237   -4.2040    6.7796 H   0  0  0  0  0  0  0  0  0  0  0  0
    2.8775   -2.2609    7.6392 H   0  0  0  0  0  0  0  0  0  0  0  0
    2.4797    1.3404    5.0361 H   0  0  0  0  0  0  0  0  0  0  0  0
    3.4946    2.3437    6.0879 H   0  0  0  0  0  0  0  0  0  0  0  0
    4.2499   -0.4439    5.0537 H   0  0  0  0  0  0  0  0  0  0  0  0
    5.2355    0.5517    6.1273 H   0  0  0  0  0  0  0  0  0  0  0  0
    4.9245    1.0809    4.4711 H   0  0  0  0  0  0  0  0  0  0  0  0
   -0.9596   -1.5551    4.6214 H   0  0  0  0  0  0  0  0  0  0  0  0
   -4.2614   -7.3558    4.7930 H   0  0  0  0  0  0  0  0  0  0  0  0
   -5.4935   -9.2780    3.9948 H   0  0  0  0  0  0  0  0  0  0  0  0
   -6.2883  -11.2383    3.8121 H   0  0  0  0  0  0  0  0  0  0  0  0
   -6.7210  -12.4432    2.5917 H   0  0  0  0  0  0  0  0  0  0  0  0
   -7.4463  -10.6976    1.0174 H   0  0  0  0  0  0  0  0  0  0  0  0
   -8.2990  -10.4718    2.5479 H   0  0  0  0  0  0  0  0  0  0  0  0
   -6.9428   -9.4198    2.1218 H   0  0  0  0  0  0  0  0  0  0  0  0
   -0.9275   -8.4419    2.3306 H   0  0  0  0  0  0  0  0  0  0  0  0
   -1.5259   -6.4589    1.2463 H   0  0  0  0  0  0  0  0  0  0  0  0
    0.1397   -2.1741   -0.0464 H   0  0  0  0  0  0  0  0  0  0  0  0
   -1.2371   -0.3960   -0.8347 H   0  0  0  0  0  0  0  0  0  0  0  0
   -0.3503    1.7307    0.0082 H   0  0  0  0  0  0  0  0  0  0  0  0
    3.9504    4.0162   -0.1853 H   0  0  0  0  0  0  0  0  0  0  0  0
    3.9434    2.6370   -1.2924 H   0  0  0  0  0  0  0  0  0  0  0  0
    3.2587    4.1768   -3.1652 H   0  0  0  0  0  0  0  0  0  0  0  0
    4.7575    4.7343   -2.4203 H   0  0  0  0  0  0  0  0  0  0  0  0
    3.2254    5.5299   -2.0304 H   0  0  0  0  0  0  0  0  0  0  0  0
    1.7525   -0.3709   -3.9004 H   0  0  0  0  0  0  0  0  0  0  0  0
   -2.9071   -6.1189   -2.7751 H   0  0  0  0  0  0  0  0  0  0  0  0
   -3.5604   -8.3372   -3.5283 H   0  0  0  0  0  0  0  0  0  0  0  0
   -2.5215  -11.8671   -4.4089 H   0  0  0  0  0  0  0  0  0  0  0  0
   -2.5580  -10.3799   -3.4470 H   0  0  0  0  0  0  0  0  0  0  0  0
   -4.6879  -11.6832   -3.1956 H   0  0  0  0  0  0  0  0  0  0  0  0
   -4.9269  -11.6395   -4.9443 H   0  0  0  0  0  0  0  0  0  0  0  0
   -5.0330  -10.1516   -4.0035 H   0  0  0  0  0  0  0  0  0  0  0  0
   -0.2580   -5.7553   -6.1223 H   0  0  0  0  0  0  0  0  0  0  0  0
   -2.3818   -4.0438   -6.3201 H   0  0  0  0  0  0  0  0  0  0  0  0
   -4.4663   -3.3114   -6.7408 H   0  0  0  0  0  0  0  0  0  0  0  0
   -9.0768   -3.6684   -5.3033 H   0  0  0  0  0  0  0  0  0  0  0  0
   -8.9917   -6.1877   -4.8478 H   0  0  0  0  0  0  0  0  0  0  0  0
   -5.2367   -9.0903   -6.2135 H   0  0  0  0  0  0  0  0  0  0  0  0
   -4.7952   -7.3688   -6.3055 H   0  0  0  0  0  0  0  0  0  0  0  0
   -7.4260   -8.5838   -7.3199 H   0  0  0  0  0  0  0  0  0  0  0  0
   -6.0650   -8.1141   -8.3478 H   0  0  0  0  0  0  0  0  0  0  0  0
   -6.9643   -6.8820   -7.4535 H   0  0  0  0  0  0  0  0  0  0  0  0
   -5.8333    2.6909   -3.4994 H   0  0  0  0  0  0  0  0  0  0  0  0
   -5.2514    5.0885   -4.1573 H   0  0  0  0  0  0  0  0  0  0  0  0
   -4.4582    6.6177   -9.1407 H   0  0  0  0  0  0  0  0  0  0  0  0
   -5.2239    5.0148   -9.0259 H   0  0  0  0  0  0  0  0  0  0  0  0
   -2.3847    5.7059   -8.0776 H   0  0  0  0  0  0  0  0  0  0  0  0
   -3.1327    4.1073   -7.9733 H   0  0  0  0  0  0  0  0  0  0  0  0
   -2.7721    4.8101   -9.5536 H   0  0  0  0  0  0  0  0  0  0  0  0
   -7.8288    1.8155   -3.3735 H   0  0  0  0  0  0  0  0  0  0  0  0
   -7.5230   -1.9417   -0.6621 H   0  0  0  0  0  0  0  0  0  0  0  0
   -7.4713   -2.7111    2.1088 H   0  0  0  0  0  0  0  0  0  0  0  0
   -7.4579   -5.1713    2.0199 H   0  0  0  0  0  0  0  0  0  0  0  0
   -4.9479   -6.8622   -1.2186 H   0  0  0  0  0  0  0  0  0  0  0  0
   -3.6805   -7.6130   -0.2076 H   0  0  0  0  0  0  0  0  0  0  0  0
   -4.6666   -9.3098   -1.7226 H   0  0  0  0  0  0  0  0  0  0  0  0
   -5.0850   -9.6914   -0.0571 H   0  0  0  0  0  0  0  0  0  0  0  0
   -6.2853   -8.9414   -1.1212 H   0  0  0  0  0  0  0  0  0  0  0  0
   -3.6385   -2.6574    0.1973 H   0  0  0  0  0  0  0  0  0  0  0  0
   -3.9362    3.6685    0.4043 H   0  0  0  0  0  0  0  0  0  0  0  0
   -4.1317    6.0853    0.4014 H   0  0  0  0  0  0  0  0  0  0  0  0
   -4.5569    8.2664   -0.2292 H   0  0  0  0  0  0  0  0  0  0  0  0
   -4.0165    8.1412    1.4720 H   0  0  0  0  0  0  0  0  0  0  0  0
   -5.6066   10.4708    0.2784 H   0  0  0  0  0  0  0  0  0  0  0  0
   -3.8803   10.5052    0.6612 H   0  0  0  0  0  0  0  0  0  0  0  0
   -5.0738   10.3476    1.9562 H   0  0  0  0  0  0  0  0  0  0  0  0
   -7.8931    3.3350    2.0125 H   0  0  0  0  0  0  0  0  0  0  0  0
   -3.3396    2.7985    2.4707 H   0  0  0  0  0  0  0  0  0  0  0  0
   -0.0933   -0.6654    2.1666 H   0  0  0  0  0  0  0  0  0  0  0  0
    2.8013   -0.2692   -0.4251 H   0  0  0  0  0  0  0  0  0  0  0  0
    3.0356   -2.5629   -1.1795 H   0  0  0  0  0  0  0  0  0  0  0  0
    2.6971   -6.1906   -1.6529 H   0  0  0  0  0  0  0  0  0  0  0  0
    2.3126   -4.4696   -1.7904 H   0  0  0  0  0  0  0  0  0  0  0  0
    5.1219   -5.7070   -1.6408 H   0  0  0  0  0  0  0  0  0  0  0  0
    4.3892   -5.0125   -3.0910 H   0  0  0  0  0  0  0  0  0  0  0  0
    4.8173   -3.9738   -1.7256 H   0  0  0  0  0  0  0  0  0  0  0  0
    2.6564   -1.5982    3.6415 H   0  0  0  0  0  0  0  0  0  0  0  0
    2.6892    5.6087    1.5438 H   0  0  0  0  0  0  0  0  0  0  0  0
    2.3071    7.9333    2.2552 H   0  0  0  0  0  0  0  0  0  0  0  0
    1.0205   10.3456    6.4097 H   0  0  0  0  0  0  0  0  0  0  0  0
    0.2802    8.7559    6.6724 H   0  0  0  0  0  0  0  0  0  0  0  0
    2.4619    8.9516    7.8959 H   0  0  0  0  0  0  0  0  0  0  0  0
    3.2879    9.2926    6.3689 H   0  0  0  0  0  0  0  0  0  0  0  0
    2.5656    7.7062    6.6522 H   0  0  0  0  0  0  0  0  0  0  0  0
    0.8159    4.2439    5.1445 H   0  0  0  0  0  0  0  0  0  0  0  0
    4.6140    4.6734    2.6776 H   0  0  0  0  0  0  0  0  0  0  0  0
    6.7532    5.4786    2.1079 H   0  0  0  0  0  0  0  0  0  0  0  0
    6.9924    7.1849    0.4095 H   0  0  0  0  0  0  0  0  0  0  0  0
    6.0346    9.2692    1.2090 H   0  0  0  0  0  0  0  0  0  0  0  0
    5.1196   11.1004    1.7833 H   0  0  0  0  0  0  0  0  0  0  0  0
    4.9914   12.2544    3.1164 H   0  0  0  0  0  0  0  0  0  0  0  0
    4.8745   10.4010    4.7614 H   0  0  0  0  0  0  0  0  0  0  0  0
    3.5625   10.2557    3.5832 H   0  0  0  0  0  0  0  0  0  0  0  0
    4.9822    9.2074    3.4670 H   0  0  0  0  0  0  0  0  0  0  0  0
   10.4908    7.8686    2.7852 H   0  0  0  0  0  0  0  0  0  0  0  0
   12.7502    2.4193    0.5739 H   0  0  0  0  0  0  0  0  0  0  0  0
   13.6289    0.3366   -0.3129 H   0  0  0  0  0  0  0  0  0  0  0  0
   14.5076   -2.6855   -2.2395 H   0  0  0  0  0  0  0  0  0  0  0  0
   14.3895   -1.5708   -0.8719 H   0  0  0  0  0  0  0  0  0  0  0  0
   16.1034   -0.7692   -2.5261 H   0  0  0  0  0  0  0  0  0  0  0  0
   14.8841   -0.8027   -3.8055 H   0  0  0  0  0  0  0  0  0  0  0  0
   14.7449    0.3617   -2.4881 H   0  0  0  0  0  0  0  0  0  0  0  0
    9.2262    1.9633   -1.8183 H   0  0  0  0  0  0  0  0  0  0  0  0
   13.0264    4.2416   -1.0753 H   0  0  0  0  0  0  0  0  0  0  0  0
   13.8098    6.7109   -0.8087 H   0  0  0  0  0  0  0  0  0  0  0  0
  1  2  2  0  0  0  0
  2  3  1  0  0  0  0
  3  4  2  0  0  0  0
  4  5  1  0  0  0  0
  5  6  2  0  0  0  0
  6  7  1  0  0  0  0
  7  8  2  0  0  0  0
  8  9  1  0  0  0  0
  9 10  1  0  0  0  0
 10 11  1  0  0  0  0
  8 12  1  0  0  0  0
 12 13  1  0  0  0  0
 12 14  2  0  0  0  0
  4 15  1  0  0  0  0
 15 16  2  0  0  0  0
 16 17  1  0  0  0  0
 17 18  1  0  0  0  0
 18 19  2  0  0  0  0
 19 20  1  0  0  0  0
 20 21  2  0  0  0  0
 21 22  1  0  0  0  0
 22 23  1  0  0  0  0
 23 24  1  0  0  0  0
 21 25  1  0  0  0  0
 25 26  2  0  0  0  0
 25 27  1  0  0  0  0
 17 28  2  0  0  0  0
 28 29  1  0  0  0  0
 16 30  1  0  0  0  0
 30 31  2  0  0  0  0
 31 32  1  0  0  0  0
 31 33  1  0  0  0  0
 33 34  2  0  0  0  0
 34 35  1  0  0  0  0
 35 36  2  0  0  0  0
 36 37  1  0  0  0  0
 37 38  2  0  0  0  0
 38 39  1  0  0  0  0
 39 40  2  0  0  0  0
 40 41  1  0  0  0  0
 41 42  1  0  0  0  0
 42 43  1  0  0  0  0
 40 44  1  0  0  0  0
 44 45  1  0  0  0  0
 44 46  2  0  0  0  0
 36 47  1  0  0  0  0
 47 48  2  0  0  0  0
 48 49  1  0  0  0  0
 49 50  1  0  0  0  0
 50 51  2  0  0  0  0
 51 52  1  0  0  0  0
 52 53  2  0  0  0  0
 53 54  1  0  0  0  0
 54 55  1  0  0  0  0
 55 56  1  0  0  0  0
 53 57  1  0  0  0  0
 57 58  2  0  0  0  0
 57 59  1  0  0  0  0
 49 60  2  0  0  0  0
 60 61  1  0  0  0  0
 48 62  1  0  0  0  0
 62 63  2  0  0  0  0
 63 64  1  0  0  0  0
 63 65  1  0  0  0  0
 65 66  2  0  0  0  0
 66 67  1  0  0  0  0
 67 68  2  0  0  0  0
 68 69  1  0  0  0  0
 69 70  2  0  0  0  0
 70 71  1  0  0  0  0
 71 72  2  0  0  0  0
 72 73  1  0  0  0  0
 73 74  1  0  0  0  0
 74 75  1  0  0  0  0
 72 76  1  0  0  0  0
 68 77  1  0  0  0  0
 77 78  2  0  0  0  0
 78 79  1  0  0  0  0
 79 80  1  0  0  0  0
 80 81  2  0  0  0  0
 81 82  1  0  0  0  0
 82 83  2  0  0  0  0
 83 84  1  0  0  0  0
 84 85  1  0  0  0  0
 85 86  1  0  0  0  0
 83 87  1  0  0  0  0
 79 88  2  0  0  0  0
 88 89  1  0  0  0  0
 78 90  1  0  0  0  0
 90 91  2  0  0  0  0
 91 92  1  0  0  0  0
 91 93  1  0  0  0  0
 93 94  2  0  0  0  0
 94 95  1  0  0  0  0
 95 96  2  0  0  0  0
 96 97  1  0  0  0  0
 97 98  2  0  0  0  0
 98 99  1  0  0  0  0
 99100  2  0  0  0  0
100101  1  0  0  0  0
101102  1  0  0  0  0
102103  1  0  0  0  0
100104  1  0  0  0  0
104105  1  0  0  0  0
104106  2  0  0  0  0
 96107  1  0  0  0  0
107108  2  0  0  0  0
108109  1  0  0  0  0
109110  1  0  0  0  0
110111  2  0  0  0  0
111112  1  0  0  0  0
112113  2  0  0  0  0
113114  1  0  0  0  0
114115  1  0  0  0  0
115116  1  0  0  0  0
113117  1  0  0  0  0
117118  2  0  0  0  0
117119  1  0  0  0  0
109120  2  0  0  0  0
120121  1  0  0  0  0
108122  1  0  0  0  0
122123  2  0  0  0  0
123124  1  0  0  0  0
123125  1  0  0  0  0
125126  2  0  0  0  0
126127  1  0  0  0  0
127128  2  0  0  0  0
128129  1  0  0  0  0
129130  2  0  0  0  0
130131  1  0  0  0  0
131132  2  0  0  0  0
132133  1  0  0  0  0
133134  1  0  0  0  0
134135  1  0  0  0  0
132136  1  0  0  0  0
136137  1  0  0  0  0
136138  2  0  0  0  0
128139  1  0  0  0  0
139140  2  0  0  0  0
140141  1  0  0  0  0
141142  1  0  0  0  0
142143  2  0  0  0  0
143144  1  0  0  0  0
144145  2  0  0  0  0
145146  1  0  0  0  0
146147  1  0  0  0  0
147148  1  0  0  0  0
145149  1  0  0  0  0
149150  2  0  0  0  0
149151  1  0  0  0  0
141152  2  0  0  0  0
152153  1  0  0  0  0
140154  1  0  0  0  0
154155  2  0  0  0  0
155156  1  0  0  0  0
155157  1  0  0  0  0
157158  2  0  0  0  0
158159  1  0  0  0  0
159160  2  0  0  0  0
160161  1  0  0  0  0
161162  2  0  0  0  0
162163  1  0  0  0  0
163164  2  0  0  0  0
164165  1  0  0  0  0
165166  1  0  0  0  0
166167  1  0  0  0  0
164168  1  0  0  0  0
168169  1  0  0  0  0
168170  2  0  0  0  0
160171  1  0  0  0  0
171172  2  0  0  0  0
172173  1  0  0  0  0
173174  1  0  0  0  0
174175  2  0  0  0  0
175176  1  0  0  0  0
176177  2  0  0  0  0
177178  1  0  0  0  0
178179  1  0  0  0  0
179180  1  0  0  0  0
177181  1  0  0  0  0
181182  2  0  0  0  0
181183  1  0  0  0  0
173184  2  0  0  0  0
184185  1  0  0  0  0
172186  1  0  0  0  0
186187  2  0  0  0  0
187188  1  0  0  0  0
 29  1  1  0  0  0  0
 61 33  1  0  0  0  0
 89 65  1  0  0  0  0
121 93  1  0  0  0  0
153125  1  0  0  0  0
185157  1  0  0  0  0
 28  3  1  0  0  0  0
 60 35  1  0  0  0  0
 88 67  1  0  0  0  0
120 95  1  0  0  0  0
152127  1  0  0  0  0
184159  1  0  0  0  0
 14  5  1  0  0  0  0
 32 15  1  0  0  0  0
 46 37  1  0  0  0  0
 64 47  1  0  0  0  0
 76 69  1  0  0  0  0
 92 77  1  0  0  0  0
106 97  1  0  0  0  0
124107  1  0  0  0  0
138129  1  0  0  0  0
156139  1  0  0  0  0
170161  1  0  0  0  0
188171  1  0  0  0  0
 26 18  1  0  0  0  0
 58 50  1  0  0  0  0
 87 80  1  0  0  0  0
118110  1  0  0  0  0
150142  1  0  0  0  0
182174  1  0  0  0  0
  1189  1  0  0  0  0
  2190  1  0  0  0  0
  6191  1  0  0  0  0
  7192  1  0  0  0  0
 10193  1  0  0  0  0
 10194  1  0  0  0  0
 11195  1  0  0  0  0
 11196  1  0  0  0  0
 11197  1  0  0  0  0
 14198  1  0  0  0  0
 19199  1  0  0  0  0
 20200  1  0  0  0  0
 23201  1  0  0  0  0
 23202  1  0  0  0  0
 24203  1  0  0  0  0
 24204  1  0  0  0  0
 24205  1  0  0  0  0
 26206  1  0  0  0  0
 30207  1  0  0  0  0
 34208  1  0  0  0  0
 38209  1  0  0  0  0
 39210  1  0  0  0  0
 42211  1  0  0  0  0
 42212  1  0  0  0  0
 43213  1  0  0  0  0
 43214  1  0  0  0  0
 43215  1  0  0  0  0
 46216  1  0  0  0  0
 51217  1  0  0  0  0
 52218  1  0  0  0  0
 55219  1  0  0  0  0
 55220  1  0  0  0  0
 56221  1  0  0  0  0
 56222  1  0  0  0  0
 56223  1  0  0  0  0
 58224  1  0  0  0  0
 62225  1  0  0  0  0
 66226  1  0  0  0  0
 70227  1  0  0  0  0
 71228  1  0  0  0  0
 74229  1  0  0  0  0
 74230  1  0  0  0  0
 75231  1  0  0  0  0
 75232  1  0  0  0  0
 75233  1  0  0  0  0
 81234  1  0  0  0  0
 82235  1  0  0  0  0
 85236  1  0  0  0  0
 85237  1  0  0  0  0
 86238  1  0  0  0  0
 86239  1  0  0  0  0
 86240  1  0  0  0  0
 90241  1  0  0  0  0
 94242  1  0  0  0  0
 98243  1  0  0  0  0
 99244  1  0  0  0  0
102245  1  0  0  0  0
102246  1  0  0  0  0
103247  1  0  0  0  0
103248  1  0  0  0  0
103249  1  0  0  0  0
106250  1  0  0  0  0
111251  1  0  0  0  0
112252  1  0  0  0  0
115253  1  0  0  0  0
115254  1  0  0  0  0
116255  1  0  0  0  0
116256  1  0  0  0  0
116257  1  0  0  0  0
118258  1  0  0  0  0
122259  1  0  0  0  0
126260  1  0  0  0  0
130261  1  0  0  0  0
131262  1  0  0  0  0
134263  1  0  0  0  0
134264  1  0  0  0  0
135265  1  0  0  0  0
135266  1  0  0  0  0
135267  1  0  0  0  0
138268  1  0  0  0  0
143269  1  0  0  0  0
144270  1  0  0  0  0
147271  1  0  0  0  0
147272  1  0  0  0  0
148273  1  0  0  0  0
148274  1  0  0  0  0
148275  1  0  0  0  0
150276  1  0  0  0  0
154277  1  0  0  0  0
158278  1  0  0  0  0
162279  1  0  0  0  0
163280  1  0  0  0  0
166281  1  0  0  0  0
166282  1  0  0  0  0
167283  1  0  0  0  0
167284  1  0  0  0  0
167285  1  0  0  0  0
170286  1  0  0  0  0
175287  1  0  0  0  0
176288  1  0  0  0  0
179289  1  0  0  0  0
179290  1  0  0  0  0
180291  1  0  0  0  0
180292  1  0  0  0  0
180293  1  0  0  0  0
182294  1  0  0  0  0
186295  1  0  0  0  0
187296  1  0  0  0  0
M  END
