111

C          7.59850       -0.33290       -0.50140
C          7.02900       -1.46720       -0.07990
C          7.80130       -2.72840        0.20720
C          9.26520       -2.53230        0.06290
C          9.85410       -1.31830       -0.36850
C          9.06020       -0.11490       -0.72340
N         11.16600       -1.37970       -0.41570
S         11.64340       -2.86310        0.04870
N         10.15770       -3.46140        0.32390
C          5.59440       -1.56350        0.10760
C          4.67900       -0.56090        0.20990
C          3.34330       -1.00740        0.38070
C          2.17360       -0.22580        0.46380
C          2.16830        1.21140        0.29700
C          1.35950        2.11420        0.93030
C          1.48270        3.45600        0.52020
C          2.38400        3.67750       -0.48040
S          2.64430        5.23790       -1.22570
C          4.30250        5.01620       -1.95970
C          5.39220        4.97200       -0.90800
Se         3.20890        2.07360       -1.02260
C          0.98730       -0.92630        0.66880
C          0.91070       -2.33510        0.75160
C          2.07280       -3.11870        0.61550
C          2.04640       -4.56520        0.58930
C          2.97020       -5.42180        1.11950
C          2.77670       -6.79030        0.84900
C          1.69470       -7.08150        0.06990
S          1.19060       -8.70750       -0.32600
C          0.17160       -8.41680       -1.81520
C          1.00900       -8.03130       -3.01720
Se         0.73520       -5.52310       -0.37560
C          3.26660       -2.41730        0.45390
S          4.83960       -3.13620        0.25510
C         -0.42250       -2.77660        0.96950
C         -1.34520       -1.77890        0.98790
S         -0.59460       -0.20650        0.78650
C         -2.76880       -1.90260        1.23960
C         -3.67860       -1.07580        0.69450
C         -5.15010       -1.16470        1.01650
C         -5.35360       -1.77930        2.35030
C         -4.39950       -2.65960        2.91390
C         -3.15000       -3.01290        2.19610
N         -4.74380       -3.08660        4.10650
S         -6.17540       -2.42890        4.50720
N         -6.38280       -1.57020        3.13810
C         -3.30650       -0.07240       -0.32860
C         -3.47650        1.24670       -0.15960
C         -3.05820        2.22790       -1.23360
C         -3.33880        1.63600       -2.56400
C         -3.22300        0.23750       -2.75780
C         -2.80860       -0.64850       -1.64100
N         -3.53110       -0.13500       -3.97810
S         -3.94390        1.18310       -4.83890
N         -3.73490        2.27040       -3.64220
C         -4.04980        1.82390        1.07250
C         -5.13860        2.60580        1.05430
C         -5.71240        3.18870        2.33020
C         -5.47520        2.24480        3.45160
C         -4.31870        1.42680        3.46810
C         -3.33010        1.51190        2.36730
N         -4.27400        0.62630        4.50690
S         -5.59870        0.88480        5.42110
N         -6.26140        2.03750        4.48140
C         -5.87420        2.95170       -0.18370
C         -6.06900        4.22480       -0.51990
C         -6.78090        4.70060       -1.75020
C         -6.93540        3.59480       -2.72920
C         -6.76670        2.23530       -2.36900
C         -6.43080        1.80360       -0.98970
N         -6.92970        1.41680       -3.38340
S         -7.27500        2.28980       -4.71320
N         -7.22100        3.75030       -4.00130
H          6.97880        0.52470       -0.72110
H          7.57770       -3.08060        1.21980
H          7.46990       -3.52250       -0.47230
H          9.24030        0.14920       -1.77220
H          9.40360        0.74130       -0.13190
H          4.95550        0.47920        0.21300
H          0.70960        1.83210        1.74120
H          0.91700        4.25610        0.96550
H          4.42650        5.86940       -2.62550
H          4.27430        4.09790       -2.55500
H          5.24410        4.12440       -0.23840
H          6.36410        4.86970       -1.38600
H          5.38590        5.88450       -0.31630
H          3.78600       -5.07870        1.73280
H          3.43710       -7.55590        1.21750
H         -0.55810       -7.64080       -1.56250
H         -0.35110       -9.35830       -1.97980
H          1.73900       -8.80730       -3.23570
H          1.54020       -7.09790       -2.83260
H          0.36830       -7.89620       -3.88620
H         -0.68740       -3.81040        1.11220
H         -5.60850       -0.17530        0.99420
H         -5.65110       -1.77140        0.25110
H         -2.35060       -3.19740        2.91560
H         -3.30610       -3.94040        1.63130
H         -1.97810        2.39840       -1.13780
H         -3.55930        3.18770       -1.11950
H         -3.19480       -1.65830       -1.78920
H         -1.71470       -0.71490       -1.63400
H         -5.21530        4.14050        2.55410
H         -6.77820        3.39130        2.22000
H         -2.75340        0.59230        2.29160
H         -2.62470        2.32530        2.57890
H         -5.67270        5.00990        0.10960
H         -6.23370        5.52690       -2.21160
H         -7.76910        5.09220       -1.47800
H         -5.72740        0.97080       -1.03210
H         -7.33710        1.43210       -0.49380
