
  xtb     03072221063D
 energy: -486.886965555383 gnorm: 0.000198740270 xtb: 6.4.1 (unknown)
284313  0     0  0            999 V2000
  -17.3208   -5.9002   10.5731 C   0  0  0  0  0  0  0  0  0  0  0  0
  -16.8339   -4.6583   10.3808 C   0  0  0  0  0  0  0  0  0  0  0  0
  -16.2509   -4.4847    9.0902 C   0  0  0  0  0  0  0  0  0  0  0  0
  -15.6147   -3.3492    8.5717 C   0  0  0  0  0  0  0  0  0  0  0  0
  -15.4937   -2.0941    9.3257 C   0  0  0  0  0  0  0  0  0  0  0  0
  -14.2496   -1.4956    9.4982 C   0  0  0  0  0  0  0  0  0  0  0  0
  -14.1154   -0.3013   10.1799 C   0  0  0  0  0  0  0  0  0  0  0  0
  -15.2290    0.3440   10.7062 C   0  0  0  0  0  0  0  0  0  0  0  0
  -15.2085    1.8780   11.5678 S   0  0  0  0  0  0  0  0  0  0  0  0
  -13.4245    2.2796   11.6830 C   0  0  0  0  0  0  0  0  0  0  0  0
  -13.2703    3.5872   12.4365 C   0  0  0  0  0  0  0  0  0  0  0  0
  -16.4712   -0.2697   10.5266 C   0  0  0  0  0  0  0  0  0  0  0  0
  -17.5719    0.3304   11.0241 F   0  0  0  0  0  0  0  0  0  0  0  0
  -16.6163   -1.4643    9.8587 C   0  0  0  0  0  0  0  0  0  0  0  0
  -15.0835   -3.4637    7.2964 C   0  0  0  0  0  0  0  0  0  0  0  0
  -15.1426   -4.6497    6.5249 C   0  0  0  0  0  0  0  0  0  0  0  0
  -15.7612   -5.7937    7.0537 C   0  0  0  0  0  0  0  0  0  0  0  0
  -15.7843   -7.0640    6.3198 C   0  0  0  0  0  0  0  0  0  0  0  0
  -16.9627   -7.7856    6.1593 C   0  0  0  0  0  0  0  0  0  0  0  0
  -16.9774   -8.9936    5.4885 C   0  0  0  0  0  0  0  0  0  0  0  0
  -15.8099   -9.5258    4.9543 C   0  0  0  0  0  0  0  0  0  0  0  0
  -15.6700  -11.0633    4.1068 S   0  0  0  0  0  0  0  0  0  0  0  0
  -17.3963  -11.5617    3.7839 C   0  0  0  0  0  0  0  0  0  0  0  0
  -18.0484  -10.7166    2.7059 C   0  0  0  0  0  0  0  0  0  0  0  0
  -14.6329   -8.7944    5.1300 C   0  0  0  0  0  0  0  0  0  0  0  0
  -14.6051   -7.5888    5.7920 C   0  0  0  0  0  0  0  0  0  0  0  0
  -13.4780   -9.2878    4.6396 F   0  0  0  0  0  0  0  0  0  0  0  0
  -16.3170   -5.6715    8.3209 C   0  0  0  0  0  0  0  0  0  0  0  0
  -17.1079   -6.9479    9.2117 S   0  0  0  0  0  0  0  0  0  0  0  0
  -14.5538   -4.4750    5.2434 C   0  0  0  0  0  0  0  0  0  0  0  0
  -14.0631   -3.2217    5.0371 C   0  0  0  0  0  0  0  0  0  0  0  0
  -14.3036   -2.1735    6.4251 S   0  0  0  0  0  0  0  0  0  0  0  0
  -13.3567   -2.6943    3.9170 C   0  0  0  0  0  0  0  0  0  0  0  0
  -12.9268   -1.4079    3.7874 C   0  0  0  0  0  0  0  0  0  0  0  0
  -12.1446   -1.1741    2.6331 C   0  0  0  0  0  0  0  0  0  0  0  0
  -11.4667    0.0127    2.2878 C   0  0  0  0  0  0  0  0  0  0  0  0
  -11.4906    1.1959    3.1220 C   0  0  0  0  0  0  0  0  0  0  0  0
  -11.5226    2.4990    2.7088 C   0  0  0  0  0  0  0  0  0  0  0  0
  -11.5188    3.4742    3.7262 C   0  0  0  0  0  0  0  0  0  0  0  0
  -11.4533    2.9843    4.9981 C   0  0  0  0  0  0  0  0  0  0  0  0
  -11.3868    3.9743    6.4384 S   0  0  0  0  0  0  0  0  0  0  0  0
  -12.0368    2.8126    7.6946 C   0  0  0  0  0  0  0  0  0  0  0  0
  -13.5154    2.5348    7.5136 C   0  0  0  0  0  0  0  0  0  0  0  0
  -11.3517    1.1052    5.0020 Se  0  0  0  0  0  2  0  0  0  0  0  0
  -10.7145   -0.0385    1.1192 C   0  0  0  0  0  0  0  0  0  0  0  0
  -10.6146   -1.1923    0.3033 C   0  0  0  0  0  0  0  0  0  0  0  0
  -11.2947   -2.3816    0.6488 C   0  0  0  0  0  0  0  0  0  0  0  0
  -11.1990   -3.6028   -0.1200 C   0  0  0  0  0  0  0  0  0  0  0  0
  -12.1905   -4.5326   -0.2909 C   0  0  0  0  0  0  0  0  0  0  0  0
  -11.8469   -5.6939   -1.0034 C   0  0  0  0  0  0  0  0  0  0  0  0
  -10.5455   -5.7564   -1.4174 C   0  0  0  0  0  0  0  0  0  0  0  0
   -9.8691   -7.0871   -2.3175 S   0  0  0  0  0  0  0  0  0  0  0  0
   -8.1446   -6.5132   -2.5357 C   0  0  0  0  0  0  0  0  0  0  0  0
   -7.3312   -7.5692   -3.2520 C   0  0  0  0  0  0  0  0  0  0  0  0
   -9.5969   -4.2133   -0.9191 Se  0  0  0  0  0  2  0  0  0  0  0  0
  -12.0417   -2.3317    1.8252 C   0  0  0  0  0  0  0  0  0  0  0  0
  -12.8766   -3.6829    2.5571 S   0  0  0  0  0  0  0  0  0  0  0  0
   -9.7271   -0.9859   -0.7792 C   0  0  0  0  0  0  0  0  0  0  0  0
   -9.1230    0.2386   -0.7763 C   0  0  0  0  0  0  0  0  0  0  0  0
   -9.6929    1.2460    0.5334 S   0  0  0  0  0  0  0  0  0  0  0  0
   -8.0488    0.6648   -1.6136 C   0  0  0  0  0  0  0  0  0  0  0  0
   -7.3328   -0.1138   -2.4771 C   0  0  0  0  0  0  0  0  0  0  0  0
   -6.1862    0.5291   -3.0010 C   0  0  0  0  0  0  0  0  0  0  0  0
   -5.2042   -0.0170   -3.8430 C   0  0  0  0  0  0  0  0  0  0  0  0
   -5.2301   -1.4129   -4.2962 C   0  0  0  0  0  0  0  0  0  0  0  0
   -5.0267   -1.7289   -5.6361 C   0  0  0  0  0  0  0  0  0  0  0  0
   -4.9687   -3.0414   -6.0625 C   0  0  0  0  0  0  0  0  0  0  0  0
   -5.1124   -4.0882   -5.1594 C   0  0  0  0  0  0  0  0  0  0  0  0
   -4.9850   -5.8032   -5.5558 S   0  0  0  0  0  0  0  0  0  0  0  0
   -5.1915   -5.8640   -7.3676 C   0  0  0  0  0  0  0  0  0  0  0  0
   -6.6063   -5.5251   -7.7950 C   0  0  0  0  0  0  0  0  0  0  0  0
   -5.3198   -3.7566   -3.8199 C   0  0  0  0  0  0  0  0  0  0  0  0
   -5.4512   -4.7490   -2.9131 F   0  0  0  0  0  0  0  0  0  0  0  0
   -5.3817   -2.4535   -3.3816 C   0  0  0  0  0  0  0  0  0  0  0  0
   -4.1306    0.8008   -4.1541 C   0  0  0  0  0  0  0  0  0  0  0  0
   -3.9982    2.1277   -3.6779 C   0  0  0  0  0  0  0  0  0  0  0  0
   -5.0077    2.6938   -2.8797 C   0  0  0  0  0  0  0  0  0  0  0  0
   -4.8983    4.0830   -2.4215 C   0  0  0  0  0  0  0  0  0  0  0  0
   -5.0846    4.4372   -1.0868 C   0  0  0  0  0  0  0  0  0  0  0  0
   -4.9296    5.7454   -0.6807 C   0  0  0  0  0  0  0  0  0  0  0  0
   -4.6015    6.7542   -1.5845 C   0  0  0  0  0  0  0  0  0  0  0  0
   -4.4477    8.3980   -0.9518 S   0  0  0  0  0  0  0  0  0  0  0  0
   -3.0138    9.0889   -1.8592 C   0  0  0  0  0  0  0  0  0  0  0  0
   -1.7638    8.2522   -1.6749 C   0  0  0  0  0  0  0  0  0  0  0  0
   -4.4652    6.3936   -2.9219 C   0  0  0  0  0  0  0  0  0  0  0  0
   -4.5899    5.0846   -3.3382 C   0  0  0  0  0  0  0  0  0  0  0  0
   -4.2037    7.3223   -3.8688 F   0  0  0  0  0  0  0  0  0  0  0  0
   -6.0654    1.8644   -2.5364 C   0  0  0  0  0  0  0  0  0  0  0  0
   -7.3816    2.2765   -1.4686 S   0  0  0  0  0  0  0  0  0  0  0  0
   -2.7202    2.6676   -3.9755 C   0  0  0  0  0  0  0  0  0  0  0  0
   -1.9044    1.8041   -4.6426 C   0  0  0  0  0  0  0  0  0  0  0  0
   -2.7046    0.2866   -5.0160 S   0  0  0  0  0  0  0  0  0  0  0  0
   -0.5088    1.9234   -4.8975 C   0  0  0  0  0  0  0  0  0  0  0  0
    0.2995    0.9585   -5.4206 C   0  0  0  0  0  0  0  0  0  0  0  0
    1.6801    1.2523   -5.3276 C   0  0  0  0  0  0  0  0  0  0  0  0
    2.7580    0.3909   -5.6218 C   0  0  0  0  0  0  0  0  0  0  0  0
    2.5701   -0.9641   -6.0949 C   0  0  0  0  0  0  0  0  0  0  0  0
    3.3488   -1.6428   -6.9912 C   0  0  0  0  0  0  0  0  0  0  0  0
    2.9923   -2.9830   -7.2368 C   0  0  0  0  0  0  0  0  0  0  0  0
    1.9278   -3.4425   -6.5143 C   0  0  0  0  0  0  0  0  0  0  0  0
    1.3294   -5.0845   -6.5980 S   0  0  0  0  0  0  0  0  0  0  0  0
   -0.2393   -4.9736   -5.6662 C   0  0  0  0  0  0  0  0  0  0  0  0
   -1.3462   -4.3095   -6.4597 C   0  0  0  0  0  0  0  0  0  0  0  0
    1.2429   -2.1051   -5.3850 Se  0  0  0  0  0  2  0  0  0  0  0  0
    4.0262    0.8917   -5.3438 C   0  0  0  0  0  0  0  0  0  0  0  0
    4.2525    2.1814   -4.8045 C   0  0  0  0  0  0  0  0  0  0  0  0
    3.1751    3.0427   -4.5030 C   0  0  0  0  0  0  0  0  0  0  0  0
    3.3458    4.3330   -3.8722 C   0  0  0  0  0  0  0  0  0  0  0  0
    2.5668    5.4445   -4.0612 C   0  0  0  0  0  0  0  0  0  0  0  0
    2.8697    6.5645   -3.2677 C   0  0  0  0  0  0  0  0  0  0  0  0
    3.8989    6.3879   -2.3845 C   0  0  0  0  0  0  0  0  0  0  0  0
    4.4775    7.6137   -1.2869 S   0  0  0  0  0  0  0  0  0  0  0  0
    5.9464    6.7756   -0.5819 C   0  0  0  0  0  0  0  0  0  0  0  0
    6.6709    7.7016    0.3713 C   0  0  0  0  0  0  0  0  0  0  0  0
    4.6199    4.6591   -2.5131 Se  0  0  0  0  0  2  0  0  0  0  0  0
    1.9062    2.5362   -4.7756 C   0  0  0  0  0  0  0  0  0  0  0  0
    0.4006    3.3162   -4.3559 S   0  0  0  0  0  0  0  0  0  0  0  0
    5.6240    2.3979   -4.5408 C   0  0  0  0  0  0  0  0  0  0  0  0
    6.4183    1.3180   -4.7915 C   0  0  0  0  0  0  0  0  0  0  0  0
    5.5144   -0.0146   -5.4744 S   0  0  0  0  0  0  0  0  0  0  0  0
    7.7919    1.2027   -4.4306 C   0  0  0  0  0  0  0  0  0  0  0  0
    8.6562    0.1629   -4.5993 C   0  0  0  0  0  0  0  0  0  0  0  0
    9.9053    0.3534   -3.9509 C   0  0  0  0  0  0  0  0  0  0  0  0
   10.9990   -0.5269   -3.8955 C   0  0  0  0  0  0  0  0  0  0  0  0
   11.0180   -1.7935   -4.6361 C   0  0  0  0  0  0  0  0  0  0  0  0
   11.3460   -2.9858   -3.9977 C   0  0  0  0  0  0  0  0  0  0  0  0
   11.4076   -4.1771   -4.6933 C   0  0  0  0  0  0  0  0  0  0  0  0
   11.1583   -4.2167   -6.0601 C   0  0  0  0  0  0  0  0  0  0  0  0
   11.2191   -5.6593   -7.0690 S   0  0  0  0  0  0  0  0  0  0  0  0
   12.0722   -6.8952   -6.0302 C   0  0  0  0  0  0  0  0  0  0  0  0
   13.5427   -6.5761   -5.8360 C   0  0  0  0  0  0  0  0  0  0  0  0
   10.8111   -3.0165   -6.6839 C   0  0  0  0  0  0  0  0  0  0  0  0
   10.5498   -3.0187   -8.0068 F   0  0  0  0  0  0  0  0  0  0  0  0
   10.7344   -1.8243   -6.0002 C   0  0  0  0  0  0  0  0  0  0  0  0
   12.0691   -0.1403   -3.1015 C   0  0  0  0  0  0  0  0  0  0  0  0
   12.1010    1.0803   -2.3835 C   0  0  0  0  0  0  0  0  0  0  0  0
   11.0200    1.9747   -2.4555 C   0  0  0  0  0  0  0  0  0  0  0  0
   11.0218    3.2314   -1.6976 C   0  0  0  0  0  0  0  0  0  0  0  0
   12.1221    4.0848   -1.7067 C   0  0  0  0  0  0  0  0  0  0  0  0
   12.1438    5.2400   -0.9485 C   0  0  0  0  0  0  0  0  0  0  0  0
   11.0561    5.5921   -0.1575 C   0  0  0  0  0  0  0  0  0  0  0  0
   10.9497    7.0147    0.8749 S   0  0  0  0  0  0  0  0  0  0  0  0
   12.6582    7.6525    0.9442 C   0  0  0  0  0  0  0  0  0  0  0  0
   12.9759    8.6084   -0.1906 C   0  0  0  0  0  0  0  0  0  0  0  0
    9.9478    4.7440   -0.1832 C   0  0  0  0  0  0  0  0  0  0  0  0
    9.9180    3.5852   -0.9224 C   0  0  0  0  0  0  0  0  0  0  0  0
    8.8664    5.0603    0.5618 F   0  0  0  0  0  0  0  0  0  0  0  0
    9.9479    1.5795   -3.2392 C   0  0  0  0  0  0  0  0  0  0  0  0
    8.4888    2.4992   -3.4749 S   0  0  0  0  0  0  0  0  0  0  0  0
   13.2833    1.2115   -1.6172 C   0  0  0  0  0  0  0  0  0  0  0  0
   14.1513    0.1703   -1.7664 C   0  0  0  0  0  0  0  0  0  0  0  0
   13.5372   -1.0545   -2.8540 S   0  0  0  0  0  0  0  0  0  0  0  0
   15.4102    0.0475   -1.1047 C   0  0  0  0  0  0  0  0  0  0  0  0
   16.0794    1.0597   -0.4834 C   0  0  0  0  0  0  0  0  0  0  0  0
   17.2631    0.6497    0.1759 C   0  0  0  0  0  0  0  0  0  0  0  0
   18.1411    1.4356    0.9506 C   0  0  0  0  0  0  0  0  0  0  0  0
   17.8984    2.8396    1.2124 C   0  0  0  0  0  0  0  0  0  0  0  0
   18.8342    3.8275    1.3462 C   0  0  0  0  0  0  0  0  0  0  0  0
   18.3544    5.1195    1.6489 C   0  0  0  0  0  0  0  0  0  0  0  0
   17.0019    5.2034    1.7928 C   0  0  0  0  0  0  0  0  0  0  0  0
   15.9959    6.5947    2.1224 S   0  0  0  0  0  0  0  0  0  0  0  0
   17.2290    7.8698    2.5770 C   0  0  0  0  0  0  0  0  0  0  0  0
   16.5040    9.1088    3.0647 C   0  0  0  0  0  0  0  0  0  0  0  0
   16.1649    3.5479    1.5352 Se  0  0  0  0  0  2  0  0  0  0  0  0
   19.2520    0.7684    1.4695 C   0  0  0  0  0  0  0  0  0  0  0  0
   19.5029   -0.6094    1.2665 C   0  0  0  0  0  0  0  0  0  0  0  0
   18.6038   -1.3964    0.5224 C   0  0  0  0  0  0  0  0  0  0  0  0
   18.7931   -2.8192    0.3364 C   0  0  0  0  0  0  0  0  0  0  0  0
   19.1961   -3.7443    1.2576 C   0  0  0  0  0  0  0  0  0  0  0  0
   19.2947   -5.0728    0.7986 C   0  0  0  0  0  0  0  0  0  0  0  0
   18.9886   -5.2531   -0.5204 C   0  0  0  0  0  0  0  0  0  0  0  0
   19.1149   -6.7940   -1.3391 S   0  0  0  0  0  0  0  0  0  0  0  0
   18.2757   -6.4513   -2.9253 C   0  0  0  0  0  0  0  0  0  0  0  0
   16.7686   -6.3816   -2.7837 C   0  0  0  0  0  0  0  0  0  0  0  0
   18.5028   -3.6276   -1.3414 Se  0  0  0  0  0  2  0  0  0  0  0  0
   17.5087   -0.7293   -0.0155 C   0  0  0  0  0  0  0  0  0  0  0  0
   16.2437   -1.4800   -0.9526 S   0  0  0  0  0  0  0  0  0  0  0  0
   20.7172   -1.0235    1.8898 C   0  0  0  0  0  0  0  0  0  0  0  0
   21.3308   -0.0297    2.5615 C   0  0  0  0  0  0  0  0  0  0  0  0
   20.4912    1.4792    2.4718 S   0  0  0  0  0  0  0  0  0  0  0  0
  -17.8069   -6.2906   11.4458 H   0  0  0  0  0  0  0  0  0  0  0  0
  -16.8654   -3.8813   11.1228 H   0  0  0  0  0  0  0  0  0  0  0  0
  -13.3670   -1.9779    9.1072 H   0  0  0  0  0  0  0  0  0  0  0  0
  -13.1311    0.1214   10.2992 H   0  0  0  0  0  0  0  0  0  0  0  0
  -13.0306    2.3678   10.6707 H   0  0  0  0  0  0  0  0  0  0  0  0
  -12.9301    1.4636   12.2104 H   0  0  0  0  0  0  0  0  0  0  0  0
  -12.2163    3.8437   12.5202 H   0  0  0  0  0  0  0  0  0  0  0  0
  -13.6896    3.5028   13.4362 H   0  0  0  0  0  0  0  0  0  0  0  0
  -13.7853    4.3900   11.9142 H   0  0  0  0  0  0  0  0  0  0  0  0
  -17.6025   -1.8838    9.7353 H   0  0  0  0  0  0  0  0  0  0  0  0
  -17.8879   -7.3914    6.5507 H   0  0  0  0  0  0  0  0  0  0  0  0
  -17.9124   -9.5209    5.3940 H   0  0  0  0  0  0  0  0  0  0  0  0
  -17.9473  -11.5414    4.7233 H   0  0  0  0  0  0  0  0  0  0  0  0
  -17.3043  -12.5982    3.4594 H   0  0  0  0  0  0  0  0  0  0  0  0
  -18.0923   -9.6703    3.0007 H   0  0  0  0  0  0  0  0  0  0  0  0
  -19.0613  -11.0691    2.5207 H   0  0  0  0  0  0  0  0  0  0  0  0
  -17.4807  -10.7873    1.7811 H   0  0  0  0  0  0  0  0  0  0  0  0
  -13.6629   -7.0785    5.9160 H   0  0  0  0  0  0  0  0  0  0  0  0
  -14.5078   -5.2452    4.4944 H   0  0  0  0  0  0  0  0  0  0  0  0
  -13.1877   -0.6544    4.5110 H   0  0  0  0  0  0  0  0  0  0  0  0
  -11.6149    2.7694    1.6704 H   0  0  0  0  0  0  0  0  0  0  0  0
  -11.5828    4.5288    3.5215 H   0  0  0  0  0  0  0  0  0  0  0  0
  -11.8320    3.3028    8.6463 H   0  0  0  0  0  0  0  0  0  0  0  0
  -11.4415    1.8964    7.6260 H   0  0  0  0  0  0  0  0  0  0  0  0
  -13.8609    1.8227    8.2610 H   0  0  0  0  0  0  0  0  0  0  0  0
  -14.0901    3.4532    7.6071 H   0  0  0  0  0  0  0  0  0  0  0  0
  -13.7054    2.1053    6.5300 H   0  0  0  0  0  0  0  0  0  0  0  0
  -13.1954   -4.3681    0.0593 H   0  0  0  0  0  0  0  0  0  0  0  0
  -12.5496   -6.4826   -1.2083 H   0  0  0  0  0  0  0  0  0  0  0  0
   -7.7378   -6.3095   -1.5416 H   0  0  0  0  0  0  0  0  0  0  0  0
   -8.1829   -5.5818   -3.1074 H   0  0  0  0  0  0  0  0  0  0  0  0
   -6.3098   -7.2185   -3.3736 H   0  0  0  0  0  0  0  0  0  0  0  0
   -7.7514   -7.7738   -4.2340 H   0  0  0  0  0  0  0  0  0  0  0  0
   -7.3213   -8.4937   -2.6799 H   0  0  0  0  0  0  0  0  0  0  0  0
   -9.5363   -1.7156   -1.5468 H   0  0  0  0  0  0  0  0  0  0  0  0
   -7.5980   -1.1281   -2.7113 H   0  0  0  0  0  0  0  0  0  0  0  0
   -4.9164   -0.9360   -6.3596 H   0  0  0  0  0  0  0  0  0  0  0  0
   -4.7953   -3.2409   -7.1074 H   0  0  0  0  0  0  0  0  0  0  0  0
   -4.9474   -6.8973   -7.6142 H   0  0  0  0  0  0  0  0  0  0  0  0
   -4.4485   -5.2133   -7.8270 H   0  0  0  0  0  0  0  0  0  0  0  0
   -6.6957   -5.6091   -8.8763 H   0  0  0  0  0  0  0  0  0  0  0  0
   -7.3128   -6.2112   -7.3337 H   0  0  0  0  0  0  0  0  0  0  0  0
   -6.8711   -4.5111   -7.5023 H   0  0  0  0  0  0  0  0  0  0  0  0
   -5.5132   -2.2591   -2.3288 H   0  0  0  0  0  0  0  0  0  0  0  0
   -5.3160    3.6782   -0.3562 H   0  0  0  0  0  0  0  0  0  0  0  0
   -5.0541    6.0119    0.3571 H   0  0  0  0  0  0  0  0  0  0  0  0
   -3.2787    9.2027   -2.9080 H   0  0  0  0  0  0  0  0  0  0  0  0
   -2.8938   10.0769   -1.4146 H   0  0  0  0  0  0  0  0  0  0  0  0
   -0.9207    8.7434   -2.1564 H   0  0  0  0  0  0  0  0  0  0  0  0
   -1.8847    7.2660   -2.1196 H   0  0  0  0  0  0  0  0  0  0  0  0
   -1.5381    8.1286   -0.6179 H   0  0  0  0  0  0  0  0  0  0  0  0
   -4.4761    4.8606   -4.3879 H   0  0  0  0  0  0  0  0  0  0  0  0
   -2.3880    3.6359   -3.6456 H   0  0  0  0  0  0  0  0  0  0  0  0
   -0.1066    0.0574   -5.8486 H   0  0  0  0  0  0  0  0  0  0  0  0
    4.1561   -1.1678   -7.5228 H   0  0  0  0  0  0  0  0  0  0  0  0
    3.5145   -3.6037   -7.9440 H   0  0  0  0  0  0  0  0  0  0  0  0
   -0.0295   -4.4348   -4.7374 H   0  0  0  0  0  0  0  0  0  0  0  0
   -0.4919   -6.0067   -5.4295 H   0  0  0  0  0  0  0  0  0  0  0  0
   -1.0840   -3.2796   -6.7040 H   0  0  0  0  0  0  0  0  0  0  0  0
   -2.2597   -4.2979   -5.8690 H   0  0  0  0  0  0  0  0  0  0  0  0
   -1.5247   -4.8528   -7.3850 H   0  0  0  0  0  0  0  0  0  0  0  0
    1.7981    5.4838   -4.8145 H   0  0  0  0  0  0  0  0  0  0  0  0
    2.3398    7.4976   -3.3485 H   0  0  0  0  0  0  0  0  0  0  0  0
    6.5868    6.4882   -1.4206 H   0  0  0  0  0  0  0  0  0  0  0  0
    5.5947    5.8753   -0.0703 H   0  0  0  0  0  0  0  0  0  0  0  0
    7.0007    8.5992   -0.1468 H   0  0  0  0  0  0  0  0  0  0  0  0
    7.5400    7.1940    0.7813 H   0  0  0  0  0  0  0  0  0  0  0  0
    6.0168    7.9938    1.1893 H   0  0  0  0  0  0  0  0  0  0  0  0
    6.0357    3.3222   -4.1710 H   0  0  0  0  0  0  0  0  0  0  0  0
    8.3933   -0.7290   -5.1398 H   0  0  0  0  0  0  0  0  0  0  0  0
   11.5366   -2.9886   -2.9356 H   0  0  0  0  0  0  0  0  0  0  0  0
   11.6483   -5.0789   -4.1546 H   0  0  0  0  0  0  0  0  0  0  0  0
   11.9485   -7.8227   -6.5893 H   0  0  0  0  0  0  0  0  0  0  0  0
   11.5372   -6.9875   -5.0859 H   0  0  0  0  0  0  0  0  0  0  0  0
   14.0129   -7.3565   -5.2401 H   0  0  0  0  0  0  0  0  0  0  0  0
   14.0445   -6.5228   -6.7993 H   0  0  0  0  0  0  0  0  0  0  0  0
   13.6734   -5.6227   -5.3281 H   0  0  0  0  0  0  0  0  0  0  0  0
   10.4856   -0.9230   -6.5385 H   0  0  0  0  0  0  0  0  0  0  0  0
   12.9694    3.8543   -2.3347 H   0  0  0  0  0  0  0  0  0  0  0  0
   13.0220    5.8638   -0.9789 H   0  0  0  0  0  0  0  0  0  0  0  0
   13.3358    6.8009    0.9771 H   0  0  0  0  0  0  0  0  0  0  0  0
   12.7076    8.1680    1.9033 H   0  0  0  0  0  0  0  0  0  0  0  0
   12.3198    9.4747   -0.1484 H   0  0  0  0  0  0  0  0  0  0  0  0
   12.8457    8.1317   -1.1593 H   0  0  0  0  0  0  0  0  0  0  0  0
   14.0071    8.9466   -0.1062 H   0  0  0  0  0  0  0  0  0  0  0  0
    9.0456    2.9544   -0.8655 H   0  0  0  0  0  0  0  0  0  0  0  0
   13.4631    2.0296   -0.9446 H   0  0  0  0  0  0  0  0  0  0  0  0
   15.7451    2.0804   -0.5394 H   0  0  0  0  0  0  0  0  0  0  0  0
   19.8834    3.6532    1.1802 H   0  0  0  0  0  0  0  0  0  0  0  0
   19.0181    5.9607    1.7458 H   0  0  0  0  0  0  0  0  0  0  0  0
   17.8262    8.0847    1.6906 H   0  0  0  0  0  0  0  0  0  0  0  0
   17.8589    7.4453    3.3586 H   0  0  0  0  0  0  0  0  0  0  0  0
   17.2268    9.8707    3.3482 H   0  0  0  0  0  0  0  0  0  0  0  0
   15.8872    8.8732    3.9289 H   0  0  0  0  0  0  0  0  0  0  0  0
   15.8629    9.5095    2.2826 H   0  0  0  0  0  0  0  0  0  0  0  0
   19.3693   -3.4859    2.2891 H   0  0  0  0  0  0  0  0  0  0  0  0
   19.5811   -5.8907    1.4369 H   0  0  0  0  0  0  0  0  0  0  0  0
   18.5747   -7.2722   -3.5765 H   0  0  0  0  0  0  0  0  0  0  0  0
   18.6899   -5.5155   -3.3136 H   0  0  0  0  0  0  0  0  0  0  0  0
   16.3166   -6.2088   -3.7583 H   0  0  0  0  0  0  0  0  0  0  0  0
   16.3828   -7.3124   -2.3744 H   0  0  0  0  0  0  0  0  0  0  0  0
   16.4809   -5.5643   -2.1221 H   0  0  0  0  0  0  0  0  0  0  0  0
   21.1117   -2.0197    1.8113 H   0  0  0  0  0  0  0  0  0  0  0  0
   22.2508   -0.0716    3.1110 H   0  0  0  0  0  0  0  0  0  0  0  0
  1  2  2  0  0  0  0
  2  3  1  0  0  0  0
  3  4  2  0  0  0  0
  4  5  1  0  0  0  0
  5  6  2  0  0  0  0
  6  7  1  0  0  0  0
  7  8  2  0  0  0  0
  8  9  1  0  0  0  0
  9 10  1  0  0  0  0
 10 11  1  0  0  0  0
  8 12  1  0  0  0  0
 12 13  1  0  0  0  0
 12 14  2  0  0  0  0
  4 15  1  0  0  0  0
 15 16  2  0  0  0  0
 16 17  1  0  0  0  0
 17 18  1  0  0  0  0
 18 19  2  0  0  0  0
 19 20  1  0  0  0  0
 20 21  2  0  0  0  0
 21 22  1  0  0  0  0
 22 23  1  0  0  0  0
 23 24  1  0  0  0  0
 21 25  1  0  0  0  0
 25 26  2  0  0  0  0
 25 27  1  0  0  0  0
 17 28  2  0  0  0  0
 28 29  1  0  0  0  0
 16 30  1  0  0  0  0
 30 31  2  0  0  0  0
 31 32  1  0  0  0  0
 31 33  1  0  0  0  0
 33 34  2  0  0  0  0
 34 35  1  0  0  0  0
 35 36  2  0  0  0  0
 36 37  1  0  0  0  0
 37 38  2  0  0  0  0
 38 39  1  0  0  0  0
 39 40  2  0  0  0  0
 40 41  1  0  0  0  0
 41 42  1  0  0  0  0
 42 43  1  0  0  0  0
 40 44  1  0  0  0  0
 36 45  1  0  0  0  0
 45 46  2  0  0  0  0
 46 47  1  0  0  0  0
 47 48  1  0  0  0  0
 48 49  2  0  0  0  0
 49 50  1  0  0  0  0
 50 51  2  0  0  0  0
 51 52  1  0  0  0  0
 52 53  1  0  0  0  0
 53 54  1  0  0  0  0
 51 55  1  0  0  0  0
 47 56  2  0  0  0  0
 56 57  1  0  0  0  0
 46 58  1  0  0  0  0
 58 59  2  0  0  0  0
 59 60  1  0  0  0  0
 59 61  1  0  0  0  0
 61 62  2  0  0  0  0
 62 63  1  0  0  0  0
 63 64  2  0  0  0  0
 64 65  1  0  0  0  0
 65 66  2  0  0  0  0
 66 67  1  0  0  0  0
 67 68  2  0  0  0  0
 68 69  1  0  0  0  0
 69 70  1  0  0  0  0
 70 71  1  0  0  0  0
 68 72  1  0  0  0  0
 72 73  1  0  0  0  0
 72 74  2  0  0  0  0
 64 75  1  0  0  0  0
 75 76  2  0  0  0  0
 76 77  1  0  0  0  0
 77 78  1  0  0  0  0
 78 79  2  0  0  0  0
 79 80  1  0  0  0  0
 80 81  2  0  0  0  0
 81 82  1  0  0  0  0
 82 83  1  0  0  0  0
 83 84  1  0  0  0  0
 81 85  1  0  0  0  0
 85 86  2  0  0  0  0
 85 87  1  0  0  0  0
 77 88  2  0  0  0  0
 88 89  1  0  0  0  0
 76 90  1  0  0  0  0
 90 91  2  0  0  0  0
 91 92  1  0  0  0  0
 91 93  1  0  0  0  0
 93 94  2  0  0  0  0
 94 95  1  0  0  0  0
 95 96  2  0  0  0  0
 96 97  1  0  0  0  0
 97 98  2  0  0  0  0
 98 99  1  0  0  0  0
 99100  2  0  0  0  0
100101  1  0  0  0  0
101102  1  0  0  0  0
102103  1  0  0  0  0
100104  1  0  0  0  0
 96105  1  0  0  0  0
105106  2  0  0  0  0
106107  1  0  0  0  0
107108  1  0  0  0  0
108109  2  0  0  0  0
109110  1  0  0  0  0
110111  2  0  0  0  0
111112  1  0  0  0  0
112113  1  0  0  0  0
113114  1  0  0  0  0
111115  1  0  0  0  0
107116  2  0  0  0  0
116117  1  0  0  0  0
106118  1  0  0  0  0
118119  2  0  0  0  0
119120  1  0  0  0  0
119121  1  0  0  0  0
121122  2  0  0  0  0
122123  1  0  0  0  0
123124  2  0  0  0  0
124125  1  0  0  0  0
125126  2  0  0  0  0
126127  1  0  0  0  0
127128  2  0  0  0  0
128129  1  0  0  0  0
129130  1  0  0  0  0
130131  1  0  0  0  0
128132  1  0  0  0  0
132133  1  0  0  0  0
132134  2  0  0  0  0
124135  1  0  0  0  0
135136  2  0  0  0  0
136137  1  0  0  0  0
137138  1  0  0  0  0
138139  2  0  0  0  0
139140  1  0  0  0  0
140141  2  0  0  0  0
141142  1  0  0  0  0
142143  1  0  0  0  0
143144  1  0  0  0  0
141145  1  0  0  0  0
145146  2  0  0  0  0
145147  1  0  0  0  0
137148  2  0  0  0  0
148149  1  0  0  0  0
136150  1  0  0  0  0
150151  2  0  0  0  0
151152  1  0  0  0  0
151153  1  0  0  0  0
153154  2  0  0  0  0
154155  1  0  0  0  0
155156  2  0  0  0  0
156157  1  0  0  0  0
157158  2  0  0  0  0
158159  1  0  0  0  0
159160  2  0  0  0  0
160161  1  0  0  0  0
161162  1  0  0  0  0
162163  1  0  0  0  0
160164  1  0  0  0  0
156165  1  0  0  0  0
165166  2  0  0  0  0
166167  1  0  0  0  0
167168  1  0  0  0  0
168169  2  0  0  0  0
169170  1  0  0  0  0
170171  2  0  0  0  0
171172  1  0  0  0  0
172173  1  0  0  0  0
173174  1  0  0  0  0
171175  1  0  0  0  0
167176  2  0  0  0  0
176177  1  0  0  0  0
166178  1  0  0  0  0
178179  2  0  0  0  0
179180  1  0  0  0  0
 29  1  1  0  0  0  0
 57 33  1  0  0  0  0
 89 61  1  0  0  0  0
117 93  1  0  0  0  0
149121  1  0  0  0  0
177153  1  0  0  0  0
 28  3  1  0  0  0  0
 56 35  1  0  0  0  0
 88 63  1  0  0  0  0
116 95  1  0  0  0  0
148123  1  0  0  0  0
176155  1  0  0  0  0
 14  5  1  0  0  0  0
 32 15  1  0  0  0  0
 44 37  1  0  0  0  0
 60 45  1  0  0  0  0
 74 65  1  0  0  0  0
 92 75  1  0  0  0  0
104 97  1  0  0  0  0
120105  1  0  0  0  0
134125  1  0  0  0  0
152135  1  0  0  0  0
164157  1  0  0  0  0
180165  1  0  0  0  0
 26 18  1  0  0  0  0
 55 48  1  0  0  0  0
 86 78  1  0  0  0  0
115108  1  0  0  0  0
146138  1  0  0  0  0
175168  1  0  0  0  0
  1181  1  0  0  0  0
  2182  1  0  0  0  0
  6183  1  0  0  0  0
  7184  1  0  0  0  0
 10185  1  0  0  0  0
 10186  1  0  0  0  0
 11187  1  0  0  0  0
 11188  1  0  0  0  0
 11189  1  0  0  0  0
 14190  1  0  0  0  0
 19191  1  0  0  0  0
 20192  1  0  0  0  0
 23193  1  0  0  0  0
 23194  1  0  0  0  0
 24195  1  0  0  0  0
 24196  1  0  0  0  0
 24197  1  0  0  0  0
 26198  1  0  0  0  0
 30199  1  0  0  0  0
 34200  1  0  0  0  0
 38201  1  0  0  0  0
 39202  1  0  0  0  0
 42203  1  0  0  0  0
 42204  1  0  0  0  0
 43205  1  0  0  0  0
 43206  1  0  0  0  0
 43207  1  0  0  0  0
 49208  1  0  0  0  0
 50209  1  0  0  0  0
 53210  1  0  0  0  0
 53211  1  0  0  0  0
 54212  1  0  0  0  0
 54213  1  0  0  0  0
 54214  1  0  0  0  0
 58215  1  0  0  0  0
 62216  1  0  0  0  0
 66217  1  0  0  0  0
 67218  1  0  0  0  0
 70219  1  0  0  0  0
 70220  1  0  0  0  0
 71221  1  0  0  0  0
 71222  1  0  0  0  0
 71223  1  0  0  0  0
 74224  1  0  0  0  0
 79225  1  0  0  0  0
 80226  1  0  0  0  0
 83227  1  0  0  0  0
 83228  1  0  0  0  0
 84229  1  0  0  0  0
 84230  1  0  0  0  0
 84231  1  0  0  0  0
 86232  1  0  0  0  0
 90233  1  0  0  0  0
 94234  1  0  0  0  0
 98235  1  0  0  0  0
 99236  1  0  0  0  0
102237  1  0  0  0  0
102238  1  0  0  0  0
103239  1  0  0  0  0
103240  1  0  0  0  0
103241  1  0  0  0  0
109242  1  0  0  0  0
110243  1  0  0  0  0
113244  1  0  0  0  0
113245  1  0  0  0  0
114246  1  0  0  0  0
114247  1  0  0  0  0
114248  1  0  0  0  0
118249  1  0  0  0  0
122250  1  0  0  0  0
126251  1  0  0  0  0
127252  1  0  0  0  0
130253  1  0  0  0  0
130254  1  0  0  0  0
131255  1  0  0  0  0
131256  1  0  0  0  0
131257  1  0  0  0  0
134258  1  0  0  0  0
139259  1  0  0  0  0
140260  1  0  0  0  0
143261  1  0  0  0  0
143262  1  0  0  0  0
144263  1  0  0  0  0
144264  1  0  0  0  0
144265  1  0  0  0  0
146266  1  0  0  0  0
150267  1  0  0  0  0
154268  1  0  0  0  0
158269  1  0  0  0  0
159270  1  0  0  0  0
162271  1  0  0  0  0
162272  1  0  0  0  0
163273  1  0  0  0  0
163274  1  0  0  0  0
163275  1  0  0  0  0
169276  1  0  0  0  0
170277  1  0  0  0  0
173278  1  0  0  0  0
173279  1  0  0  0  0
174280  1  0  0  0  0
174281  1  0  0  0  0
174282  1  0  0  0  0
178283  1  0  0  0  0
179284  1  0  0  0  0
M  END
