170

C         -7.26460       -2.58830       12.57360
S         -5.77560       -2.24370       11.78520
C         -6.44970       -2.67130       10.22450
C         -7.76120       -3.05250       10.35980
C         -8.22110       -3.00050       11.70320
C         -9.64820       -3.36020       11.97140
C         -9.98670       -3.42160       13.45650
C         -9.98400       -4.69570       11.27800
C         -9.31930       -4.87480        9.90120
C         -8.71770       -3.57760        9.34530
C         -5.60720       -2.55460        9.07720
C         -4.27260       -2.27320        9.08650
C         -3.68400       -2.17570        7.80190
C         -2.32870       -1.94220        7.48760
C         -1.32540       -1.65980        8.49090
C         -0.01790       -2.05960        8.48660
C          0.79230       -1.54650        9.51800
C          0.16370       -0.69510       10.37970
S          0.92800       -0.00070       11.79100
C         -0.15730        1.43180       12.12110
C          0.01250        2.52830       11.08970
Se        -1.65780       -0.49870        9.94150
C         -2.00280       -1.96030        6.13360
C         -2.95490       -2.17710        5.11020
C         -4.30560       -2.43860        5.42250
C         -5.28340       -2.76620        4.40730
C         -6.61480       -2.45520        4.39090
C         -7.37570       -3.02400        3.35020
C         -6.68230       -3.84060        2.50370
S         -7.39800       -4.64760        1.12390
C         -6.28970       -6.08760        0.88950
C         -5.10620       -5.78960       -0.00920
Se        -4.85710       -3.89510        2.95450
C         -4.62960       -2.41120        6.77530
S         -6.21200       -2.71760        7.44050
C         -2.38250       -2.04170        3.82500
C         -1.04590       -1.76590        3.83910
S         -0.41800       -1.65740        5.46480
C         -0.23840       -1.59330        2.67550
C         -0.71710       -1.36250        1.42040
C          0.28300       -1.30210        0.42270
C          0.10180       -1.11550       -0.96270
C         -1.21540       -1.05510       -1.55980
C         -1.62900       -0.25840       -2.59070
C         -2.98020       -0.38430       -2.97140
C         -3.69840       -1.30780       -2.27080
S         -5.38280       -1.68580       -2.55100
C         -5.90630       -2.13390       -0.85670
C         -5.90370       -0.94750        0.08340
Se        -2.61840       -2.19570       -1.00790
C          1.26820       -0.98730       -1.71270
C          2.56780       -1.09120       -1.16140
C          2.74030       -1.38770        0.20810
C          4.04510       -1.64370        0.77130
C          5.09030       -2.29750        0.17670
C          6.26700       -2.41330        0.93910
C          6.20510       -1.85370        2.18470
S          7.52560       -1.92480        3.33080
C          6.86470       -0.97650        4.74470
C          6.94000        0.52020        4.52140
Se         4.51200       -1.09420        2.51250
C          1.57730       -1.44480        0.97100
S          1.50580       -1.71820        2.69420
C          3.57420       -0.83020       -2.13060
C          3.09270       -0.60720       -3.38150
S          1.33900       -0.68020       -3.42440
C          3.77310       -0.20110       -4.58330
S          3.08150        1.18440       -5.39550
C          4.31950        1.17900       -6.62220
C          5.19860        0.14740       -6.38930
C          4.87940       -0.64820       -5.25480
C          5.70620       -1.89060       -5.09360
C          5.35560       -2.80130       -3.92610
C          7.20040       -1.51820       -5.06110
C          7.55820       -0.38790       -6.03710
C          6.47530       -0.16240       -7.09830
C          4.30730        2.13370       -7.69310
S          5.05690        1.70260       -9.21180
C          4.69600        3.26150       -9.88900
C          4.04850        4.05820       -8.98340
C          3.78590        3.40800       -7.75170
C          2.97690        4.08780       -6.68790
C          1.50170        3.69050       -6.83240
C          3.15650        5.60580       -6.79610
C          2.82780        6.11020       -8.19690
C          3.79270        5.51600       -9.21850
C          5.12030        3.59290      -11.23160
S          6.82850        3.75260      -11.55080
C          6.51040        4.17310      -13.18370
C          5.18390        4.17790      -13.47410
C          4.37420        3.83030      -12.35470
C          2.87250        3.74650      -12.44150
C          2.32040        2.48530      -11.77430
C          2.41860        3.79300      -13.90520
C          3.14360        4.88420      -14.68290
C          4.61510        4.50830      -14.81840
H         -7.32780       -2.45660       13.63470
H        -10.26420       -2.57700       11.50890
H         -9.84190       -2.45030       13.92330
H        -11.02530       -3.71540       13.59110
H         -9.35490       -4.14870       13.96210
H        -11.06910       -4.76140       11.18080
H         -9.66850       -5.50950       11.93360
H        -10.04360       -5.26720        9.18630
H         -8.51060       -5.60410        9.98050
H         -9.50980       -2.84320        9.17320
H         -8.23110       -3.77830        8.39200
H         -3.72640       -2.17290       10.00960
H          0.36960       -2.74870        7.75550
H          1.83430       -1.79570        9.61920
H          0.12920        1.77260       13.11540
H         -1.18570        1.05820       12.15200
H         -0.25960        2.16810       10.09790
H          1.04550        2.86750       11.06300
H         -0.62890        3.37150       11.33750
H         -7.05920       -1.79720        5.11800
H         -8.43170       -2.84910        3.23780
H         -5.97200       -6.40910        1.88290
H         -6.92790       -6.85380        0.44970
H         -4.45950       -5.02930        0.43500
H         -5.44310       -5.43950       -0.98230
H         -4.51760       -6.69400       -0.14870
H         -2.93880       -2.12160        2.90710
H         -1.76060       -1.18280        1.23290
H         -0.98550        0.47840       -3.04040
H         -3.42670        0.22240       -3.74010
H         -5.22550       -2.91590       -0.50860
H         -6.90540       -2.55170       -0.96890
H         -6.57580       -0.17180       -0.27550
H         -4.90100       -0.52720        0.16720
H         -6.22930       -1.26560        1.07280
H          4.99800       -2.74920       -0.79650
H          7.14900       -2.91480        0.57950
H          7.47780       -1.28110        5.59240
H          5.83570       -1.31210        4.90460
H          6.34660        0.80890        3.65330
H          7.96970        0.82860        4.35590
H          6.55100        1.04250        5.39270
H          4.61430       -0.73650       -1.88040
H          5.53270       -2.46450       -6.01520
H          4.29110       -3.02080       -3.90910
H          5.63710       -2.34470       -2.98230
H          5.89930       -3.73940       -4.02220
H          7.77720       -2.41530       -5.29360
H          7.46390       -1.21670       -4.04540
H          8.50740       -0.60330       -6.52910
H          7.67930        0.54680       -5.48540
H          6.77480        0.65630       -7.75140
H          6.35980       -1.05720       -7.71630
H          3.32030        3.76400       -5.69940
H          0.89720        4.23060       -6.10750
H          1.13550        3.91140       -7.83140
H          1.37400        2.62550       -6.66000
H          2.51280        6.09570       -6.06310
H          4.19230        5.86070       -6.55830
H          1.80220        5.84380       -8.45370
H          2.89940        7.19950       -8.22460
H          4.75770        6.03060       -9.14400
H          3.42590        5.67880      -10.23350
H          7.32960        4.39360      -13.83920
H          2.44970        4.62050      -11.92710
H          1.25250        2.40430      -11.96660
H          2.81240        1.60110      -12.17390
H          2.47270        2.50720      -10.69970
H          1.34000        3.95960      -13.93550
H          2.62090        2.82710      -14.37420
H          3.05210        5.83560      -14.15350
H          2.69850        5.00360      -15.67230
H          4.70690        3.63460      -15.47210
H          5.18660        5.31960      -15.27470
