
  xtb     03072219433D
 energy: -418.985474694561 gnorm: 0.000644171370 xtb: 6.4.1 (unknown)
250277  0     0  0            999 V2000
    2.6175    1.3478    7.8617 C   0  0  0  0  0  0  0  0  0  0  0  0
    2.9978    0.6632    6.7659 C   0  0  0  0  0  0  0  0  0  0  0  0
    2.0042   -0.2537    6.3050 C   0  0  0  0  0  0  0  0  0  0  0  0
    2.0519   -1.0612    5.1501 C   0  0  0  0  0  0  0  0  0  0  0  0
    3.2540   -0.9503    4.3287 C   0  0  0  0  0  0  0  0  0  0  0  0
    4.5114   -1.2587    4.7556 C   0  0  0  0  0  0  0  0  0  0  0  0
    5.5663   -0.6983    4.0066 C   0  0  0  0  0  0  0  0  0  0  0  0
    5.1704    0.0823    2.9640 C   0  0  0  0  0  0  0  0  0  0  0  0
    6.2567    1.0835    2.0170 S   0  0  0  0  0  0  0  0  0  0  0  0
    5.4164    2.7006    2.2569 C   0  0  0  0  0  0  0  0  0  0  0  0
    6.3322    3.8307    1.8349 C   0  0  0  0  0  0  0  0  0  0  0  0
    3.3042    0.0325    2.7191 Se  0  0  0  0  0  2  0  0  0  0  0  0
    0.9347   -1.8389    4.8907 C   0  0  0  0  0  0  0  0  0  0  0  0
   -0.1999   -1.8274    5.7367 C   0  0  0  0  0  0  0  0  0  0  0  0
   -0.2865   -0.9698    6.8443 C   0  0  0  0  0  0  0  0  0  0  0  0
   -1.5195   -0.7985    7.5831 C   0  0  0  0  0  0  0  0  0  0  0  0
   -1.6759   -0.5693    8.9210 C   0  0  0  0  0  0  0  0  0  0  0  0
   -2.9873   -0.2828    9.3516 C   0  0  0  0  0  0  0  0  0  0  0  0
   -3.9235   -0.2457    8.3622 C   0  0  0  0  0  0  0  0  0  0  0  0
   -5.6304    0.0645    8.6192 S   0  0  0  0  0  0  0  0  0  0  0  0
   -5.9326    1.4097    7.4053 C   0  0  0  0  0  0  0  0  0  0  0  0
   -6.2698    0.8892    6.0235 C   0  0  0  0  0  0  0  0  0  0  0  0
   -3.1691   -0.6676    6.6897 Se  0  0  0  0  0  2  0  0  0  0  0  0
    0.8508   -0.2158    7.1180 C   0  0  0  0  0  0  0  0  0  0  0  0
    1.0304    0.9345    8.4147 S   0  0  0  0  0  0  0  0  0  0  0  0
   -1.1886   -2.7456    5.3064 C   0  0  0  0  0  0  0  0  0  0  0  0
   -0.8677   -3.3687    4.1457 C   0  0  0  0  0  0  0  0  0  0  0  0
    0.7159   -2.9405    3.5449 S   0  0  0  0  0  0  0  0  0  0  0  0
   -1.6618   -4.2986    3.5042 N   0  0  0  0  0  0  0  0  0  0  0  0
   -1.1769   -5.3336    2.7510 C   0  0  0  0  0  0  0  0  0  0  0  0
   -0.0224   -5.4694    2.4182 O   0  0  0  0  0  0  0  0  0  0  0  0
   -2.3450   -6.2492    2.3930 C   0  0  0  0  0  0  0  0  0  0  0  0
   -3.5128   -5.5408    3.0081 C   0  0  0  0  0  0  0  0  0  0  0  0
   -3.0590   -4.3490    3.5827 C   0  0  0  0  0  0  0  0  0  0  0  0
   -3.9408   -3.3919    4.0375 C   0  0  0  0  0  0  0  0  0  0  0  0
   -5.3076   -3.6564    3.9697 C   0  0  0  0  0  0  0  0  0  0  0  0
   -5.7524   -4.8662    3.4526 C   0  0  0  0  0  0  0  0  0  0  0  0
   -4.8625   -5.8093    2.9521 C   0  0  0  0  0  0  0  0  0  0  0  0
   -6.2613   -2.6043    4.4434 C   0  0  0  0  0  0  0  0  0  0  0  0
   -2.4554   -6.2651    0.8559 C   0  0  0  0  0  0  0  0  0  0  0  0
   -3.0069   -4.9041    0.4545 C   0  0  0  0  0  0  0  0  0  0  0  0
   -2.5530   -3.8219    0.7465 O   0  0  0  0  0  0  0  0  0  0  0  0
   -4.1929   -5.1214   -0.2242 N   0  0  0  0  0  0  0  0  0  0  0  0
   -4.4386   -6.4815   -0.3875 C   0  0  0  0  0  0  0  0  0  0  0  0
   -3.4430   -7.2150    0.2660 C   0  0  0  0  0  0  0  0  0  0  0  0
   -3.4899   -8.5907    0.2541 C   0  0  0  0  0  0  0  0  0  0  0  0
   -4.5373   -9.2156   -0.4121 C   0  0  0  0  0  0  0  0  0  0  0  0
   -5.5254   -8.4874   -1.0633 C   0  0  0  0  0  0  0  0  0  0  0  0
   -6.6519   -9.1797   -1.7671 C   0  0  0  0  0  0  0  0  0  0  0  0
   -5.4792   -7.0939   -1.0513 C   0  0  0  0  0  0  0  0  0  0  0  0
   -4.9109   -4.0367   -0.6836 C   0  0  0  0  0  0  0  0  0  0  0  0
   -5.0525   -2.9120    0.0555 C   0  0  0  0  0  0  0  0  0  0  0  0
   -5.4127   -1.7824   -0.7163 C   0  0  0  0  0  0  0  0  0  0  0  0
   -5.3414   -0.4507   -0.2760 C   0  0  0  0  0  0  0  0  0  0  0  0
   -4.7254   -0.1164    0.9931 C   0  0  0  0  0  0  0  0  0  0  0  0
   -4.9647    0.9906    1.7622 C   0  0  0  0  0  0  0  0  0  0  0  0
   -4.0327    1.2336    2.7876 C   0  0  0  0  0  0  0  0  0  0  0  0
   -2.9940    0.3532    2.8344 C   0  0  0  0  0  0  0  0  0  0  0  0
   -1.6727    0.4244    3.9898 S   0  0  0  0  0  0  0  0  0  0  0  0
   -0.2882    1.0718    2.9667 C   0  0  0  0  0  0  0  0  0  0  0  0
   -0.0919    0.3338    1.6632 C   0  0  0  0  0  0  0  0  0  0  0  0
   -3.1743   -1.0354    1.5759 Se  0  0  0  0  0  2  0  0  0  0  0  0
   -5.6007    0.5159   -1.2408 C   0  0  0  0  0  0  0  0  0  0  0  0
   -5.8886    0.2059   -2.5923 C   0  0  0  0  0  0  0  0  0  0  0  0
   -5.9823   -1.1392   -3.0218 C   0  0  0  0  0  0  0  0  0  0  0  0
   -6.3148   -1.4767   -4.3863 C   0  0  0  0  0  0  0  0  0  0  0  0
   -5.8568   -2.5193   -5.1435 C   0  0  0  0  0  0  0  0  0  0  0  0
   -6.4329   -2.6589   -6.4202 C   0  0  0  0  0  0  0  0  0  0  0  0
   -7.3924   -1.7375   -6.7306 C   0  0  0  0  0  0  0  0  0  0  0  0
   -8.1793   -1.6551   -8.2897 S   0  0  0  0  0  0  0  0  0  0  0  0
   -9.6077   -0.5752   -7.9296 C   0  0  0  0  0  0  0  0  0  0  0  0
  -10.6734   -1.2836   -7.1187 C   0  0  0  0  0  0  0  0  0  0  0  0
   -7.6335   -0.5055   -5.3271 Se  0  0  0  0  0  2  0  0  0  0  0  0
   -5.6769   -2.1067   -2.0637 C   0  0  0  0  0  0  0  0  0  0  0  0
   -5.3995   -3.8135   -2.3534 S   0  0  0  0  0  0  0  0  0  0  0  0
   -5.7421    1.3471   -3.4266 C   0  0  0  0  0  0  0  0  0  0  0  0
   -5.3526    2.4736   -2.7622 C   0  0  0  0  0  0  0  0  0  0  0  0
   -5.3171    2.2209   -1.0219 S   0  0  0  0  0  0  0  0  0  0  0  0
   -4.6303    3.5844   -3.2875 C   0  0  0  0  0  0  0  0  0  0  0  0
   -3.9162    4.4839   -2.5488 C   0  0  0  0  0  0  0  0  0  0  0  0
   -2.7901    5.0133   -3.2271 C   0  0  0  0  0  0  0  0  0  0  0  0
   -1.7042    5.6894   -2.6208 C   0  0  0  0  0  0  0  0  0  0  0  0
   -1.8809    6.4486   -1.4147 C   0  0  0  0  0  0  0  0  0  0  0  0
   -0.9655    6.8164   -0.4623 C   0  0  0  0  0  0  0  0  0  0  0  0
   -1.4299    7.6837    0.5415 C   0  0  0  0  0  0  0  0  0  0  0  0
   -2.7372    8.0680    0.4256 C   0  0  0  0  0  0  0  0  0  0  0  0
   -3.5586    9.0661    1.6005 S   0  0  0  0  0  0  0  0  0  0  0  0
   -5.0128    9.6297    0.6487 C   0  0  0  0  0  0  0  0  0  0  0  0
   -4.6455   10.6506   -0.4086 C   0  0  0  0  0  0  0  0  0  0  0  0
   -3.5537    7.2608   -1.0656 Se  0  0  0  0  0  2  0  0  0  0  0  0
   -0.4735    5.4849   -3.2562 C   0  0  0  0  0  0  0  0  0  0  0  0
   -0.3674    4.9208   -4.5454 C   0  0  0  0  0  0  0  0  0  0  0  0
   -1.5214    4.5846   -5.2958 C   0  0  0  0  0  0  0  0  0  0  0  0
   -1.4237    4.2120   -6.6816 C   0  0  0  0  0  0  0  0  0  0  0  0
   -0.4947    4.6871   -7.5737 C   0  0  0  0  0  0  0  0  0  0  0  0
   -0.5834    4.1986   -8.8896 C   0  0  0  0  0  0  0  0  0  0  0  0
   -1.5924    3.3018   -9.0950 C   0  0  0  0  0  0  0  0  0  0  0  0
   -2.0470    2.4773  -10.5703 S   0  0  0  0  0  0  0  0  0  0  0  0
   -0.4813    2.4689  -11.5176 C   0  0  0  0  0  0  0  0  0  0  0  0
    0.5913    1.6343  -10.8467 C   0  0  0  0  0  0  0  0  0  0  0  0
   -2.5881    2.9872   -7.5345 Se  0  0  0  0  0  2  0  0  0  0  0  0
   -2.6915    4.5133   -4.5448 C   0  0  0  0  0  0  0  0  0  0  0  0
   -4.0956    3.5649   -4.9678 S   0  0  0  0  0  0  0  0  0  0  0  0
    0.9573    4.5022   -4.8413 C   0  0  0  0  0  0  0  0  0  0  0  0
    1.8134    4.7037   -3.8051 C   0  0  0  0  0  0  0  0  0  0  0  0
    1.0919    5.5849   -2.4860 S   0  0  0  0  0  0  0  0  0  0  0  0
    3.0279    4.0681   -3.5919 N   0  0  0  0  0  0  0  0  0  0  0  0
    3.3276    3.5885   -2.3224 C   0  0  0  0  0  0  0  0  0  0  0  0
    3.0064    4.1238   -1.2944 O   0  0  0  0  0  0  0  0  0  0  0  0
    4.0721    2.2733   -2.4989 C   0  0  0  0  0  0  0  0  0  0  0  0
    4.4600    2.3116   -3.9463 C   0  0  0  0  0  0  0  0  0  0  0  0
    3.7656    3.3646   -4.5532 C   0  0  0  0  0  0  0  0  0  0  0  0
    3.8996    3.6423   -5.8982 C   0  0  0  0  0  0  0  0  0  0  0  0
    4.7267    2.8270   -6.6663 C   0  0  0  0  0  0  0  0  0  0  0  0
    5.3854    1.7596   -6.0677 C   0  0  0  0  0  0  0  0  0  0  0  0
    5.2549    1.4877   -4.7126 C   0  0  0  0  0  0  0  0  0  0  0  0
    4.8772    3.0837   -8.1347 C   0  0  0  0  0  0  0  0  0  0  0  0
    5.1127    1.9991   -1.3940 C   0  0  0  0  0  0  0  0  0  0  0  0
    4.6376    0.8027   -0.5723 C   0  0  0  0  0  0  0  0  0  0  0  0
    3.6168    0.7300    0.0768 O   0  0  0  0  0  0  0  0  0  0  0  0
    5.5384   -0.2189   -0.7571 N   0  0  0  0  0  0  0  0  0  0  0  0
    6.6627    0.2307   -1.4513 C   0  0  0  0  0  0  0  0  0  0  0  0
    6.4622    1.5540   -1.8568 C   0  0  0  0  0  0  0  0  0  0  0  0
    7.4483    2.2142   -2.5536 C   0  0  0  0  0  0  0  0  0  0  0  0
    8.6253    1.5353   -2.8437 C   0  0  0  0  0  0  0  0  0  0  0  0
    8.8233    0.2187   -2.4476 C   0  0  0  0  0  0  0  0  0  0  0  0
   10.0941   -0.5023   -2.7779 C   0  0  0  0  0  0  0  0  0  0  0  0
    7.8253   -0.4495   -1.7395 C   0  0  0  0  0  0  0  0  0  0  0  0
    5.3933   -1.4176   -0.0753 C   0  0  0  0  0  0  0  0  0  0  0  0
    4.2533   -2.1400   -0.0118 C   0  0  0  0  0  0  0  0  0  0  0  0
    4.3093   -3.1935    0.9436 C   0  0  0  0  0  0  0  0  0  0  0  0
    3.3112   -4.1387    1.2415 C   0  0  0  0  0  0  0  0  0  0  0  0
    2.0271   -4.0818    0.5804 C   0  0  0  0  0  0  0  0  0  0  0  0
    1.3060   -2.9569    0.2846 C   0  0  0  0  0  0  0  0  0  0  0  0
    0.1704   -3.1443   -0.5238 C   0  0  0  0  0  0  0  0  0  0  0  0
   -0.0367   -4.4329   -0.9257 C   0  0  0  0  0  0  0  0  0  0  0  0
   -1.3513   -4.9088   -1.9903 S   0  0  0  0  0  0  0  0  0  0  0  0
   -0.5975   -6.2874   -2.9385 C   0  0  0  0  0  0  0  0  0  0  0  0
   -0.7556   -7.6304   -2.2537 C   0  0  0  0  0  0  0  0  0  0  0  0
    1.2074   -5.6022   -0.1327 Se  0  0  0  0  0  2  0  0  0  0  0  0
    3.6633   -5.1327    2.1525 C   0  0  0  0  0  0  0  0  0  0  0  0
    4.8915   -5.1453    2.8518 C   0  0  0  0  0  0  0  0  0  0  0  0
    5.8468   -4.1308    2.6316 C   0  0  0  0  0  0  0  0  0  0  0  0
    7.0210   -3.9981    3.4600 C   0  0  0  0  0  0  0  0  0  0  0  0
    7.1127   -4.2599    4.8014 C   0  0  0  0  0  0  0  0  0  0  0  0
    8.3525   -3.9812    5.4065 C   0  0  0  0  0  0  0  0  0  0  0  0
    9.3081   -3.4877    4.5645 C   0  0  0  0  0  0  0  0  0  0  0  0
   10.9517   -3.1397    5.0534 S   0  0  0  0  0  0  0  0  0  0  0  0
   11.4921   -2.0185    3.7152 C   0  0  0  0  0  0  0  0  0  0  0  0
   10.8266   -0.6600    3.7962 C   0  0  0  0  0  0  0  0  0  0  0  0
    8.6526   -3.3303    2.8017 Se  0  0  0  0  0  2  0  0  0  0  0  0
    5.5526   -3.2304    1.6104 C   0  0  0  0  0  0  0  0  0  0  0  0
    6.6370   -1.9994    1.0160 S   0  0  0  0  0  0  0  0  0  0  0  0
    5.0035   -6.2972    3.6832 C   0  0  0  0  0  0  0  0  0  0  0  0
    3.9173   -7.0957    3.6196 C   0  0  0  0  0  0  0  0  0  0  0  0
    2.6747   -6.4965    2.5794 S   0  0  0  0  0  0  0  0  0  0  0  0
    3.1715    2.0877    8.4055 H   0  0  0  0  0  0  0  0  0  0  0  0
    3.9495    0.7942    6.2835 H   0  0  0  0  0  0  0  0  0  0  0  0
    4.6892   -1.8390    5.6464 H   0  0  0  0  0  0  0  0  0  0  0  0
    6.6040   -0.8206    4.2718 H   0  0  0  0  0  0  0  0  0  0  0  0
    4.4953    2.6752    1.6696 H   0  0  0  0  0  0  0  0  0  0  0  0
    5.1660    2.7714    3.3163 H   0  0  0  0  0  0  0  0  0  0  0  0
    7.2073    3.8696    2.4800 H   0  0  0  0  0  0  0  0  0  0  0  0
    5.8013    4.7779    1.9023 H   0  0  0  0  0  0  0  0  0  0  0  0
    6.6742    3.6921    0.8110 H   0  0  0  0  0  0  0  0  0  0  0  0
   -0.8502   -0.6156    9.6111 H   0  0  0  0  0  0  0  0  0  0  0  0
   -3.2336   -0.0846   10.3806 H   0  0  0  0  0  0  0  0  0  0  0  0
   -6.7637    1.9740    7.8273 H   0  0  0  0  0  0  0  0  0  0  0  0
   -5.0386    2.0328    7.3961 H   0  0  0  0  0  0  0  0  0  0  0  0
   -6.4899    1.7218    5.3581 H   0  0  0  0  0  0  0  0  0  0  0  0
   -7.1367    0.2337    6.0647 H   0  0  0  0  0  0  0  0  0  0  0  0
   -5.4280    0.3319    5.6061 H   0  0  0  0  0  0  0  0  0  0  0  0
   -2.0703   -2.9820    5.8751 H   0  0  0  0  0  0  0  0  0  0  0  0
   -2.1700   -7.2618    2.7641 H   0  0  0  0  0  0  0  0  0  0  0  0
   -3.6029   -2.4354    4.4118 H   0  0  0  0  0  0  0  0  0  0  0  0
   -6.8125   -5.0677    3.4117 H   0  0  0  0  0  0  0  0  0  0  0  0
   -5.2246   -6.7271    2.5129 H   0  0  0  0  0  0  0  0  0  0  0  0
   -7.2859   -2.9658    4.4354 H   0  0  0  0  0  0  0  0  0  0  0  0
   -6.0019   -2.2921    5.4549 H   0  0  0  0  0  0  0  0  0  0  0  0
   -6.1942   -1.7263    3.7999 H   0  0  0  0  0  0  0  0  0  0  0  0
   -1.4442   -6.4144    0.4588 H   0  0  0  0  0  0  0  0  0  0  0  0
   -2.7274   -9.1744    0.7473 H   0  0  0  0  0  0  0  0  0  0  0  0
   -4.5824  -10.2943   -0.4270 H   0  0  0  0  0  0  0  0  0  0  0  0
   -6.8162   -8.7405   -2.7490 H   0  0  0  0  0  0  0  0  0  0  0  0
   -7.5734   -9.0695   -1.1955 H   0  0  0  0  0  0  0  0  0  0  0  0
   -6.4469  -10.2403   -1.8845 H   0  0  0  0  0  0  0  0  0  0  0  0
   -6.2375   -6.5134   -1.5539 H   0  0  0  0  0  0  0  0  0  0  0  0
   -4.8870   -2.9010    1.1179 H   0  0  0  0  0  0  0  0  0  0  0  0
   -5.8166    1.6297    1.5983 H   0  0  0  0  0  0  0  0  0  0  0  0
   -4.1058    2.0693    3.4627 H   0  0  0  0  0  0  0  0  0  0  0  0
    0.5772    0.9530    3.6230 H   0  0  0  0  0  0  0  0  0  0  0  0
   -0.4760    2.1334    2.8075 H   0  0  0  0  0  0  0  0  0  0  0  0
    0.8807    0.5934    1.2419 H   0  0  0  0  0  0  0  0  0  0  0  0
   -0.1288   -0.7448    1.8246 H   0  0  0  0  0  0  0  0  0  0  0  0
   -0.8607    0.6053    0.9393 H   0  0  0  0  0  0  0  0  0  0  0  0
   -5.0757   -3.1776   -4.8043 H   0  0  0  0  0  0  0  0  0  0  0  0
   -6.1449   -3.4353   -7.1076 H   0  0  0  0  0  0  0  0  0  0  0  0
   -9.9839   -0.2795   -8.9084 H   0  0  0  0  0  0  0  0  0  0  0  0
   -9.2217    0.3082   -7.4110 H   0  0  0  0  0  0  0  0  0  0  0  0
  -11.5141   -0.6143   -6.9490 H   0  0  0  0  0  0  0  0  0  0  0  0
  -10.2777   -1.5922   -6.1513 H   0  0  0  0  0  0  0  0  0  0  0  0
  -11.0270   -2.1665   -7.6460 H   0  0  0  0  0  0  0  0  0  0  0  0
   -5.7714    1.3129   -4.5032 H   0  0  0  0  0  0  0  0  0  0  0  0
   -4.0828    4.6027   -1.4904 H   0  0  0  0  0  0  0  0  0  0  0  0
    0.0460    6.4504   -0.4567 H   0  0  0  0  0  0  0  0  0  0  0  0
   -0.8027    8.0332    1.3435 H   0  0  0  0  0  0  0  0  0  0  0  0
   -5.4763    8.7399    0.2106 H   0  0  0  0  0  0  0  0  0  0  0  0
   -5.6846   10.0534    1.3944 H   0  0  0  0  0  0  0  0  0  0  0  0
   -4.1675   11.5144    0.0475 H   0  0  0  0  0  0  0  0  0  0  0  0
   -3.9599   10.2185   -1.1373 H   0  0  0  0  0  0  0  0  0  0  0  0
   -5.5412   10.9790   -0.9317 H   0  0  0  0  0  0  0  0  0  0  0  0
    0.2298    5.4349   -7.2970 H   0  0  0  0  0  0  0  0  0  0  0  0
    0.0851    4.5311   -9.6653 H   0  0  0  0  0  0  0  0  0  0  0  0
   -0.7639    2.0458  -12.4811 H   0  0  0  0  0  0  0  0  0  0  0  0
   -0.1684    3.5017  -11.6652 H   0  0  0  0  0  0  0  0  0  0  0  0
    0.2490    0.6095  -10.7228 H   0  0  0  0  0  0  0  0  0  0  0  0
    1.4925    1.6309  -11.4570 H   0  0  0  0  0  0  0  0  0  0  0  0
    0.8351    2.0367   -9.8653 H   0  0  0  0  0  0  0  0  0  0  0  0
    1.2054    3.9333   -5.7176 H   0  0  0  0  0  0  0  0  0  0  0  0
    3.2753    1.5190   -2.3905 H   0  0  0  0  0  0  0  0  0  0  0  0
    3.3888    4.4803   -6.3462 H   0  0  0  0  0  0  0  0  0  0  0  0
    6.0168    1.1261   -6.6723 H   0  0  0  0  0  0  0  0  0  0  0  0
    5.7728    0.6491   -4.2748 H   0  0  0  0  0  0  0  0  0  0  0  0
    5.8797    2.8308   -8.4710 H   0  0  0  0  0  0  0  0  0  0  0  0
    4.6770    4.1259   -8.3703 H   0  0  0  0  0  0  0  0  0  0  0  0
    4.1711    2.4678   -8.6927 H   0  0  0  0  0  0  0  0  0  0  0  0
    5.1549    2.8857   -0.7538 H   0  0  0  0  0  0  0  0  0  0  0  0
    7.3111    3.2371   -2.8702 H   0  0  0  0  0  0  0  0  0  0  0  0
    9.4062    2.0455   -3.3875 H   0  0  0  0  0  0  0  0  0  0  0  0
   10.4821   -1.0107   -1.8976 H   0  0  0  0  0  0  0  0  0  0  0  0
    9.9093   -1.2568   -3.5426 H   0  0  0  0  0  0  0  0  0  0  0  0
   10.8487    0.1854   -3.1497 H   0  0  0  0  0  0  0  0  0  0  0  0
    7.9704   -1.4695   -1.4190 H   0  0  0  0  0  0  0  0  0  0  0  0
    3.4004   -1.9365   -0.6311 H   0  0  0  0  0  0  0  0  0  0  0  0
    1.5886   -1.9874    0.6625 H   0  0  0  0  0  0  0  0  0  0  0  0
   -0.4789   -2.3389   -0.8222 H   0  0  0  0  0  0  0  0  0  0  0  0
   -1.1151   -6.2746   -3.8970 H   0  0  0  0  0  0  0  0  0  0  0  0
    0.4525   -6.0327   -3.0862 H   0  0  0  0  0  0  0  0  0  0  0  0
   -0.3532   -8.4157   -2.8904 H   0  0  0  0  0  0  0  0  0  0  0  0
   -1.8052   -7.8398   -2.0578 H   0  0  0  0  0  0  0  0  0  0  0  0
   -0.2095   -7.6451   -1.3079 H   0  0  0  0  0  0  0  0  0  0  0  0
    6.2648   -4.5929    5.3759 H   0  0  0  0  0  0  0  0  0  0  0  0
    8.5351   -4.1269    6.4575 H   0  0  0  0  0  0  0  0  0  0  0  0
   11.2726   -2.5213    2.7677 H   0  0  0  0  0  0  0  0  0  0  0  0
   12.5718   -1.9415    3.8393 H   0  0  0  0  0  0  0  0  0  0  0  0
   11.0194   -0.1997    4.7625 H   0  0  0  0  0  0  0  0  0  0  0  0
    9.7486   -0.7502    3.6607 H   0  0  0  0  0  0  0  0  0  0  0  0
   11.2136   -0.0117    3.0130 H   0  0  0  0  0  0  0  0  0  0  0  0
    5.8801   -6.5326    4.2584 H   0  0  0  0  0  0  0  0  0  0  0  0
    3.7575   -8.0244    4.1322 H   0  0  0  0  0  0  0  0  0  0  0  0
  1  2  2  0  0  0  0
  2  3  1  0  0  0  0
  3  4  2  0  0  0  0
  4  5  1  0  0  0  0
  5  6  2  0  0  0  0
  6  7  1  0  0  0  0
  7  8  2  0  0  0  0
  8  9  1  0  0  0  0
  9 10  1  0  0  0  0
 10 11  1  0  0  0  0
  8 12  1  0  0  0  0
  4 13  1  0  0  0  0
 13 14  2  0  0  0  0
 14 15  1  0  0  0  0
 15 16  1  0  0  0  0
 16 17  2  0  0  0  0
 17 18  1  0  0  0  0
 18 19  2  0  0  0  0
 19 20  1  0  0  0  0
 20 21  1  0  0  0  0
 21 22  1  0  0  0  0
 19 23  1  0  0  0  0
 15 24  2  0  0  0  0
 24 25  1  0  0  0  0
 14 26  1  0  0  0  0
 26 27  2  0  0  0  0
 27 28  1  0  0  0  0
 27 29  1  0  0  0  0
 29 30  1  0  0  0  0
 30 31  2  0  0  0  0
 30 32  1  0  0  0  0
 32 33  1  0  0  0  0
 33 34  2  0  0  0  0
 34 35  1  0  0  0  0
 35 36  2  0  0  0  0
 36 37  1  0  0  0  0
 37 38  2  0  0  0  0
 36 39  1  0  0  0  0
 32 40  1  0  0  0  0
 40 41  1  0  0  0  0
 41 42  2  0  0  0  0
 41 43  1  0  0  0  0
 43 44  1  0  0  0  0
 44 45  2  0  0  0  0
 45 46  1  0  0  0  0
 46 47  2  0  0  0  0
 47 48  1  0  0  0  0
 48 49  1  0  0  0  0
 48 50  2  0  0  0  0
 43 51  1  0  0  0  0
 51 52  2  0  0  0  0
 52 53  1  0  0  0  0
 53 54  2  0  0  0  0
 54 55  1  0  0  0  0
 55 56  2  0  0  0  0
 56 57  1  0  0  0  0
 57 58  2  0  0  0  0
 58 59  1  0  0  0  0
 59 60  1  0  0  0  0
 60 61  1  0  0  0  0
 58 62  1  0  0  0  0
 54 63  1  0  0  0  0
 63 64  2  0  0  0  0
 64 65  1  0  0  0  0
 65 66  1  0  0  0  0
 66 67  2  0  0  0  0
 67 68  1  0  0  0  0
 68 69  2  0  0  0  0
 69 70  1  0  0  0  0
 70 71  1  0  0  0  0
 71 72  1  0  0  0  0
 69 73  1  0  0  0  0
 65 74  2  0  0  0  0
 74 75  1  0  0  0  0
 64 76  1  0  0  0  0
 76 77  2  0  0  0  0
 77 78  1  0  0  0  0
 77 79  1  0  0  0  0
 79 80  2  0  0  0  0
 80 81  1  0  0  0  0
 81 82  2  0  0  0  0
 82 83  1  0  0  0  0
 83 84  2  0  0  0  0
 84 85  1  0  0  0  0
 85 86  2  0  0  0  0
 86 87  1  0  0  0  0
 87 88  1  0  0  0  0
 88 89  1  0  0  0  0
 86 90  1  0  0  0  0
 82 91  1  0  0  0  0
 91 92  2  0  0  0  0
 92 93  1  0  0  0  0
 93 94  1  0  0  0  0
 94 95  2  0  0  0  0
 95 96  1  0  0  0  0
 96 97  2  0  0  0  0
 97 98  1  0  0  0  0
 98 99  1  0  0  0  0
 99100  1  0  0  0  0
 97101  1  0  0  0  0
 93102  2  0  0  0  0
102103  1  0  0  0  0
 92104  1  0  0  0  0
104105  2  0  0  0  0
105106  1  0  0  0  0
105107  1  0  0  0  0
107108  1  0  0  0  0
108109  2  0  0  0  0
108110  1  0  0  0  0
110111  1  0  0  0  0
111112  2  0  0  0  0
112113  1  0  0  0  0
113114  2  0  0  0  0
114115  1  0  0  0  0
115116  2  0  0  0  0
114117  1  0  0  0  0
110118  1  0  0  0  0
118119  1  0  0  0  0
119120  2  0  0  0  0
119121  1  0  0  0  0
121122  1  0  0  0  0
122123  2  0  0  0  0
123124  1  0  0  0  0
124125  2  0  0  0  0
125126  1  0  0  0  0
126127  1  0  0  0  0
126128  2  0  0  0  0
121129  1  0  0  0  0
129130  2  0  0  0  0
130131  1  0  0  0  0
131132  2  0  0  0  0
132133  1  0  0  0  0
133134  2  0  0  0  0
134135  1  0  0  0  0
135136  2  0  0  0  0
136137  1  0  0  0  0
137138  1  0  0  0  0
138139  1  0  0  0  0
136140  1  0  0  0  0
132141  1  0  0  0  0
141142  2  0  0  0  0
142143  1  0  0  0  0
143144  1  0  0  0  0
144145  2  0  0  0  0
145146  1  0  0  0  0
146147  2  0  0  0  0
147148  1  0  0  0  0
148149  1  0  0  0  0
149150  1  0  0  0  0
147151  1  0  0  0  0
143152  2  0  0  0  0
152153  1  0  0  0  0
142154  1  0  0  0  0
154155  2  0  0  0  0
155156  1  0  0  0  0
 25  1  1  0  0  0  0
 34 29  1  0  0  0  0
 45 40  1  0  0  0  0
 75 51  1  0  0  0  0
103 79  1  0  0  0  0
112107  1  0  0  0  0
123118  1  0  0  0  0
153129  1  0  0  0  0
 24  3  1  0  0  0  0
 38 33  1  0  0  0  0
 50 44  1  0  0  0  0
 74 53  1  0  0  0  0
102 81  1  0  0  0  0
116111  1  0  0  0  0
128122  1  0  0  0  0
152131  1  0  0  0  0
 12  5  1  0  0  0  0
 28 13  1  0  0  0  0
 62 55  1  0  0  0  0
 78 63  1  0  0  0  0
 90 83  1  0  0  0  0
106 91  1  0  0  0  0
140133  1  0  0  0  0
156141  1  0  0  0  0
 23 16  1  0  0  0  0
 73 66  1  0  0  0  0
101 94  1  0  0  0  0
151144  1  0  0  0  0
  1157  1  0  0  0  0
  2158  1  0  0  0  0
  6159  1  0  0  0  0
  7160  1  0  0  0  0
 10161  1  0  0  0  0
 10162  1  0  0  0  0
 11163  1  0  0  0  0
 11164  1  0  0  0  0
 11165  1  0  0  0  0
 17166  1  0  0  0  0
 18167  1  0  0  0  0
 21168  1  0  0  0  0
 21169  1  0  0  0  0
 22170  1  0  0  0  0
 22171  1  0  0  0  0
 22172  1  0  0  0  0
 26173  1  0  0  0  0
 32174  1  0  0  0  0
 35175  1  0  0  0  0
 37176  1  0  0  0  0
 38177  1  0  0  0  0
 39178  1  0  0  0  0
 39179  1  0  0  0  0
 39180  1  0  0  0  0
 40181  1  0  0  0  0
 46182  1  0  0  0  0
 47183  1  0  0  0  0
 49184  1  0  0  0  0
 49185  1  0  0  0  0
 49186  1  0  0  0  0
 50187  1  0  0  0  0
 52188  1  0  0  0  0
 56189  1  0  0  0  0
 57190  1  0  0  0  0
 60191  1  0  0  0  0
 60192  1  0  0  0  0
 61193  1  0  0  0  0
 61194  1  0  0  0  0
 61195  1  0  0  0  0
 67196  1  0  0  0  0
 68197  1  0  0  0  0
 71198  1  0  0  0  0
 71199  1  0  0  0  0
 72200  1  0  0  0  0
 72201  1  0  0  0  0
 72202  1  0  0  0  0
 76203  1  0  0  0  0
 80204  1  0  0  0  0
 84205  1  0  0  0  0
 85206  1  0  0  0  0
 88207  1  0  0  0  0
 88208  1  0  0  0  0
 89209  1  0  0  0  0
 89210  1  0  0  0  0
 89211  1  0  0  0  0
 95212  1  0  0  0  0
 96213  1  0  0  0  0
 99214  1  0  0  0  0
 99215  1  0  0  0  0
100216  1  0  0  0  0
100217  1  0  0  0  0
100218  1  0  0  0  0
104219  1  0  0  0  0
110220  1  0  0  0  0
113221  1  0  0  0  0
115222  1  0  0  0  0
116223  1  0  0  0  0
117224  1  0  0  0  0
117225  1  0  0  0  0
117226  1  0  0  0  0
118227  1  0  0  0  0
124228  1  0  0  0  0
125229  1  0  0  0  0
127230  1  0  0  0  0
127231  1  0  0  0  0
127232  1  0  0  0  0
128233  1  0  0  0  0
130234  1  0  0  0  0
134235  1  0  0  0  0
135236  1  0  0  0  0
138237  1  0  0  0  0
138238  1  0  0  0  0
139239  1  0  0  0  0
139240  1  0  0  0  0
139241  1  0  0  0  0
145242  1  0  0  0  0
146243  1  0  0  0  0
149244  1  0  0  0  0
149245  1  0  0  0  0
150246  1  0  0  0  0
150247  1  0  0  0  0
150248  1  0  0  0  0
154249  1  0  0  0  0
155250  1  0  0  0  0
M  END
