
  xtb     03052203583D
 energy: -486.887606018432 gnorm: 0.000868417892 xtb: 6.4.1 (unknown)
284313  0     0  0            999 V2000
  -14.4980  -18.4524    1.6558 C   0  0  0  0  0  0  0  0  0  0  0  0
  -13.2773  -18.5996    1.1041 C   0  0  0  0  0  0  0  0  0  0  0  0
  -12.6875  -17.3606    0.7156 C   0  0  0  0  0  0  0  0  0  0  0  0
  -11.4457  -17.1558    0.0831 C   0  0  0  0  0  0  0  0  0  0  0  0
  -10.6175  -18.2556   -0.3608 C   0  0  0  0  0  0  0  0  0  0  0  0
  -11.0234  -19.4221   -0.9479 C   0  0  0  0  0  0  0  0  0  0  0  0
  -10.0024  -20.3246   -1.3040 C   0  0  0  0  0  0  0  0  0  0  0  0
   -8.7358  -19.9139   -1.0000 C   0  0  0  0  0  0  0  0  0  0  0  0
   -7.3085  -20.8883   -1.2653 S   0  0  0  0  0  0  0  0  0  0  0  0
   -5.9868  -19.6279   -1.1918 C   0  0  0  0  0  0  0  0  0  0  0  0
   -5.9816  -18.7257   -2.4086 C   0  0  0  0  0  0  0  0  0  0  0  0
   -8.7420  -18.2207   -0.1701 Se  0  0  0  0  0  2  0  0  0  0  0  0
  -11.0730  -15.8298   -0.1116 C   0  0  0  0  0  0  0  0  0  0  0  0
  -11.8898  -14.7285    0.2337 C   0  0  0  0  0  0  0  0  0  0  0  0
  -13.1656  -14.9318    0.8006 C   0  0  0  0  0  0  0  0  0  0  0  0
  -14.0693  -13.8393    1.0841 C   0  0  0  0  0  0  0  0  0  0  0  0
  -14.9699  -13.7441    2.1107 C   0  0  0  0  0  0  0  0  0  0  0  0
  -15.7926  -12.6032    2.1201 C   0  0  0  0  0  0  0  0  0  0  0  0
  -15.6004  -11.7393    1.0784 C   0  0  0  0  0  0  0  0  0  0  0  0
  -16.4918  -10.2561    0.8524 S   0  0  0  0  0  0  0  0  0  0  0  0
  -15.6389   -9.5708   -0.6162 C   0  0  0  0  0  0  0  0  0  0  0  0
  -16.2835   -8.2649   -1.0293 C   0  0  0  0  0  0  0  0  0  0  0  0
  -14.2457  -12.3508   -0.0712 Se  0  0  0  0  0  2  0  0  0  0  0  0
  -13.5143  -16.2612    1.0458 C   0  0  0  0  0  0  0  0  0  0  0  0
  -15.0127  -16.8056    1.7555 S   0  0  0  0  0  0  0  0  0  0  0  0
  -11.2534  -13.4974   -0.0576 C   0  0  0  0  0  0  0  0  0  0  0  0
  -10.0273  -13.6330   -0.6393 C   0  0  0  0  0  0  0  0  0  0  0  0
   -9.5782  -15.3103   -0.8408 S   0  0  0  0  0  0  0  0  0  0  0  0
   -9.1697  -12.5797   -1.0753 C   0  0  0  0  0  0  0  0  0  0  0  0
   -9.4909  -11.2571   -1.1706 C   0  0  0  0  0  0  0  0  0  0  0  0
   -8.4335  -10.4504   -1.6553 C   0  0  0  0  0  0  0  0  0  0  0  0
   -8.4298   -9.0570   -1.8335 C   0  0  0  0  0  0  0  0  0  0  0  0
   -9.6438   -8.2649   -1.6048 C   0  0  0  0  0  0  0  0  0  0  0  0
  -10.8560   -8.6350   -2.1871 C   0  0  0  0  0  0  0  0  0  0  0  0
  -11.9958   -7.8924   -1.9689 C   0  0  0  0  0  0  0  0  0  0  0  0
  -11.9805   -6.7609   -1.1547 C   0  0  0  0  0  0  0  0  0  0  0  0
  -13.5190   -5.9260   -0.9032 S   0  0  0  0  0  0  0  0  0  0  0  0
  -13.0790   -4.1502   -0.8848 C   0  0  0  0  0  0  0  0  0  0  0  0
  -12.3720   -3.7257   -2.1558 C   0  0  0  0  0  0  0  0  0  0  0  0
  -10.7681   -6.4140   -0.5663 C   0  0  0  0  0  0  0  0  0  0  0  0
  -10.6815   -5.3553    0.2679 F   0  0  0  0  0  0  0  0  0  0  0  0
   -9.6135   -7.1349   -0.7953 C   0  0  0  0  0  0  0  0  0  0  0  0
   -7.2307   -8.4863   -2.2292 C   0  0  0  0  0  0  0  0  0  0  0  0
   -6.0558   -9.2417   -2.4741 C   0  0  0  0  0  0  0  0  0  0  0  0
   -6.0645  -10.6379   -2.3098 C   0  0  0  0  0  0  0  0  0  0  0  0
   -4.8541  -11.4431   -2.5099 C   0  0  0  0  0  0  0  0  0  0  0  0
   -3.6510  -11.0901   -1.8981 C   0  0  0  0  0  0  0  0  0  0  0  0
   -2.5164  -11.8473   -2.0890 C   0  0  0  0  0  0  0  0  0  0  0  0
   -2.5321  -12.9915   -2.8870 C   0  0  0  0  0  0  0  0  0  0  0  0
   -1.0209  -13.8898   -3.0319 S   0  0  0  0  0  0  0  0  0  0  0  0
   -1.0968  -14.6183   -4.7180 C   0  0  0  0  0  0  0  0  0  0  0  0
    0.3169  -14.8719   -5.2032 C   0  0  0  0  0  0  0  0  0  0  0  0
   -3.7483  -13.3536   -3.4586 C   0  0  0  0  0  0  0  0  0  0  0  0
   -4.8882  -12.5941   -3.2896 C   0  0  0  0  0  0  0  0  0  0  0  0
   -3.8569  -14.4766   -4.2046 F   0  0  0  0  0  0  0  0  0  0  0  0
   -7.2640  -11.2089   -1.9125 C   0  0  0  0  0  0  0  0  0  0  0  0
   -7.5269  -12.9019   -1.5837 S   0  0  0  0  0  0  0  0  0  0  0  0
   -4.9804   -8.4206   -2.8954 C   0  0  0  0  0  0  0  0  0  0  0  0
   -5.2936   -7.0935   -2.9514 C   0  0  0  0  0  0  0  0  0  0  0  0
   -6.9626   -6.7884   -2.5184 S   0  0  0  0  0  0  0  0  0  0  0  0
   -4.4132   -6.0055   -3.2342 C   0  0  0  0  0  0  0  0  0  0  0  0
   -3.0562   -6.0565   -3.3717 C   0  0  0  0  0  0  0  0  0  0  0  0
   -2.4537   -4.7844   -3.5315 C   0  0  0  0  0  0  0  0  0  0  0  0
   -1.0818   -4.4916   -3.6322 C   0  0  0  0  0  0  0  0  0  0  0  0
   -0.0843   -5.5641   -3.7206 C   0  0  0  0  0  0  0  0  0  0  0  0
   -0.2336   -6.5967   -4.6465 C   0  0  0  0  0  0  0  0  0  0  0  0
    0.7110   -7.5949   -4.7452 C   0  0  0  0  0  0  0  0  0  0  0  0
    1.8341   -7.6159   -3.9196 C   0  0  0  0  0  0  0  0  0  0  0  0
    2.9486   -8.9763   -4.1055 S   0  0  0  0  0  0  0  0  0  0  0  0
    4.6084   -8.2284   -3.9105 C   0  0  0  0  0  0  0  0  0  0  0  0
    4.8484   -7.1089   -4.9032 C   0  0  0  0  0  0  0  0  0  0  0  0
    1.9549   -6.5941   -2.9836 C   0  0  0  0  0  0  0  0  0  0  0  0
    2.9941   -6.5685   -2.1171 F   0  0  0  0  0  0  0  0  0  0  0  0
    1.0304   -5.5742   -2.8891 C   0  0  0  0  0  0  0  0  0  0  0  0
   -0.7330   -3.1504   -3.6322 C   0  0  0  0  0  0  0  0  0  0  0  0
   -1.6921   -2.1075   -3.6125 C   0  0  0  0  0  0  0  0  0  0  0  0
   -3.0660   -2.3993   -3.5740 C   0  0  0  0  0  0  0  0  0  0  0  0
   -4.0475   -1.3085   -3.5762 C   0  0  0  0  0  0  0  0  0  0  0  0
   -5.0603   -1.2327   -2.6224 C   0  0  0  0  0  0  0  0  0  0  0  0
   -5.9087   -0.1462   -2.5866 C   0  0  0  0  0  0  0  0  0  0  0  0
   -5.7938    0.8950   -3.5047 C   0  0  0  0  0  0  0  0  0  0  0  0
   -6.9123    2.2575   -3.3573 S   0  0  0  0  0  0  0  0  0  0  0  0
   -5.8395    3.7175   -3.6351 C   0  0  0  0  0  0  0  0  0  0  0  0
   -4.6671    3.7579   -2.6754 C   0  0  0  0  0  0  0  0  0  0  0  0
   -4.8225    0.7723   -4.4940 C   0  0  0  0  0  0  0  0  0  0  0  0
   -3.9504   -0.2955   -4.5267 C   0  0  0  0  0  0  0  0  0  0  0  0
   -4.6955    1.7091   -5.4593 F   0  0  0  0  0  0  0  0  0  0  0  0
   -3.4112   -3.7390   -3.4962 C   0  0  0  0  0  0  0  0  0  0  0  0
   -5.0278   -4.3690   -3.3324 S   0  0  0  0  0  0  0  0  0  0  0  0
   -1.0820   -0.8314   -3.5495 C   0  0  0  0  0  0  0  0  0  0  0  0
    0.2796   -0.8727   -3.5345 C   0  0  0  0  0  0  0  0  0  0  0  0
    0.8934   -2.5113   -3.6400 S   0  0  0  0  0  0  0  0  0  0  0  0
    1.1562    0.2304   -3.3304 C   0  0  0  0  0  0  0  0  0  0  0  0
    2.5025    0.2142   -3.1207 C   0  0  0  0  0  0  0  0  0  0  0  0
    3.0427    1.4783   -2.7759 C   0  0  0  0  0  0  0  0  0  0  0  0
    4.3592    1.7692   -2.3590 C   0  0  0  0  0  0  0  0  0  0  0  0
    5.3923    0.7645   -2.2346 C   0  0  0  0  0  0  0  0  0  0  0  0
    6.7275    0.9300   -2.4835 C   0  0  0  0  0  0  0  0  0  0  0  0
    7.5547   -0.1732   -2.2027 C   0  0  0  0  0  0  0  0  0  0  0  0
    6.9140   -1.2625   -1.6838 C   0  0  0  0  0  0  0  0  0  0  0  0
    7.7376   -2.7179   -1.1750 S   0  0  0  0  0  0  0  0  0  0  0  0
    6.3465   -3.8793   -0.9408 C   0  0  0  0  0  0  0  0  0  0  0  0
    5.7789   -4.3760   -2.2541 C   0  0  0  0  0  0  0  0  0  0  0  0
    5.0678   -0.9493   -1.5135 Se  0  0  0  0  0  2  0  0  0  0  0  0
    4.6034    3.0905   -1.9920 C   0  0  0  0  0  0  0  0  0  0  0  0
    3.6191    4.1061   -2.0411 C   0  0  0  0  0  0  0  0  0  0  0  0
    2.2973    3.8162   -2.4396 C   0  0  0  0  0  0  0  0  0  0  0  0
    1.2272    4.7881   -2.3794 C   0  0  0  0  0  0  0  0  0  0  0  0
    0.1375    4.8727   -3.2045 C   0  0  0  0  0  0  0  0  0  0  0  0
   -0.8393    5.8235   -2.8563 C   0  0  0  0  0  0  0  0  0  0  0  0
   -0.5824    6.5242   -1.7109 C   0  0  0  0  0  0  0  0  0  0  0  0
   -1.6218    7.7619   -1.0486 S   0  0  0  0  0  0  0  0  0  0  0  0
   -0.7232    8.1622    0.4943 C   0  0  0  0  0  0  0  0  0  0  0  0
   -1.5081    9.1647    1.3118 C   0  0  0  0  0  0  0  0  0  0  0  0
    1.0647    6.0257   -0.9583 Se  0  0  0  0  0  2  0  0  0  0  0  0
    2.0545    2.4931   -2.7971 C   0  0  0  0  0  0  0  0  0  0  0  0
    0.4884    1.8433   -3.1983 S   0  0  0  0  0  0  0  0  0  0  0  0
    4.1133    5.3379   -1.5600 C   0  0  0  0  0  0  0  0  0  0  0  0
    5.3903    5.2747   -1.0796 C   0  0  0  0  0  0  0  0  0  0  0  0
    6.0880    3.6878   -1.2923 S   0  0  0  0  0  0  0  0  0  0  0  0
    6.0471    6.3253   -0.3741 C   0  0  0  0  0  0  0  0  0  0  0  0
    5.5642    7.5927   -0.2159 C   0  0  0  0  0  0  0  0  0  0  0  0
    6.3015    8.3814    0.6957 C   0  0  0  0  0  0  0  0  0  0  0  0
    6.0065    9.6882    1.1389 C   0  0  0  0  0  0  0  0  0  0  0  0
    4.8077   10.3889    0.7210 C   0  0  0  0  0  0  0  0  0  0  0  0
    4.6939   11.7243    0.4445 C   0  0  0  0  0  0  0  0  0  0  0  0
    3.4063   12.1750    0.0919 C   0  0  0  0  0  0  0  0  0  0  0  0
    2.4410   11.2154    0.0859 C   0  0  0  0  0  0  0  0  0  0  0  0
    0.7589   11.4556   -0.3676 S   0  0  0  0  0  0  0  0  0  0  0  0
    0.9181   11.3036   -2.1910 C   0  0  0  0  0  0  0  0  0  0  0  0
    1.1499    9.8747   -2.6353 C   0  0  0  0  0  0  0  0  0  0  0  0
    3.1296    9.5379    0.5875 Se  0  0  0  0  0  2  0  0  0  0  0  0
    6.9204   10.2516    2.0255 C   0  0  0  0  0  0  0  0  0  0  0  0
    8.0580    9.5561    2.5032 C   0  0  0  0  0  0  0  0  0  0  0  0
    8.3092    8.2227    2.1178 C   0  0  0  0  0  0  0  0  0  0  0  0
    9.4079    7.4763    2.6881 C   0  0  0  0  0  0  0  0  0  0  0  0
    9.8336    7.4961    3.9883 C   0  0  0  0  0  0  0  0  0  0  0  0
   10.9596    6.7055    4.2835 C   0  0  0  0  0  0  0  0  0  0  0  0
   11.4854    6.0292    3.2190 C   0  0  0  0  0  0  0  0  0  0  0  0
   12.9511    5.0812    3.3134 S   0  0  0  0  0  0  0  0  0  0  0  0
   12.8281    4.0602    1.8045 C   0  0  0  0  0  0  0  0  0  0  0  0
   11.7644    2.9884    1.9221 C   0  0  0  0  0  0  0  0  0  0  0  0
   10.5023    6.3547    1.6413 Se  0  0  0  0  0  2  0  0  0  0  0  0
    7.4263    7.6812    1.1926 C   0  0  0  0  0  0  0  0  0  0  0  0
    7.5012    6.0589    0.5595 S   0  0  0  0  0  0  0  0  0  0  0  0
    8.8380   10.3524    3.3709 C   0  0  0  0  0  0  0  0  0  0  0  0
    8.3156   11.5904    3.6084 C   0  0  0  0  0  0  0  0  0  0  0  0
    6.8242   11.8463    2.7306 S   0  0  0  0  0  0  0  0  0  0  0  0
    8.8900   12.5723    4.4715 C   0  0  0  0  0  0  0  0  0  0  0  0
    9.9865   12.3777    5.2590 C   0  0  0  0  0  0  0  0  0  0  0  0
   10.3536   13.5137    6.0183 C   0  0  0  0  0  0  0  0  0  0  0  0
   11.4290   13.6218    6.9128 C   0  0  0  0  0  0  0  0  0  0  0  0
   12.2663   12.4443    7.1822 C   0  0  0  0  0  0  0  0  0  0  0  0
   11.6771   11.2556    7.6117 C   0  0  0  0  0  0  0  0  0  0  0  0
   12.4332   10.1142    7.7727 C   0  0  0  0  0  0  0  0  0  0  0  0
   13.7996   10.1147    7.5088 C   0  0  0  0  0  0  0  0  0  0  0  0
   14.6938    8.5964    7.7176 S   0  0  0  0  0  0  0  0  0  0  0  0
   15.5756    8.4517    6.1189 C   0  0  0  0  0  0  0  0  0  0  0  0
   14.6137    8.2992    4.9573 C   0  0  0  0  0  0  0  0  0  0  0  0
   14.3843   11.3210    7.1366 C   0  0  0  0  0  0  0  0  0  0  0  0
   15.7124   11.3955    6.9103 F   0  0  0  0  0  0  0  0  0  0  0  0
   13.6391   12.4717    6.9667 C   0  0  0  0  0  0  0  0  0  0  0  0
   11.6286   14.8637    7.4920 C   0  0  0  0  0  0  0  0  0  0  0  0
   10.7734   15.9689    7.2548 C   0  0  0  0  0  0  0  0  0  0  0  0
    9.6748   15.8471    6.3892 C   0  0  0  0  0  0  0  0  0  0  0  0
    8.7426   16.9589    6.1653 C   0  0  0  0  0  0  0  0  0  0  0  0
    8.3979   17.3590    4.8781 C   0  0  0  0  0  0  0  0  0  0  0  0
    7.5091   18.3947    4.6647 C   0  0  0  0  0  0  0  0  0  0  0  0
    6.9203   19.0599    5.7338 C   0  0  0  0  0  0  0  0  0  0  0  0
    5.7847   20.4005    5.6056 S   0  0  0  0  0  0  0  0  0  0  0  0
    5.2128   20.3358    3.8726 C   0  0  0  0  0  0  0  0  0  0  0  0
    4.3426   19.1243    3.5980 C   0  0  0  0  0  0  0  0  0  0  0  0
    7.2793   18.6510    7.0198 C   0  0  0  0  0  0  0  0  0  0  0  0
    8.1698   17.6265    7.2465 C   0  0  0  0  0  0  0  0  0  0  0  0
    6.7336   19.2768    8.0822 F   0  0  0  0  0  0  0  0  0  0  0  0
    9.5059   14.6183    5.7668 C   0  0  0  0  0  0  0  0  0  0  0  0
    8.2461   14.1935    4.6320 S   0  0  0  0  0  0  0  0  0  0  0  0
   11.2108   17.1249    7.9686 C   0  0  0  0  0  0  0  0  0  0  0  0
   12.3103   16.8983    8.7152 C   0  0  0  0  0  0  0  0  0  0  0  0
   12.9024   15.2752    8.6095 S   0  0  0  0  0  0  0  0  0  0  0  0
  -15.1487  -19.2159    2.0352 H   0  0  0  0  0  0  0  0  0  0  0  0
  -12.7856  -19.5485    0.9948 H   0  0  0  0  0  0  0  0  0  0  0  0
  -12.0565  -19.6117   -1.1876 H   0  0  0  0  0  0  0  0  0  0  0  0
  -10.1977  -21.2628   -1.7938 H   0  0  0  0  0  0  0  0  0  0  0  0
   -5.0638  -20.2021   -1.1176 H   0  0  0  0  0  0  0  0  0  0  0  0
   -6.1331  -19.0614   -0.2666 H   0  0  0  0  0  0  0  0  0  0  0  0
   -5.8601  -19.3123   -3.3162 H   0  0  0  0  0  0  0  0  0  0  0  0
   -6.9150  -18.1666   -2.4776 H   0  0  0  0  0  0  0  0  0  0  0  0
   -5.1622  -18.0138   -2.3367 H   0  0  0  0  0  0  0  0  0  0  0  0
  -15.0177  -14.4736    2.9008 H   0  0  0  0  0  0  0  0  0  0  0  0
  -16.5206  -12.4163    2.8901 H   0  0  0  0  0  0  0  0  0  0  0  0
  -15.7125  -10.3215   -1.4093 H   0  0  0  0  0  0  0  0  0  0  0  0
  -14.5892   -9.4268   -0.3446 H   0  0  0  0  0  0  0  0  0  0  0  0
  -17.3334   -8.4168   -1.2678 H   0  0  0  0  0  0  0  0  0  0  0  0
  -16.2082   -7.5356   -0.2270 H   0  0  0  0  0  0  0  0  0  0  0  0
  -15.7770   -7.8625   -1.9030 H   0  0  0  0  0  0  0  0  0  0  0  0
  -11.6604  -12.5349    0.1988 H   0  0  0  0  0  0  0  0  0  0  0  0
  -10.4516  -10.8649   -0.8928 H   0  0  0  0  0  0  0  0  0  0  0  0
  -10.8948   -9.4944   -2.8388 H   0  0  0  0  0  0  0  0  0  0  0  0
  -12.9283   -8.1770   -2.4313 H   0  0  0  0  0  0  0  0  0  0  0  0
  -12.4858   -3.9413    0.0026 H   0  0  0  0  0  0  0  0  0  0  0  0
  -14.0471   -3.6579   -0.7891 H   0  0  0  0  0  0  0  0  0  0  0  0
  -12.2030   -2.6510   -2.1373 H   0  0  0  0  0  0  0  0  0  0  0  0
  -11.4077   -4.2216   -2.2504 H   0  0  0  0  0  0  0  0  0  0  0  0
  -12.9739   -3.9702   -3.0288 H   0  0  0  0  0  0  0  0  0  0  0  0
   -8.7047   -6.8231   -0.3049 H   0  0  0  0  0  0  0  0  0  0  0  0
   -3.6135  -10.2246   -1.2542 H   0  0  0  0  0  0  0  0  0  0  0  0
   -1.5864  -11.5677   -1.6187 H   0  0  0  0  0  0  0  0  0  0  0  0
   -1.6084  -13.8999   -5.3565 H   0  0  0  0  0  0  0  0  0  0  0  0
   -1.6698  -15.5430   -4.6693 H   0  0  0  0  0  0  0  0  0  0  0  0
    0.8838  -13.9440   -5.2295 H   0  0  0  0  0  0  0  0  0  0  0  0
    0.2901  -15.2962   -6.2046 H   0  0  0  0  0  0  0  0  0  0  0  0
    0.8278  -15.5689   -4.5428 H   0  0  0  0  0  0  0  0  0  0  0  0
   -5.7964  -12.9124   -3.7770 H   0  0  0  0  0  0  0  0  0  0  0  0
   -4.0134   -8.8073   -3.1587 H   0  0  0  0  0  0  0  0  0  0  0  0
   -2.4930   -6.9697   -3.3137 H   0  0  0  0  0  0  0  0  0  0  0  0
   -1.0821   -6.5946   -5.3136 H   0  0  0  0  0  0  0  0  0  0  0  0
    0.5986   -8.3840   -5.4723 H   0  0  0  0  0  0  0  0  0  0  0  0
    5.2792   -9.0676   -4.0950 H   0  0  0  0  0  0  0  0  0  0  0  0
    4.7312   -7.8979   -2.8815 H   0  0  0  0  0  0  0  0  0  0  0  0
    5.8750   -6.7588   -4.8189 H   0  0  0  0  0  0  0  0  0  0  0  0
    4.1828   -6.2688   -4.7135 H   0  0  0  0  0  0  0  0  0  0  0  0
    4.6819   -7.4591   -5.9197 H   0  0  0  0  0  0  0  0  0  0  0  0
    1.1748   -4.8138   -2.1379 H   0  0  0  0  0  0  0  0  0  0  0  0
   -5.1566   -2.0081   -1.8788 H   0  0  0  0  0  0  0  0  0  0  0  0
   -6.6734   -0.0764   -1.8290 H   0  0  0  0  0  0  0  0  0  0  0  0
   -5.5177    3.7280   -4.6743 H   0  0  0  0  0  0  0  0  0  0  0  0
   -6.5150    4.5557   -3.4643 H   0  0  0  0  0  0  0  0  0  0  0  0
   -3.9783    2.9361   -2.8634 H   0  0  0  0  0  0  0  0  0  0  0  0
   -5.0131    3.6896   -1.6461 H   0  0  0  0  0  0  0  0  0  0  0  0
   -4.1244    4.6932   -2.7973 H   0  0  0  0  0  0  0  0  0  0  0  0
   -3.2135   -0.3410   -5.3140 H   0  0  0  0  0  0  0  0  0  0  0  0
   -1.6293    0.0902   -3.4653 H   0  0  0  0  0  0  0  0  0  0  0  0
    3.0773   -0.6928   -3.2090 H   0  0  0  0  0  0  0  0  0  0  0  0
    7.1211    1.8322   -2.9204 H   0  0  0  0  0  0  0  0  0  0  0  0
    8.6158   -0.1668   -2.3821 H   0  0  0  0  0  0  0  0  0  0  0  0
    5.5906   -3.3635   -0.3407 H   0  0  0  0  0  0  0  0  0  0  0  0
    6.7668   -4.6977   -0.3572 H   0  0  0  0  0  0  0  0  0  0  0  0
    6.5510   -4.8734   -2.8364 H   0  0  0  0  0  0  0  0  0  0  0  0
    4.9739   -5.0793   -2.0591 H   0  0  0  0  0  0  0  0  0  0  0  0
    5.3801   -3.5479   -2.8409 H   0  0  0  0  0  0  0  0  0  0  0  0
    0.0450    4.2749   -4.0954 H   0  0  0  0  0  0  0  0  0  0  0  0
   -1.7269    5.9875   -3.4423 H   0  0  0  0  0  0  0  0  0  0  0  0
   -0.5855    7.2225    1.0370 H   0  0  0  0  0  0  0  0  0  0  0  0
    0.2562    8.5670    0.2115 H   0  0  0  0  0  0  0  0  0  0  0  0
   -2.4924    8.7719    1.5568 H   0  0  0  0  0  0  0  0  0  0  0  0
   -0.9741    9.3798    2.2343 H   0  0  0  0  0  0  0  0  0  0  0  0
   -1.6266   10.0934    0.7591 H   0  0  0  0  0  0  0  0  0  0  0  0
    3.5436    6.2505   -1.5560 H   0  0  0  0  0  0  0  0  0  0  0  0
    4.7097    7.9521   -0.7611 H   0  0  0  0  0  0  0  0  0  0  0  0
    5.5434   12.3859    0.4505 H   0  0  0  0  0  0  0  0  0  0  0  0
    3.1973   13.1998   -0.1646 H   0  0  0  0  0  0  0  0  0  0  0  0
   -0.0232   11.6901   -2.5782 H   0  0  0  0  0  0  0  0  0  0  0  0
    1.7338   11.9601   -2.4931 H   0  0  0  0  0  0  0  0  0  0  0  0
    0.2926    9.2537   -2.3861 H   0  0  0  0  0  0  0  0  0  0  0  0
    1.2987    9.8421   -3.7130 H   0  0  0  0  0  0  0  0  0  0  0  0
    2.0368    9.4577   -2.1542 H   0  0  0  0  0  0  0  0  0  0  0  0
    9.3012    8.0333    4.7555 H   0  0  0  0  0  0  0  0  0  0  0  0
   11.3735    6.6280    5.2740 H   0  0  0  0  0  0  0  0  0  0  0  0
   12.6291    4.7417    0.9712 H   0  0  0  0  0  0  0  0  0  0  0  0
   13.8200    3.6260    1.6838 H   0  0  0  0  0  0  0  0  0  0  0  0
   11.7408    2.3911    1.0133 H   0  0  0  0  0  0  0  0  0  0  0  0
   11.9742    2.3357    2.7664 H   0  0  0  0  0  0  0  0  0  0  0  0
   10.7804    3.4359    2.0639 H   0  0  0  0  0  0  0  0  0  0  0  0
    9.7753   10.0248    3.7779 H   0  0  0  0  0  0  0  0  0  0  0  0
   10.5319   11.4534    5.2972 H   0  0  0  0  0  0  0  0  0  0  0  0
   10.6177   11.2326    7.8188 H   0  0  0  0  0  0  0  0  0  0  0  0
   11.9745    9.1924    8.0953 H   0  0  0  0  0  0  0  0  0  0  0  0
   16.1878    7.5588    6.2409 H   0  0  0  0  0  0  0  0  0  0  0  0
   16.2263    9.3154    6.0008 H   0  0  0  0  0  0  0  0  0  0  0  0
   15.1722    8.2002    4.0289 H   0  0  0  0  0  0  0  0  0  0  0  0
   13.9970    7.4116    5.0816 H   0  0  0  0  0  0  0  0  0  0  0  0
   13.9616    9.1680    4.8770 H   0  0  0  0  0  0  0  0  0  0  0  0
   14.1362   13.3764    6.6528 H   0  0  0  0  0  0  0  0  0  0  0  0
    8.8476   16.8690    4.0282 H   0  0  0  0  0  0  0  0  0  0  0  0
    7.2851   18.6849    3.6512 H   0  0  0  0  0  0  0  0  0  0  0  0
    4.6414   21.2574    3.7612 H   0  0  0  0  0  0  0  0  0  0  0  0
    6.0800   20.3856    3.2152 H   0  0  0  0  0  0  0  0  0  0  0  0
    3.9959   19.1445    2.5666 H   0  0  0  0  0  0  0  0  0  0  0  0
    3.4769   19.1282    4.2561 H   0  0  0  0  0  0  0  0  0  0  0  0
    4.8933   18.2003    3.7618 H   0  0  0  0  0  0  0  0  0  0  0  0
    8.3906   17.3357    8.2616 H   0  0  0  0  0  0  0  0  0  0  0  0
   10.7232   18.0803    7.9021 H   0  0  0  0  0  0  0  0  0  0  0  0
   12.8370   17.5941    9.3387 H   0  0  0  0  0  0  0  0  0  0  0  0
  1  2  2  0  0  0  0
  2  3  1  0  0  0  0
  3  4  2  0  0  0  0
  4  5  1  0  0  0  0
  5  6  2  0  0  0  0
  6  7  1  0  0  0  0
  7  8  2  0  0  0  0
  8  9  1  0  0  0  0
  9 10  1  0  0  0  0
 10 11  1  0  0  0  0
  8 12  1  0  0  0  0
  4 13  1  0  0  0  0
 13 14  2  0  0  0  0
 14 15  1  0  0  0  0
 15 16  1  0  0  0  0
 16 17  2  0  0  0  0
 17 18  1  0  0  0  0
 18 19  2  0  0  0  0
 19 20  1  0  0  0  0
 20 21  1  0  0  0  0
 21 22  1  0  0  0  0
 19 23  1  0  0  0  0
 15 24  2  0  0  0  0
 24 25  1  0  0  0  0
 14 26  1  0  0  0  0
 26 27  2  0  0  0  0
 27 28  1  0  0  0  0
 27 29  1  0  0  0  0
 29 30  2  0  0  0  0
 30 31  1  0  0  0  0
 31 32  2  0  0  0  0
 32 33  1  0  0  0  0
 33 34  2  0  0  0  0
 34 35  1  0  0  0  0
 35 36  2  0  0  0  0
 36 37  1  0  0  0  0
 37 38  1  0  0  0  0
 38 39  1  0  0  0  0
 36 40  1  0  0  0  0
 40 41  1  0  0  0  0
 40 42  2  0  0  0  0
 32 43  1  0  0  0  0
 43 44  2  0  0  0  0
 44 45  1  0  0  0  0
 45 46  1  0  0  0  0
 46 47  2  0  0  0  0
 47 48  1  0  0  0  0
 48 49  2  0  0  0  0
 49 50  1  0  0  0  0
 50 51  1  0  0  0  0
 51 52  1  0  0  0  0
 49 53  1  0  0  0  0
 53 54  2  0  0  0  0
 53 55  1  0  0  0  0
 45 56  2  0  0  0  0
 56 57  1  0  0  0  0
 44 58  1  0  0  0  0
 58 59  2  0  0  0  0
 59 60  1  0  0  0  0
 59 61  1  0  0  0  0
 61 62  2  0  0  0  0
 62 63  1  0  0  0  0
 63 64  2  0  0  0  0
 64 65  1  0  0  0  0
 65 66  2  0  0  0  0
 66 67  1  0  0  0  0
 67 68  2  0  0  0  0
 68 69  1  0  0  0  0
 69 70  1  0  0  0  0
 70 71  1  0  0  0  0
 68 72  1  0  0  0  0
 72 73  1  0  0  0  0
 72 74  2  0  0  0  0
 64 75  1  0  0  0  0
 75 76  2  0  0  0  0
 76 77  1  0  0  0  0
 77 78  1  0  0  0  0
 78 79  2  0  0  0  0
 79 80  1  0  0  0  0
 80 81  2  0  0  0  0
 81 82  1  0  0  0  0
 82 83  1  0  0  0  0
 83 84  1  0  0  0  0
 81 85  1  0  0  0  0
 85 86  2  0  0  0  0
 85 87  1  0  0  0  0
 77 88  2  0  0  0  0
 88 89  1  0  0  0  0
 76 90  1  0  0  0  0
 90 91  2  0  0  0  0
 91 92  1  0  0  0  0
 91 93  1  0  0  0  0
 93 94  2  0  0  0  0
 94 95  1  0  0  0  0
 95 96  2  0  0  0  0
 96 97  1  0  0  0  0
 97 98  2  0  0  0  0
 98 99  1  0  0  0  0
 99100  2  0  0  0  0
100101  1  0  0  0  0
101102  1  0  0  0  0
102103  1  0  0  0  0
100104  1  0  0  0  0
 96105  1  0  0  0  0
105106  2  0  0  0  0
106107  1  0  0  0  0
107108  1  0  0  0  0
108109  2  0  0  0  0
109110  1  0  0  0  0
110111  2  0  0  0  0
111112  1  0  0  0  0
112113  1  0  0  0  0
113114  1  0  0  0  0
111115  1  0  0  0  0
107116  2  0  0  0  0
116117  1  0  0  0  0
106118  1  0  0  0  0
118119  2  0  0  0  0
119120  1  0  0  0  0
119121  1  0  0  0  0
121122  2  0  0  0  0
122123  1  0  0  0  0
123124  2  0  0  0  0
124125  1  0  0  0  0
125126  2  0  0  0  0
126127  1  0  0  0  0
127128  2  0  0  0  0
128129  1  0  0  0  0
129130  1  0  0  0  0
130131  1  0  0  0  0
128132  1  0  0  0  0
124133  1  0  0  0  0
133134  2  0  0  0  0
134135  1  0  0  0  0
135136  1  0  0  0  0
136137  2  0  0  0  0
137138  1  0  0  0  0
138139  2  0  0  0  0
139140  1  0  0  0  0
140141  1  0  0  0  0
141142  1  0  0  0  0
139143  1  0  0  0  0
135144  2  0  0  0  0
144145  1  0  0  0  0
134146  1  0  0  0  0
146147  2  0  0  0  0
147148  1  0  0  0  0
147149  1  0  0  0  0
149150  2  0  0  0  0
150151  1  0  0  0  0
151152  2  0  0  0  0
152153  1  0  0  0  0
153154  2  0  0  0  0
154155  1  0  0  0  0
155156  2  0  0  0  0
156157  1  0  0  0  0
157158  1  0  0  0  0
158159  1  0  0  0  0
156160  1  0  0  0  0
160161  1  0  0  0  0
160162  2  0  0  0  0
152163  1  0  0  0  0
163164  2  0  0  0  0
164165  1  0  0  0  0
165166  1  0  0  0  0
166167  2  0  0  0  0
167168  1  0  0  0  0
168169  2  0  0  0  0
169170  1  0  0  0  0
170171  1  0  0  0  0
171172  1  0  0  0  0
169173  1  0  0  0  0
173174  2  0  0  0  0
173175  1  0  0  0  0
165176  2  0  0  0  0
176177  1  0  0  0  0
164178  1  0  0  0  0
178179  2  0  0  0  0
179180  1  0  0  0  0
 25  1  1  0  0  0  0
 57 29  1  0  0  0  0
 89 61  1  0  0  0  0
117 93  1  0  0  0  0
145121  1  0  0  0  0
177149  1  0  0  0  0
 24  3  1  0  0  0  0
 56 31  1  0  0  0  0
 88 63  1  0  0  0  0
116 95  1  0  0  0  0
144123  1  0  0  0  0
176151  1  0  0  0  0
 12  5  1  0  0  0  0
 28 13  1  0  0  0  0
 42 33  1  0  0  0  0
 60 43  1  0  0  0  0
 74 65  1  0  0  0  0
 92 75  1  0  0  0  0
104 97  1  0  0  0  0
120105  1  0  0  0  0
132125  1  0  0  0  0
148133  1  0  0  0  0
162153  1  0  0  0  0
180163  1  0  0  0  0
 23 16  1  0  0  0  0
 54 46  1  0  0  0  0
 86 78  1  0  0  0  0
115108  1  0  0  0  0
143136  1  0  0  0  0
174166  1  0  0  0  0
  1181  1  0  0  0  0
  2182  1  0  0  0  0
  6183  1  0  0  0  0
  7184  1  0  0  0  0
 10185  1  0  0  0  0
 10186  1  0  0  0  0
 11187  1  0  0  0  0
 11188  1  0  0  0  0
 11189  1  0  0  0  0
 17190  1  0  0  0  0
 18191  1  0  0  0  0
 21192  1  0  0  0  0
 21193  1  0  0  0  0
 22194  1  0  0  0  0
 22195  1  0  0  0  0
 22196  1  0  0  0  0
 26197  1  0  0  0  0
 30198  1  0  0  0  0
 34199  1  0  0  0  0
 35200  1  0  0  0  0
 38201  1  0  0  0  0
 38202  1  0  0  0  0
 39203  1  0  0  0  0
 39204  1  0  0  0  0
 39205  1  0  0  0  0
 42206  1  0  0  0  0
 47207  1  0  0  0  0
 48208  1  0  0  0  0
 51209  1  0  0  0  0
 51210  1  0  0  0  0
 52211  1  0  0  0  0
 52212  1  0  0  0  0
 52213  1  0  0  0  0
 54214  1  0  0  0  0
 58215  1  0  0  0  0
 62216  1  0  0  0  0
 66217  1  0  0  0  0
 67218  1  0  0  0  0
 70219  1  0  0  0  0
 70220  1  0  0  0  0
 71221  1  0  0  0  0
 71222  1  0  0  0  0
 71223  1  0  0  0  0
 74224  1  0  0  0  0
 79225  1  0  0  0  0
 80226  1  0  0  0  0
 83227  1  0  0  0  0
 83228  1  0  0  0  0
 84229  1  0  0  0  0
 84230  1  0  0  0  0
 84231  1  0  0  0  0
 86232  1  0  0  0  0
 90233  1  0  0  0  0
 94234  1  0  0  0  0
 98235  1  0  0  0  0
 99236  1  0  0  0  0
102237  1  0  0  0  0
102238  1  0  0  0  0
103239  1  0  0  0  0
103240  1  0  0  0  0
103241  1  0  0  0  0
109242  1  0  0  0  0
110243  1  0  0  0  0
113244  1  0  0  0  0
113245  1  0  0  0  0
114246  1  0  0  0  0
114247  1  0  0  0  0
114248  1  0  0  0  0
118249  1  0  0  0  0
122250  1  0  0  0  0
126251  1  0  0  0  0
127252  1  0  0  0  0
130253  1  0  0  0  0
130254  1  0  0  0  0
131255  1  0  0  0  0
131256  1  0  0  0  0
131257  1  0  0  0  0
137258  1  0  0  0  0
138259  1  0  0  0  0
141260  1  0  0  0  0
141261  1  0  0  0  0
142262  1  0  0  0  0
142263  1  0  0  0  0
142264  1  0  0  0  0
146265  1  0  0  0  0
150266  1  0  0  0  0
154267  1  0  0  0  0
155268  1  0  0  0  0
158269  1  0  0  0  0
158270  1  0  0  0  0
159271  1  0  0  0  0
159272  1  0  0  0  0
159273  1  0  0  0  0
162274  1  0  0  0  0
167275  1  0  0  0  0
168276  1  0  0  0  0
171277  1  0  0  0  0
171278  1  0  0  0  0
172279  1  0  0  0  0
172280  1  0  0  0  0
172281  1  0  0  0  0
174282  1  0  0  0  0
178283  1  0  0  0  0
179284  1  0  0  0  0
M  END
