154

C         -8.07270        3.27730       -7.05250
S         -9.53070        2.35760       -7.05860
C         -8.76960        0.91880       -6.42030
C         -7.40870        1.14990       -6.29840
C         -7.03990        2.50270       -6.61420
N         -5.70750        2.65370       -6.36060
C         -5.22170        1.44100       -5.90360
C         -3.93330        1.28970       -5.39080
N         -2.90840        1.15240       -4.88620
C         -6.22000        0.49160       -5.89440
C         -9.59440       -0.20650       -6.10570
C         -9.42040       -1.13080       -5.13630
C         -8.42160       -1.17260       -4.10910
C         -7.95820       -2.29690       -3.48600
C         -6.89200       -2.06540       -2.57990
C         -6.12490       -3.02250       -1.87830
C         -6.34240       -4.44430       -2.02890
C         -6.61490       -5.13740       -3.17550
C         -6.77070       -6.53040       -3.03580
C         -6.63650       -7.00290       -1.76190
S         -6.87620       -8.67670       -1.31700
C         -5.98630       -8.75670        0.27700
C         -4.48420       -8.67580        0.09940
Se        -6.27820       -5.60630       -0.54510
C         -5.11850       -2.51570       -1.06180
C         -4.79560       -1.14180       -1.00320
C         -5.48240       -0.18950       -1.78740
C         -4.96770        1.14710       -1.97440
C         -5.64050        2.28640       -2.33900
C         -4.84890        3.41890       -2.60180
C         -3.49840        3.22560       -2.47670
S         -2.30780        4.49430       -2.66740
C         -0.74160        3.62340       -2.30850
C         -0.22130        2.84950       -3.50070
Se        -3.10880        1.46750       -1.98680
C         -6.58110       -0.68570       -2.48660
S         -7.66120        0.26570       -3.46160
C         -3.70820       -0.89980       -0.13980
C         -3.15080       -2.02490        0.39550
S         -4.00990       -3.46770       -0.09720
C         -1.94700       -2.01230        1.15490
C         -1.24860       -2.98800        1.80160
C         -0.01000       -2.54140        2.33720
C          0.98220       -3.28110        3.02530
C          0.74820       -4.63930        3.45450
C         -0.43280       -5.18090        3.88630
C         -0.39730       -6.53870        4.25410
C          0.82010       -7.14390        4.12110
S          1.09770       -8.84180        4.42730
C          2.91630       -8.88960        4.59880
C          3.38770       -8.26370        5.89540
Se         2.11620       -5.93840        3.47100
C          2.18090       -2.61550        3.26750
C          2.42490       -1.26640        2.91510
C          1.42350       -0.51350        2.27240
C          1.63580        0.84160        1.81540
C          2.76250        1.37470        1.25180
C          2.68510        2.72580        0.86240
C          1.48780        3.33320        1.11510
S          1.12670        4.99650        0.70100
C         -0.37570        5.33970        1.68860
C         -1.65410        4.91790        0.99330
Se         0.26310        2.12920        1.88770
C          0.23070       -1.18260        2.02770
S         -1.10320       -0.47460        1.17770
C          3.71430       -0.83770        3.28960
C          4.47520       -1.81070        3.87420
S          3.58340       -3.31500        4.04460
C          5.83000       -1.67170        4.24940
S          6.65590       -0.18950        3.82720
C          8.20160       -0.70280        4.46250
C          8.05220       -1.98420        5.00640
C          6.73110       -2.51220        4.87230
N          6.70930       -3.76070        5.40640
C          7.97690       -4.04570        5.87770
C          8.27360       -5.27020        6.48710
N          8.52180       -6.27800        6.97840
C          8.82320       -2.97970        5.64820
C          9.40730       -0.00150        4.23900
C          9.58130        1.16960        3.56390
C          8.55250        2.07750        3.18580
S          8.51520        2.82150        1.59040
C          6.98860        3.63410        1.86310
C          6.58310        3.40660        3.17990
C          7.46040        2.54340        3.89710
N          6.96910        2.39540        5.15710
C          5.79390        3.11720        5.25020
C          5.03840        3.14510        6.42790
N          4.41400        3.16690        7.39140
C          5.52710        3.74830        4.05290
C          6.24850        4.29390        0.87040
C          6.55320        4.35970       -0.45570
C          5.67650        4.87960       -1.42810
S          4.08690        5.50470       -1.02700
C          3.60450        5.72540       -2.68220
C          4.65710        5.37280       -3.52440
C          5.80430        4.90800       -2.81040
N          6.76840        4.58170       -3.71030
C          6.27560        4.83260       -4.97730
C          7.04490        4.60450       -6.12500
N          7.67410        4.42000       -7.06730
C          4.98730        5.31470       -4.90110
C          2.27320        6.17220       -2.93840
C          1.70030        6.27370       -4.14020
H         -8.08810        4.30620       -7.34690
H         -5.17380        3.50290       -6.42190
H         -6.09570       -0.53970       -5.63170
H        -10.48390       -0.29340       -6.71800
H        -10.11070       -1.96550       -5.11450
H         -8.35190       -3.27450       -3.69720
H         -6.63830       -4.66060       -4.14120
H         -6.96550       -7.18200       -3.87010
H         -6.36670       -7.94020        0.89920
H         -6.28550       -9.70910        0.71320
H         -4.20110       -7.72310       -0.34880
H         -4.13410       -9.47970       -0.54390
H         -3.99260       -8.76000        1.06630
H         -6.71580        2.33700       -2.37220
H         -5.27060        4.37370       -2.86720
H         -0.04540        4.40780       -2.01100
H         -0.93000        2.96600       -1.45250
H          0.70120        2.34190       -3.22670
H         -0.94680        2.10480       -3.82610
H         -0.01600        3.52390       -4.32910
H         -3.36460        0.08300        0.13630
H         -1.59190       -4.00580        1.84610
H         -1.32420       -4.58800        4.00380
H         -1.25950       -7.06420        4.62690
H          3.33540       -8.38060        3.72480
H          3.17070       -9.94780        4.55270
H          2.94330       -8.77360        6.74680
H          4.47080       -8.33640        5.96870
H          3.10730       -7.21060        5.93710
H          3.64660        0.78810        1.06670
H          3.50770        3.23970        0.39770
H         -0.35610        6.41740        1.85000
H         -0.24740        4.82810        2.64580
H         -1.67040        3.83860        0.83240
H         -1.75350        5.41550        0.03160
H         -2.50880        5.18200        1.61230
H          4.07610        0.16490        3.15180
H          5.91520       -4.37680        5.45010
H          9.86010       -2.93470        5.91470
H         10.29450       -0.54140        4.54400
H         10.58140        1.41560        3.23150
H          7.36550        1.83650        5.89280
H          4.68410        4.37630        3.84530
H          5.31600        4.72930        1.20840
H          7.48860        3.94230       -0.80700
H          7.68920        4.23130       -3.50940
H          4.38110        5.59290       -5.73870
H          1.70630        6.41690       -2.04860
H          2.22260        6.02560       -5.04640
H          0.68190        6.60440       -4.24170
