131

C          8.74280       -0.03390        4.73460
C          7.68720       -0.83600        5.15030
O          6.91600       -0.61660        6.25430
C          7.25090        0.41580        7.15510
C          8.43570        0.05750        8.04870
C          7.33450       -1.95690        4.38090
C          8.04400       -2.24410        3.22770
C          9.09690       -1.44290        2.82040
C          9.43920       -0.33880        3.57640
C          6.22220       -2.82350        4.82650
C          5.05420       -2.91230        4.05180
O          5.04780       -2.13590        2.92240
C          4.45090       -2.60910        1.73160
C          5.06260       -3.91330        1.23320
C          3.99030       -3.69630        4.51340
C          4.15760       -4.44510        5.67880
C          5.31650       -4.37330        6.42340
C          6.33790       -3.53910        6.00660
C          2.66650       -3.79780        3.85170
C          1.77170       -2.72320        3.74790
O          2.05150       -1.43260        4.10490
C          2.59070       -1.13230        5.38360
C          3.61810       -0.02000        5.24640
C          0.53270       -2.92120        3.11760
C          0.20150       -4.16380        2.59500
C          1.07300       -5.22920        2.72420
C          2.28450       -5.04380        3.36070
C         -0.44540       -1.81580        3.03720
C         -0.95640       -1.40450        1.80420
O         -0.52410       -1.98670        0.63600
C          0.81990       -1.71770        0.25850
C          1.32030       -2.86690       -0.59960
C         -1.95640       -0.42060        1.73260
C         -2.41630        0.14510        2.92480
C         -1.89450       -0.24320        4.14070
C         -0.91840       -1.22150        4.19980
C         -2.49850       -0.01340        0.45380
C         -3.38050        0.99540        0.20490
C         -3.72590        1.14330       -1.16210
C         -4.63650        2.05940       -1.73120
C         -5.44180        2.93750       -0.91280
C         -6.03160        2.65220        0.28730
C         -6.72280        3.71120        0.90820
C         -6.70800        4.89100        0.22140
S         -7.56130        6.32400        0.75280
C         -6.80630        7.61490       -0.29570
C         -5.39510        7.95510        0.13820
Se        -5.78200        4.72290       -1.41400
C         -4.71760        2.05450       -3.11950
C         -3.99120        1.16270       -3.93850
C         -3.15460        0.18570       -3.36600
C         -2.50880       -0.83460       -4.16300
C         -1.29510       -1.42420       -3.94540
C         -0.96120       -2.49620       -4.79600
C         -1.91240       -2.82550       -5.71630
S         -1.70180       -4.08590       -6.91530
C         -3.39570       -4.77560       -7.04830
C         -4.23570       -4.05100       -8.08090
Se        -3.38780       -1.65770       -5.61590
C         -3.02700        0.22250       -1.97720
S         -2.02970       -0.83420       -1.01550
C         -4.23200        1.39770       -5.31680
C         -5.14260        2.37380       -5.57230
S         -5.73510        3.09230       -4.07950
C         -5.66120        2.84060       -6.84070
C         -5.52670        2.08460       -8.02910
O         -4.84150        0.91290       -7.94250
C         -4.83300       -0.00530       -9.01760
C         -6.15100       -0.76120       -9.14590
C         -6.08070        2.57500       -9.20600
C         -6.74760        3.78720       -9.23210
C         -6.88350        4.53210       -8.07520
C         -6.34590        4.05390       -6.89790
H          9.03330        0.83820        5.29940
H          6.35310        0.54060        7.76790
H          7.43360        1.35710        6.62180
H          8.62290        0.86410        8.75230
H          8.21530       -0.85120        8.60330
H          9.33200       -0.11060        7.45650
H          7.77200       -3.11670        2.65330
H          9.64540       -1.68070        1.92160
H         10.25730        0.29720        3.27100
H          4.63510       -1.80500        1.01360
H          3.36970       -2.73040        1.84680
H          4.56500       -4.22060        0.31760
H          6.12320       -3.78340        1.03240
H          4.94030       -4.69740        1.97750
H          3.33570       -5.06450        6.01030
H          5.41710       -4.95330        7.32830
H          7.24550       -3.45240        6.58420
H          1.75920       -0.79760        6.02290
H          3.04350       -2.01470        5.84210
H          4.02190        0.22680        6.22400
H          4.43150       -0.33820        4.60080
H          3.15260        0.86170        4.81340
H         -0.75200       -4.28780        2.10460
H          0.80860       -6.19980        2.33280
H          2.97390       -5.86980        3.46400
H          0.84400       -0.77770       -0.31220
H          1.44590       -1.59160        1.14810
H          0.64400       -3.01490       -1.43730
H          2.31540       -2.64250       -0.97370
H          1.35470       -3.78240       -0.01420
H         -3.19110        0.89430        2.89390
H         -2.26060        0.20830        5.05070
H         -0.53420       -1.55130        5.15320
H         -3.75530        1.65390        0.96590
H         -6.00470        1.66430        0.71610
H         -7.22680        3.60470        1.85350
H         -6.83670        7.24970       -1.32710
H         -7.47010        8.47340       -0.19870
H         -4.99430        8.74400       -0.49470
H         -4.74790        7.08230        0.05250
H         -5.38680        8.29370        1.17160
H         -0.62040       -1.08090       -3.18050
H         -0.03230       -3.03490       -4.71840
H         -3.24870       -5.81960       -7.32360
H         -3.84130       -4.72170       -6.05470
H         -4.38020       -3.00920       -7.79080
H         -5.21210       -4.52450       -8.16290
H         -3.74870       -4.07700       -9.05290
H         -3.69750        0.89700       -6.10170
H         -4.02810       -0.70130       -8.75920
H         -4.56630        0.48970       -9.95890
H         -6.38670       -1.24320       -8.19980
H         -6.96410       -0.08450       -9.39770
H         -6.06750       -1.51920       -9.91980
H         -5.99360        2.01510      -10.12380
H         -7.16240        4.14290      -10.16340
H         -7.40550        5.47630       -8.08920
H         -6.45030        4.62830       -5.98880
