
  xtb     03072215283D
 energy: -244.988425386551 gnorm: 0.000601711248 xtb: 6.4.1 (unknown)
126143  0     0  0            999 V2000
    7.4387   -6.2813   10.7541 C   0  0  0  0  0  0  0  0  0  0  0  0
    6.8292   -5.6908    9.2603 S   0  0  0  0  0  0  0  0  0  0  0  0
    6.0505   -4.3309   10.0348 C   0  0  0  0  0  0  0  0  0  0  0  0
    6.2719   -4.3730   11.3930 C   0  0  0  0  0  0  0  0  0  0  0  0
    7.0650   -5.4846   11.7909 C   0  0  0  0  0  0  0  0  0  0  0  0
    7.3883   -5.6437   13.4967 S   0  0  0  0  0  0  0  0  0  0  0  0
    6.4444   -4.2472   13.9907 C   0  0  0  0  0  0  0  0  0  0  0  0
    6.2888   -3.7962   15.5425 S   0  0  0  0  0  0  0  0  0  0  0  0
    5.6719   -3.3655   12.6785 S   0  0  0  0  0  0  0  0  0  0  0  0
    5.3190   -3.3926    9.2509 C   0  0  0  0  0  0  0  0  0  0  0  0
    4.5931   -3.9044    7.7435 S   0  0  0  0  0  0  0  0  0  0  0  0
    3.9533   -2.3155    7.4226 C   0  0  0  0  0  0  0  0  0  0  0  0
    4.3012   -1.4546    8.4411 C   0  0  0  0  0  0  0  0  0  0  0  0
    5.0686   -2.0551    9.4672 C   0  0  0  0  0  0  0  0  0  0  0  0
    5.6191   -0.9901   10.7313 S   0  0  0  0  0  0  0  0  0  0  0  0
    4.8449    0.4600   10.1054 C   0  0  0  0  0  0  0  0  0  0  0  0
    4.9495    1.9001   10.8500 S   0  0  0  0  0  0  0  0  0  0  0  0
    3.9514    0.2404    8.6135 S   0  0  0  0  0  0  0  0  0  0  0  0
    3.2060   -2.0282    6.2519 C   0  0  0  0  0  0  0  0  0  0  0  0
    2.8340   -2.8814    5.2508 C   0  0  0  0  0  0  0  0  0  0  0  0
    2.0930   -2.2573    4.2190 C   0  0  0  0  0  0  0  0  0  0  0  0
    1.5801   -2.8350    3.0355 C   0  0  0  0  0  0  0  0  0  0  0  0
    1.8443   -4.2050    2.6600 C   0  0  0  0  0  0  0  0  0  0  0  0
    0.9958   -5.0714    2.0260 C   0  0  0  0  0  0  0  0  0  0  0  0
    1.5317   -6.3253    1.6801 C   0  0  0  0  0  0  0  0  0  0  0  0
    2.8453   -6.5074    2.0083 C   0  0  0  0  0  0  0  0  0  0  0  0
    3.7039   -8.0090    1.7690 S   0  0  0  0  0  0  0  0  0  0  0  0
    5.4428   -7.4603    1.8865 C   0  0  0  0  0  0  0  0  0  0  0  0
    5.8777   -6.6709    0.6690 C   0  0  0  0  0  0  0  0  0  0  0  0
    3.5452   -4.9954    2.8859 Se  0  0  0  0  0  2  0  0  0  0  0  0
    0.8224   -1.9923    2.2241 C   0  0  0  0  0  0  0  0  0  0  0  0
    0.5867   -0.6258    2.5145 C   0  0  0  0  0  0  0  0  0  0  0  0
    1.1604   -0.0299    3.6575 C   0  0  0  0  0  0  0  0  0  0  0  0
    1.0489    1.3841    3.9306 C   0  0  0  0  0  0  0  0  0  0  0  0
    1.0671    2.4181    3.0325 C   0  0  0  0  0  0  0  0  0  0  0  0
    0.9863    3.7132    3.5768 C   0  0  0  0  0  0  0  0  0  0  0  0
    0.8885    3.7648    4.9395 C   0  0  0  0  0  0  0  0  0  0  0  0
    0.7273    5.2423    5.8559 S   0  0  0  0  0  0  0  0  0  0  0  0
    1.1751    4.6788    7.5373 C   0  0  0  0  0  0  0  0  0  0  0  0
    2.6540    4.3827    7.6763 C   0  0  0  0  0  0  0  0  0  0  0  0
    0.8763    2.0374    5.6915 Se  0  0  0  0  0  2  0  0  0  0  0  0
    1.8745   -0.8853    4.4891 C   0  0  0  0  0  0  0  0  0  0  0  0
    2.6454   -0.3945    5.9700 S   0  0  0  0  0  0  0  0  0  0  0  0
   -0.2356   -0.0126    1.5418 C   0  0  0  0  0  0  0  0  0  0  0  0
   -0.5731   -0.8362    0.5083 C   0  0  0  0  0  0  0  0  0  0  0  0
    0.0852   -2.4451    0.7075 S   0  0  0  0  0  0  0  0  0  0  0  0
   -1.3431   -0.4892   -0.6373 C   0  0  0  0  0  0  0  0  0  0  0  0
   -1.6000   -1.2263   -1.7544 C   0  0  0  0  0  0  0  0  0  0  0  0
   -2.3482   -0.5298   -2.7354 C   0  0  0  0  0  0  0  0  0  0  0  0
   -2.7519   -0.9884   -4.0083 C   0  0  0  0  0  0  0  0  0  0  0  0
   -2.5789   -2.3572   -4.4295 C   0  0  0  0  0  0  0  0  0  0  0  0
   -2.6870   -3.4923   -3.6692 C   0  0  0  0  0  0  0  0  0  0  0  0
   -2.4993   -4.7122   -4.3437 C   0  0  0  0  0  0  0  0  0  0  0  0
   -2.2132   -4.6000   -5.6769 C   0  0  0  0  0  0  0  0  0  0  0  0
   -1.8921   -5.9559   -6.7285 S   0  0  0  0  0  0  0  0  0  0  0  0
   -1.9390   -5.1690   -8.3792 C   0  0  0  0  0  0  0  0  0  0  0  0
   -3.3464   -4.8355   -8.8295 C   0  0  0  0  0  0  0  0  0  0  0  0
   -2.1593   -2.7972   -6.2157 Se  0  0  0  0  0  2  0  0  0  0  0  0
   -3.3199   -0.0271   -4.8401 C   0  0  0  0  0  0  0  0  0  0  0  0
   -3.5787    1.3109   -4.4588 C   0  0  0  0  0  0  0  0  0  0  0  0
   -3.2973    1.7305   -3.1363 C   0  0  0  0  0  0  0  0  0  0  0  0
   -3.6707    3.0379   -2.6621 C   0  0  0  0  0  0  0  0  0  0  0  0
   -4.7612    3.7799   -3.0409 C   0  0  0  0  0  0  0  0  0  0  0  0
   -4.9040    5.0364   -2.4302 C   0  0  0  0  0  0  0  0  0  0  0  0
   -3.9270    5.3572   -1.5268 C   0  0  0  0  0  0  0  0  0  0  0  0
   -3.9159    6.8505   -0.6211 S   0  0  0  0  0  0  0  0  0  0  0  0
   -2.5363    6.5924    0.5498 C   0  0  0  0  0  0  0  0  0  0  0  0
   -1.1849    6.8831   -0.0713 C   0  0  0  0  0  0  0  0  0  0  0  0
   -2.6604    3.9735   -1.3733 Se  0  0  0  0  0  2  0  0  0  0  0  0
   -2.6409    0.7964   -2.3367 C   0  0  0  0  0  0  0  0  0  0  0  0
   -2.0504    1.1122   -0.7298 S   0  0  0  0  0  0  0  0  0  0  0  0
   -4.0618    2.0815   -5.5427 C   0  0  0  0  0  0  0  0  0  0  0  0
   -4.2161    1.3652   -6.6968 C   0  0  0  0  0  0  0  0  0  0  0  0
   -3.7851   -0.3184   -6.4914 S   0  0  0  0  0  0  0  0  0  0  0  0
   -4.6365    1.8207   -7.9725 C   0  0  0  0  0  0  0  0  0  0  0  0
   -5.1473    3.4640   -8.2483 S   0  0  0  0  0  0  0  0  0  0  0  0
   -5.4334    3.1719   -9.9497 C   0  0  0  0  0  0  0  0  0  0  0  0
   -5.1369    1.8630  -10.2617 C   0  0  0  0  0  0  0  0  0  0  0  0
   -4.6953    1.1069   -9.1502 C   0  0  0  0  0  0  0  0  0  0  0  0
   -4.2648   -0.5514   -9.4512 S   0  0  0  0  0  0  0  0  0  0  0  0
   -4.5508   -0.5030  -11.1793 C   0  0  0  0  0  0  0  0  0  0  0  0
   -4.3015   -1.7924  -12.1360 S   0  0  0  0  0  0  0  0  0  0  0  0
   -5.1197    1.0419  -11.7983 S   0  0  0  0  0  0  0  0  0  0  0  0
   -5.8916    4.2347  -10.7802 C   0  0  0  0  0  0  0  0  0  0  0  0
   -5.5157    5.8899  -10.3625 S   0  0  0  0  0  0  0  0  0  0  0  0
   -6.3456    6.4984  -11.7382 C   0  0  0  0  0  0  0  0  0  0  0  0
   -6.8849    5.4916  -12.4764 C   0  0  0  0  0  0  0  0  0  0  0  0
   -6.6355    4.1991  -11.9382 C   0  0  0  0  0  0  0  0  0  0  0  0
   -7.3825    2.8683  -12.7739 S   0  0  0  0  0  0  0  0  0  0  0  0
   -8.1220    3.8314  -14.0477 C   0  0  0  0  0  0  0  0  0  0  0  0
   -9.0037    3.1609  -15.2345 S   0  0  0  0  0  0  0  0  0  0  0  0
   -7.8361    5.5607  -13.9359 S   0  0  0  0  0  0  0  0  0  0  0  0
    8.0298   -7.1730   10.7837 H   0  0  0  0  0  0  0  0  0  0  0  0
    3.0645   -3.9331    5.2896 H   0  0  0  0  0  0  0  0  0  0  0  0
   -0.0341   -4.8260    1.8305 H   0  0  0  0  0  0  0  0  0  0  0  0
    0.9567   -7.0885    1.1852 H   0  0  0  0  0  0  0  0  0  0  0  0
    6.0164   -8.3808    1.9895 H   0  0  0  0  0  0  0  0  0  0  0  0
    5.5358   -6.8745    2.8070 H   0  0  0  0  0  0  0  0  0  0  0  0
    5.7550   -7.2661   -0.2328 H   0  0  0  0  0  0  0  0  0  0  0  0
    6.9244   -6.3905    0.7657 H   0  0  0  0  0  0  0  0  0  0  0  0
    5.2855   -5.7617    0.5673 H   0  0  0  0  0  0  0  0  0  0  0  0
    1.2142    2.2594    1.9774 H   0  0  0  0  0  0  0  0  0  0  0  0
    1.0224    4.6024    2.9715 H   0  0  0  0  0  0  0  0  0  0  0  0
    0.5611    3.7983    7.7533 H   0  0  0  0  0  0  0  0  0  0  0  0
    0.8704    5.4958    8.1903 H   0  0  0  0  0  0  0  0  0  0  0  0
    2.9535    3.5786    7.0031 H   0  0  0  0  0  0  0  0  0  0  0  0
    2.8732    4.0721    8.6956 H   0  0  0  0  0  0  0  0  0  0  0  0
    3.2430    5.2668    7.4445 H   0  0  0  0  0  0  0  0  0  0  0  0
   -0.5884    1.0005    1.6070 H   0  0  0  0  0  0  0  0  0  0  0  0
   -1.2170   -2.2220   -1.8874 H   0  0  0  0  0  0  0  0  0  0  0  0
   -2.9709   -3.4600   -2.6305 H   0  0  0  0  0  0  0  0  0  0  0  0
   -2.5888   -5.6674   -3.8560 H   0  0  0  0  0  0  0  0  0  0  0  0
   -1.4733   -5.8967   -9.0429 H   0  0  0  0  0  0  0  0  0  0  0  0
   -1.3068   -4.2765   -8.3258 H   0  0  0  0  0  0  0  0  0  0  0  0
   -3.8168   -4.1298   -8.1437 H   0  0  0  0  0  0  0  0  0  0  0  0
   -3.9556   -5.7350   -8.8737 H   0  0  0  0  0  0  0  0  0  0  0  0
   -3.3174   -4.3813   -9.8178 H   0  0  0  0  0  0  0  0  0  0  0  0
   -5.5070    3.3961   -3.7161 H   0  0  0  0  0  0  0  0  0  0  0  0
   -5.7289    5.6955   -2.6384 H   0  0  0  0  0  0  0  0  0  0  0  0
   -2.6060    5.5607    0.9066 H   0  0  0  0  0  0  0  0  0  0  0  0
   -2.7437    7.2727    1.3754 H   0  0  0  0  0  0  0  0  0  0  0  0
   -1.1467    7.9059   -0.4378 H   0  0  0  0  0  0  0  0  0  0  0  0
   -0.9898    6.2071   -0.9053 H   0  0  0  0  0  0  0  0  0  0  0  0
   -0.4033    6.7471    0.6732 H   0  0  0  0  0  0  0  0  0  0  0  0
   -4.2397    3.1409   -5.4998 H   0  0  0  0  0  0  0  0  0  0  0  0
   -6.3901    7.5517  -11.9222 H   0  0  0  0  0  0  0  0  0  0  0  0
  1  2  1  0  0  0  0
  2  3  1  0  0  0  0
  3  4  2  0  0  0  0
  4  5  1  0  0  0  0
  5  6  1  0  0  0  0
  6  7  1  0  0  0  0
  7  8  2  0  0  0  0
  7  9  1  0  0  0  0
  3 10  1  0  0  0  0
 10 11  1  0  0  0  0
 11 12  1  0  0  0  0
 12 13  2  0  0  0  0
 13 14  1  0  0  0  0
 14 15  1  0  0  0  0
 15 16  1  0  0  0  0
 16 17  2  0  0  0  0
 16 18  1  0  0  0  0
 12 19  1  0  0  0  0
 19 20  2  0  0  0  0
 20 21  1  0  0  0  0
 21 22  2  0  0  0  0
 22 23  1  0  0  0  0
 23 24  2  0  0  0  0
 24 25  1  0  0  0  0
 25 26  2  0  0  0  0
 26 27  1  0  0  0  0
 27 28  1  0  0  0  0
 28 29  1  0  0  0  0
 26 30  1  0  0  0  0
 22 31  1  0  0  0  0
 31 32  2  0  0  0  0
 32 33  1  0  0  0  0
 33 34  1  0  0  0  0
 34 35  2  0  0  0  0
 35 36  1  0  0  0  0
 36 37  2  0  0  0  0
 37 38  1  0  0  0  0
 38 39  1  0  0  0  0
 39 40  1  0  0  0  0
 37 41  1  0  0  0  0
 33 42  2  0  0  0  0
 42 43  1  0  0  0  0
 32 44  1  0  0  0  0
 44 45  2  0  0  0  0
 45 46  1  0  0  0  0
 45 47  1  0  0  0  0
 47 48  2  0  0  0  0
 48 49  1  0  0  0  0
 49 50  2  0  0  0  0
 50 51  1  0  0  0  0
 51 52  2  0  0  0  0
 52 53  1  0  0  0  0
 53 54  2  0  0  0  0
 54 55  1  0  0  0  0
 55 56  1  0  0  0  0
 56 57  1  0  0  0  0
 54 58  1  0  0  0  0
 50 59  1  0  0  0  0
 59 60  2  0  0  0  0
 60 61  1  0  0  0  0
 61 62  1  0  0  0  0
 62 63  2  0  0  0  0
 63 64  1  0  0  0  0
 64 65  2  0  0  0  0
 65 66  1  0  0  0  0
 66 67  1  0  0  0  0
 67 68  1  0  0  0  0
 65 69  1  0  0  0  0
 61 70  2  0  0  0  0
 70 71  1  0  0  0  0
 60 72  1  0  0  0  0
 72 73  2  0  0  0  0
 73 74  1  0  0  0  0
 73 75  1  0  0  0  0
 75 76  1  0  0  0  0
 76 77  1  0  0  0  0
 77 78  2  0  0  0  0
 78 79  1  0  0  0  0
 79 80  1  0  0  0  0
 80 81  1  0  0  0  0
 81 82  2  0  0  0  0
 81 83  1  0  0  0  0
 77 84  1  0  0  0  0
 84 85  1  0  0  0  0
 85 86  1  0  0  0  0
 86 87  2  0  0  0  0
 87 88  1  0  0  0  0
 88 89  1  0  0  0  0
 89 90  1  0  0  0  0
 90 91  2  0  0  0  0
 90 92  1  0  0  0  0
  5  1  2  0  0  0  0
 14 10  2  0  0  0  0
 43 19  1  0  0  0  0
 71 47  1  0  0  0  0
 79 75  2  0  0  0  0
 88 84  2  0  0  0  0
  9  4  1  0  0  0  0
 18 13  1  0  0  0  0
 42 21  1  0  0  0  0
 70 49  1  0  0  0  0
 83 78  1  0  0  0  0
 92 87  1  0  0  0  0
 30 23  1  0  0  0  0
 46 31  1  0  0  0  0
 58 51  1  0  0  0  0
 74 59  1  0  0  0  0
 41 34  1  0  0  0  0
 69 62  1  0  0  0  0
  1 93  1  0  0  0  0
 20 94  1  0  0  0  0
 24 95  1  0  0  0  0
 25 96  1  0  0  0  0
 28 97  1  0  0  0  0
 28 98  1  0  0  0  0
 29 99  1  0  0  0  0
 29100  1  0  0  0  0
 29101  1  0  0  0  0
 35102  1  0  0  0  0
 36103  1  0  0  0  0
 39104  1  0  0  0  0
 39105  1  0  0  0  0
 40106  1  0  0  0  0
 40107  1  0  0  0  0
 40108  1  0  0  0  0
 44109  1  0  0  0  0
 48110  1  0  0  0  0
 52111  1  0  0  0  0
 53112  1  0  0  0  0
 56113  1  0  0  0  0
 56114  1  0  0  0  0
 57115  1  0  0  0  0
 57116  1  0  0  0  0
 57117  1  0  0  0  0
 63118  1  0  0  0  0
 64119  1  0  0  0  0
 67120  1  0  0  0  0
 67121  1  0  0  0  0
 68122  1  0  0  0  0
 68123  1  0  0  0  0
 68124  1  0  0  0  0
 72125  1  0  0  0  0
 86126  1  0  0  0  0
M  END
