181

C         -9.48230        2.17350       -3.53620
S         -8.26820        0.97270       -3.41780
C         -9.00180        3.43640       -3.34480
C         -9.83990        4.64810       -3.43420
O        -11.03640        4.61900       -3.65930
C         -9.06340        5.86280       -3.23650
C         -9.46140        7.18060       -3.28840
N         -8.39350        7.96790       -3.01670
C         -8.39030        9.40840       -3.05800
C         -8.05980        9.91520       -4.46050
C         -7.30620        7.19280       -2.79170
C         -7.67290        5.87080       -2.91690
C         -6.86420        4.67390       -2.74810
O         -5.70870        4.69270       -2.33880
C         -7.59770        3.44940       -3.07550
C         -7.04230        2.17810       -3.10190
C         -5.67230        1.83630       -2.95590
C         -5.21490        0.58100       -2.75220
C         -3.84130        0.23330       -2.63060
C         -2.72950        0.98280       -2.91120
C         -1.51190        0.29810       -2.70470
C         -0.19170        0.76120       -2.91890
C          0.09180        2.03640       -3.52360
C         -0.62880        2.69670       -4.48970
C         -0.14300        3.95660       -4.86700
C          0.98490        4.35990       -4.19940
S          1.76120        5.90450       -4.46280
C          3.00250        5.93020       -3.12210
C          4.26590        5.17470       -3.48530
Se         1.58350        3.04860       -3.01180
C          0.82340       -0.10170       -2.50890
C          0.60870       -1.39780       -1.98640
C         -0.70600       -1.87820       -1.83130
C         -0.98740       -3.19750       -1.31560
C         -0.41210       -4.38110       -1.69020
C         -0.90100       -5.52700       -1.03790
C         -1.88320       -5.28640       -0.11750
S         -2.63190       -6.56050        0.82320
C         -3.59090       -5.61420        2.05350
C         -2.71950       -5.02490        3.14560
Se        -2.27890       -3.45350        0.02350
C         -1.72440       -1.00090       -2.18130
S         -3.41790       -1.36970       -2.06020
C          1.81850       -2.05460       -1.64210
C          2.92730       -1.31040       -1.89650
S          2.51970        0.26190       -2.58350
C          4.32300       -1.53700       -1.67440
S          5.24070       -0.12660       -1.26490
C          5.13960       -2.64450       -1.81010
C          4.65770       -3.98680       -2.17660
O          3.47940       -4.29480       -2.25910
C          5.74430       -4.92000       -2.42710
C          5.69050       -6.23330       -2.83940
N          6.95530       -6.70710       -2.94060
C          7.30940       -8.05990       -3.28750
C          7.38460       -8.94470       -2.04460
C          7.83090       -5.73570       -2.58760
C          7.12180       -4.60000       -2.26390
C          7.61210       -3.29800       -1.83670
O          8.79810       -3.04680       -1.69860
C          6.52530       -2.32320       -1.63050
C          6.74370       -0.99240       -1.31230
C          7.99590       -0.32280       -1.10930
C          8.15570        0.89370       -0.56640
C          7.05320        1.65760        0.00330
S          6.18440        2.87350       -0.88620
C          6.47880        1.43830        1.22950
C          6.98770        0.43770        2.18480
O          8.05390       -0.13630        2.05580
C          6.04070        0.19500        3.26200
C          6.03980       -0.80320        4.21040
N          4.92500       -0.67860        4.97010
C          4.54620       -1.56040        6.04760
C          4.57550       -3.02540        5.62270
C          4.21440        0.39790        4.55550
C          4.87010        0.97780        3.49140
C          4.52430        2.15770        2.70760
O          3.71440        3.00210        3.04050
C          5.29610        2.21010        1.44410
C          4.96570        2.98540        0.36200
C          3.79580        3.79770        0.11840
C          2.50700        3.41000        0.09890
C          1.91820        2.12660        0.33940
S          2.78920        0.78170        0.99500
C          0.57190        1.80130        0.20240
C         -0.42860        2.72770       -0.35110
O         -0.14350        3.74630       -0.97210
C         -1.78940        2.30850       -0.09520
C         -2.97940        2.97730       -0.28750
N         -3.99280        2.17410        0.11060
C         -5.37320        2.57890        0.18900
C         -5.69540        3.14220        1.57170
C         -3.49500        0.99100        0.53780
C         -2.11950        1.02870        0.43440
C         -1.14280        0.00040        0.73210
O         -1.46930       -1.14640        1.02800
C          0.24510        0.48270        0.66190
C          1.36130       -0.19230        1.14130
C          1.55890       -1.40560        1.87350
C          0.85430       -2.54560        1.78400
C          0.99140       -3.68750        2.63640
S          0.73420       -5.23330        1.89100
C          1.17810       -3.81030        4.00610
C          1.29360       -2.68290        4.94400
O          1.47110       -1.51540        4.62970
C          1.20490       -3.09900        6.33780
C          1.17980       -2.32620        7.47810
N          1.15380       -3.14660        8.55640
C          1.18850       -2.71050        9.92910
C          2.62570       -2.48420       10.39540
C          1.18300       -4.43600        8.14260
C          1.20650       -4.45480        6.76560
C          1.22090       -5.58760        5.85230
O          1.29450       -6.74470        6.23440
C          1.11560       -5.17520        4.44200
C          0.89280       -6.06470        3.40470
C          0.74690       -7.49170        3.47610
C          0.39130       -8.25190        2.44240
H        -10.49720        1.89810       -3.74590
H        -10.43110        7.58770       -3.49550
H         -9.37670        9.76720       -2.75320
H         -7.64830        9.77480       -2.34390
H         -8.05590       11.00130       -4.47220
H         -8.79850        9.56030       -5.17520
H         -7.08030        9.55880       -4.77030
H         -6.34650        7.61080       -2.56030
H         -4.98500        2.66950       -2.99040
H         -5.92380       -0.23240       -2.65410
H         -2.78400        2.00460       -3.23620
H         -1.48680        2.25500       -4.96870
H         -0.62160        4.57070       -5.61060
H          2.51420        5.50610       -2.24020
H          3.21010        6.98680       -2.95260
H          4.99440        5.25600       -2.68110
H          4.05040        4.11670       -3.64270
H          4.70160        5.57960       -4.39560
H          0.34470       -4.43390       -2.45510
H         -0.53760       -6.51750       -1.25090
H         -4.13570       -4.83620        1.50980
H         -4.30030       -6.33450        2.46050
H         -3.34540       -4.55880        3.90410
H         -2.05640       -4.26160        2.73690
H         -2.11880       -5.80180        3.61470
H          1.85870       -3.03400       -1.20510
H          4.83590       -6.83720       -3.07210
H          8.27700       -8.04690       -3.79600
H          6.55680       -8.44920       -3.97810
H          6.42370       -8.96450       -1.53600
H          7.65280       -9.95910       -2.32570
H          8.13290       -8.56330       -1.35390
H          8.89100       -5.89430       -2.59220
H          8.86320       -0.88940       -1.41860
H          9.14490        1.32280       -0.49080
H          6.76260       -1.57810        4.36670
H          5.22330       -1.40740        6.89690
H          3.53320       -1.28730        6.35070
H          4.18500       -3.64920        6.42250
H          5.58730       -3.35030        5.39620
H          3.95870       -3.17180        4.73920
H          3.27580        0.66240        4.99990
H          4.00800        4.82620       -0.14730
H          1.77060        4.16920       -0.13230
H         -3.15880        3.95950       -0.67790
H         -5.54660        3.34060       -0.57430
H         -6.00580        1.71250       -0.02040
H         -6.73790        3.44510        1.61280
H         -5.51670        2.39450        2.34130
H         -5.07250        4.00890        1.77920
H         -4.12590        0.19870        0.89010
H          2.39380       -1.35670        2.56000
H          0.12400       -2.66070        0.99660
H          1.14920       -1.25900        7.57890
H          0.61730       -1.78240       10.01570
H          0.71070       -3.47390       10.54790
H          2.63370       -2.16220       11.43260
H          3.10510       -1.71950        9.78870
H          3.19980       -3.40390       10.31080
H          1.17300       -5.25590        8.83280
H          0.93140       -7.92000        4.45130
H          0.18840       -7.82970        1.47100
H          0.27920       -9.31690        2.54110
