
  xtb     03072215263D
 energy: -461.397674045842 gnorm: 0.000481895106 xtb: 6.4.1 (unknown)
272301  0     0  0            999 V2000
   -5.3415   -5.3235   -2.7537 C   0  0  0  0  0  0  0  0  0  0  0  0
   -4.5327   -6.2558   -2.2130 C   0  0  0  0  0  0  0  0  0  0  0  0
   -4.0903   -5.9191   -0.8988 C   0  0  0  0  0  0  0  0  0  0  0  0
   -3.1697   -6.6155   -0.0949 C   0  0  0  0  0  0  0  0  0  0  0  0
   -2.4297   -7.7666   -0.5682 C   0  0  0  0  0  0  0  0  0  0  0  0
   -2.0909   -8.8883    0.1318 C   0  0  0  0  0  0  0  0  0  0  0  0
   -1.2394   -9.7968   -0.5295 C   0  0  0  0  0  0  0  0  0  0  0  0
   -0.8455   -9.4195   -1.7796 C   0  0  0  0  0  0  0  0  0  0  0  0
    0.1355  -10.4078   -2.8369 S   0  0  0  0  0  0  0  0  0  0  0  0
    0.8221   -9.1453   -3.9657 C   0  0  0  0  0  0  0  0  0  0  0  0
    1.8406   -8.2573   -3.2808 C   0  0  0  0  0  0  0  0  0  0  0  0
   -1.6177   -7.7733   -2.2734 Se  0  0  0  0  0  2  0  0  0  0  0  0
   -2.9121   -6.0700    1.1591 C   0  0  0  0  0  0  0  0  0  0  0  0
   -3.4927   -4.8642    1.6161 C   0  0  0  0  0  0  0  0  0  0  0  0
   -4.3514   -4.1214    0.7796 C   0  0  0  0  0  0  0  0  0  0  0  0
   -4.7983   -2.7874    1.1091 C   0  0  0  0  0  0  0  0  0  0  0  0
   -5.9822   -2.1910    0.7662 C   0  0  0  0  0  0  0  0  0  0  0  0
   -6.0951   -0.8201    1.0635 C   0  0  0  0  0  0  0  0  0  0  0  0
   -4.9924   -0.2628    1.6465 C   0  0  0  0  0  0  0  0  0  0  0  0
   -4.8926    1.4060    2.1559 S   0  0  0  0  0  0  0  0  0  0  0  0
   -3.0883    1.6053    2.3411 C   0  0  0  0  0  0  0  0  0  0  0  0
   -2.3784    1.6381    1.0047 C   0  0  0  0  0  0  0  0  0  0  0  0
   -3.6454   -1.5396    1.9261 Se  0  0  0  0  0  2  0  0  0  0  0  0
   -4.6458   -4.6979   -0.4556 C   0  0  0  0  0  0  0  0  0  0  0  0
   -5.6406   -3.9835   -1.7019 S   0  0  0  0  0  0  0  0  0  0  0  0
   -3.0256   -4.5155    2.9065 C   0  0  0  0  0  0  0  0  0  0  0  0
   -2.0723   -5.3629    3.3969 C   0  0  0  0  0  0  0  0  0  0  0  0
   -1.7500   -6.6875    2.3025 S   0  0  0  0  0  0  0  0  0  0  0  0
   -1.3234   -5.1938    4.6001 C   0  0  0  0  0  0  0  0  0  0  0  0
   -1.5139   -4.2192    5.5353 C   0  0  0  0  0  0  0  0  0  0  0  0
   -0.5162   -4.1761    6.5379 C   0  0  0  0  0  0  0  0  0  0  0  0
   -0.3639   -3.2210    7.5668 C   0  0  0  0  0  0  0  0  0  0  0  0
   -1.3406   -2.1791    7.8047 C   0  0  0  0  0  0  0  0  0  0  0  0
   -1.0979   -0.8801    8.1636 C   0  0  0  0  0  0  0  0  0  0  0  0
   -2.2229   -0.0400    8.2598 C   0  0  0  0  0  0  0  0  0  0  0  0
   -3.4188   -0.6396    7.9954 C   0  0  0  0  0  0  0  0  0  0  0  0
   -4.9686    0.1664    8.0369 S   0  0  0  0  0  0  0  0  0  0  0  0
   -5.8269   -0.7184    6.6844 C   0  0  0  0  0  0  0  0  0  0  0  0
   -5.2071   -0.4327    5.3328 C   0  0  0  0  0  0  0  0  0  0  0  0
   -3.1960   -2.4729    7.6433 Se  0  0  0  0  0  2  0  0  0  0  0  0
    0.8377   -3.2803    8.2688 C   0  0  0  0  0  0  0  0  0  0  0  0
    1.8697   -4.2180    8.0109 C   0  0  0  0  0  0  0  0  0  0  0  0
    1.6772   -5.2144    7.0304 C   0  0  0  0  0  0  0  0  0  0  0  0
    2.6882   -6.2033    6.7182 C   0  0  0  0  0  0  0  0  0  0  0  0
    4.0334   -6.0216    6.5598 C   0  0  0  0  0  0  0  0  0  0  0  0
    4.7851   -7.1748    6.2635 C   0  0  0  0  0  0  0  0  0  0  0  0
    4.0595   -8.3296    6.1797 C   0  0  0  0  0  0  0  0  0  0  0  0
    4.7512   -9.8975    5.8436 S   0  0  0  0  0  0  0  0  0  0  0  0
    3.2323  -10.9171    5.7777 C   0  0  0  0  0  0  0  0  0  0  0  0
    3.5795  -12.3553    5.4547 C   0  0  0  0  0  0  0  0  0  0  0  0
    2.2257   -8.0157    6.4769 Se  0  0  0  0  0  2  0  0  0  0  0  0
    0.4780   -5.1607    6.3259 C   0  0  0  0  0  0  0  0  0  0  0  0
    0.0979   -6.1574    4.9426 S   0  0  0  0  0  0  0  0  0  0  0  0
    3.0449   -3.9387    8.7598 C   0  0  0  0  0  0  0  0  0  0  0  0
    2.9427   -2.8248    9.5406 C   0  0  0  0  0  0  0  0  0  0  0  0
    1.3210   -2.1512    9.4984 S   0  0  0  0  0  0  0  0  0  0  0  0
    3.9516   -1.9273   10.0177 C   0  0  0  0  0  0  0  0  0  0  0  0
    5.1795   -1.7048    9.4592 C   0  0  0  0  0  0  0  0  0  0  0  0
    5.6135   -0.3564    9.5677 C   0  0  0  0  0  0  0  0  0  0  0  0
    6.6332    0.2572    8.7943 C   0  0  0  0  0  0  0  0  0  0  0  0
    7.7318   -0.5051    8.2819 C   0  0  0  0  0  0  0  0  0  0  0  0
    8.2399   -1.6621    8.8251 C   0  0  0  0  0  0  0  0  0  0  0  0
    9.3464   -2.2220    8.1698 C   0  0  0  0  0  0  0  0  0  0  0  0
    9.7767   -1.5326    7.0677 C   0  0  0  0  0  0  0  0  0  0  0  0
   11.0813   -2.0813    6.0450 S   0  0  0  0  0  0  0  0  0  0  0  0
   11.4330   -0.5827    5.0611 C   0  0  0  0  0  0  0  0  0  0  0  0
   12.1509    0.4782    5.8699 C   0  0  0  0  0  0  0  0  0  0  0  0
    8.7192   -0.0035    6.7558 Se  0  0  0  0  0  2  0  0  0  0  0  0
    6.3794    1.5927    8.4680 C   0  0  0  0  0  0  0  0  0  0  0  0
    5.3510    2.3529    9.0636 C   0  0  0  0  0  0  0  0  0  0  0  0
    4.5764    1.8213   10.1215 C   0  0  0  0  0  0  0  0  0  0  0  0
    3.6042    2.6320   10.8013 C   0  0  0  0  0  0  0  0  0  0  0  0
    3.6994    3.9776   11.0546 C   0  0  0  0  0  0  0  0  0  0  0  0
    2.5822    4.5778   11.6584 C   0  0  0  0  0  0  0  0  0  0  0  0
    1.5365    3.7306   11.9083 C   0  0  0  0  0  0  0  0  0  0  0  0
    0.0528    4.2380   12.6791 S   0  0  0  0  0  0  0  0  0  0  0  0
   -0.9809    2.7375   12.5378 C   0  0  0  0  0  0  0  0  0  0  0  0
   -1.5279    2.5389   11.1390 C   0  0  0  0  0  0  0  0  0  0  0  0
    1.9394    1.9648   11.3879 Se  0  0  0  0  0  2  0  0  0  0  0  0
    4.6734    0.4397   10.2595 C   0  0  0  0  0  0  0  0  0  0  0  0
    3.4267   -0.5481   10.9759 S   0  0  0  0  0  0  0  0  0  0  0  0
    4.9794    3.4610    8.2581 C   0  0  0  0  0  0  0  0  0  0  0  0
    5.6751    3.5537    7.0938 C   0  0  0  0  0  0  0  0  0  0  0  0
    7.0111    2.4023    7.0506 S   0  0  0  0  0  0  0  0  0  0  0  0
    5.1018    4.0553    5.8685 C   0  0  0  0  0  0  0  0  0  0  0  0
    3.8625    3.6227    5.5064 C   0  0  0  0  0  0  0  0  0  0  0  0
    3.4866    3.9826    4.1935 C   0  0  0  0  0  0  0  0  0  0  0  0
    2.3326    3.5668    3.5075 C   0  0  0  0  0  0  0  0  0  0  0  0
    1.3582    2.6553    4.0741 C   0  0  0  0  0  0  0  0  0  0  0  0
    0.8009    2.6207    5.3196 C   0  0  0  0  0  0  0  0  0  0  0  0
   -0.0358    1.5169    5.5976 C   0  0  0  0  0  0  0  0  0  0  0  0
   -0.1527    0.6102    4.5849 C   0  0  0  0  0  0  0  0  0  0  0  0
   -1.1592   -0.8238    4.6180 S   0  0  0  0  0  0  0  0  0  0  0  0
   -0.4109   -1.8078    3.2752 C   0  0  0  0  0  0  0  0  0  0  0  0
    0.9551   -2.3442    3.6421 C   0  0  0  0  0  0  0  0  0  0  0  0
    0.8048    1.1589    3.0611 Se  0  0  0  0  0  2  0  0  0  0  0  0
    2.2575    3.9611    2.1806 C   0  0  0  0  0  0  0  0  0  0  0  0
    3.2274    4.7392    1.5099 C   0  0  0  0  0  0  0  0  0  0  0  0
    4.3734    5.1752    2.2147 C   0  0  0  0  0  0  0  0  0  0  0  0
    5.3721    6.0242    1.6060 C   0  0  0  0  0  0  0  0  0  0  0  0
    6.7238    6.0242    1.8139 C   0  0  0  0  0  0  0  0  0  0  0  0
    7.4528    7.0345    1.1595 C   0  0  0  0  0  0  0  0  0  0  0  0
    6.7045    7.9071    0.4207 C   0  0  0  0  0  0  0  0  0  0  0  0
    7.3804    9.2955   -0.4000 S   0  0  0  0  0  0  0  0  0  0  0  0
    5.9671    9.8767   -1.4005 C   0  0  0  0  0  0  0  0  0  0  0  0
    5.7325    9.0128   -2.6230 C   0  0  0  0  0  0  0  0  0  0  0  0
    4.8777    7.4634    0.4871 Se  0  0  0  0  0  2  0  0  0  0  0  0
    4.4844    4.7439    3.5406 C   0  0  0  0  0  0  0  0  0  0  0  0
    5.8585    4.9886    4.6031 S   0  0  0  0  0  0  0  0  0  0  0  0
    2.9277    4.8507    0.1199 C   0  0  0  0  0  0  0  0  0  0  0  0
    1.7895    4.1980   -0.2485 C   0  0  0  0  0  0  0  0  0  0  0  0
    0.9716    3.4815    1.1272 S   0  0  0  0  0  0  0  0  0  0  0  0
    1.1969    3.8822   -1.5092 C   0  0  0  0  0  0  0  0  0  0  0  0
    0.3206    2.8486   -1.6676 C   0  0  0  0  0  0  0  0  0  0  0  0
   -0.1469    2.6731   -2.9860 C   0  0  0  0  0  0  0  0  0  0  0  0
   -1.0390    1.6826   -3.4440 C   0  0  0  0  0  0  0  0  0  0  0  0
   -1.4418    0.5655   -2.6100 C   0  0  0  0  0  0  0  0  0  0  0  0
   -2.6429   -0.0938   -2.6047 C   0  0  0  0  0  0  0  0  0  0  0  0
   -2.7172   -1.2395   -1.7848 C   0  0  0  0  0  0  0  0  0  0  0  0
   -1.5627   -1.5519   -1.1330 C   0  0  0  0  0  0  0  0  0  0  0  0
   -1.2764   -2.9297   -0.0778 S   0  0  0  0  0  0  0  0  0  0  0  0
   -1.0637   -4.2503   -1.3311 C   0  0  0  0  0  0  0  0  0  0  0  0
    0.1346   -4.0241   -2.2259 C   0  0  0  0  0  0  0  0  0  0  0  0
   -0.2002   -0.3120   -1.4888 Se  0  0  0  0  0  2  0  0  0  0  0  0
   -1.4265    1.7928   -4.7757 C   0  0  0  0  0  0  0  0  0  0  0  0
   -0.9247    2.7910   -5.6480 C   0  0  0  0  0  0  0  0  0  0  0  0
   -0.0070    3.7606   -5.1875 C   0  0  0  0  0  0  0  0  0  0  0  0
    0.4930    4.7943   -6.0663 C   0  0  0  0  0  0  0  0  0  0  0  0
   -0.2153    5.5140   -6.9878 C   0  0  0  0  0  0  0  0  0  0  0  0
    0.5223    6.4392   -7.7501 C   0  0  0  0  0  0  0  0  0  0  0  0
    1.8597    6.4801   -7.4728 C   0  0  0  0  0  0  0  0  0  0  0  0
    2.9903    7.4709   -8.3687 S   0  0  0  0  0  0  0  0  0  0  0  0
    4.5173    7.2957   -7.3862 C   0  0  0  0  0  0  0  0  0  0  0  0
    4.4790    8.1097   -6.1092 C   0  0  0  0  0  0  0  0  0  0  0  0
    2.3136    5.2756   -6.0943 Se  0  0  0  0  0  2  0  0  0  0  0  0
    0.3709    3.6604   -3.8541 C   0  0  0  0  0  0  0  0  0  0  0  0
    1.4815    4.7238   -3.0166 S   0  0  0  0  0  0  0  0  0  0  0  0
   -1.4020    2.6186   -6.9693 C   0  0  0  0  0  0  0  0  0  0  0  0
   -2.2562    1.5645   -7.1148 C   0  0  0  0  0  0  0  0  0  0  0  0
   -2.5066    0.7103   -5.6102 S   0  0  0  0  0  0  0  0  0  0  0  0
   -2.9272    1.1693   -8.3114 C   0  0  0  0  0  0  0  0  0  0  0  0
   -2.7230    1.6713   -9.5626 C   0  0  0  0  0  0  0  0  0  0  0  0
   -3.5855    1.1230  -10.5444 C   0  0  0  0  0  0  0  0  0  0  0  0
   -3.6153    1.4112  -11.9186 C   0  0  0  0  0  0  0  0  0  0  0  0
   -2.7238    2.4308  -12.4825 C   0  0  0  0  0  0  0  0  0  0  0  0
   -2.6367    3.6940  -11.9006 C   0  0  0  0  0  0  0  0  0  0  0  0
   -1.7522    4.6410  -12.3759 C   0  0  0  0  0  0  0  0  0  0  0  0
   -0.9129    4.3566  -13.4474 C   0  0  0  0  0  0  0  0  0  0  0  0
    0.2777    5.4723  -14.1138 S   0  0  0  0  0  0  0  0  0  0  0  0
    0.6372    6.6023  -12.7220 C   0  0  0  0  0  0  0  0  0  0  0  0
    1.2990    5.8931  -11.5567 C   0  0  0  0  0  0  0  0  0  0  0  0
   -1.0445    3.1051  -14.0512 C   0  0  0  0  0  0  0  0  0  0  0  0
   -0.2677    2.8031  -15.1092 F   0  0  0  0  0  0  0  0  0  0  0  0
   -1.9270    2.1530  -13.5904 C   0  0  0  0  0  0  0  0  0  0  0  0
   -4.5198    0.6887  -12.6830 C   0  0  0  0  0  0  0  0  0  0  0  0
   -5.3937   -0.2831  -12.1359 C   0  0  0  0  0  0  0  0  0  0  0  0
   -5.3617   -0.5713  -10.7630 C   0  0  0  0  0  0  0  0  0  0  0  0
   -6.2224   -1.5955  -10.1591 C   0  0  0  0  0  0  0  0  0  0  0  0
   -6.9701   -1.3176   -9.0186 C   0  0  0  0  0  0  0  0  0  0  0  0
   -7.7554   -2.2858   -8.4244 C   0  0  0  0  0  0  0  0  0  0  0  0
   -7.8122   -3.5740   -8.9433 C   0  0  0  0  0  0  0  0  0  0  0  0
   -8.7784   -4.8930   -8.2850 S   0  0  0  0  0  0  0  0  0  0  0  0
   -9.1144   -4.3756   -6.5659 C   0  0  0  0  0  0  0  0  0  0  0  0
   -7.8596   -4.3709   -5.7142 C   0  0  0  0  0  0  0  0  0  0  0  0
   -7.0673   -3.8357  -10.0946 C   0  0  0  0  0  0  0  0  0  0  0  0
   -6.2854   -2.8781  -10.7005 C   0  0  0  0  0  0  0  0  0  0  0  0
   -7.1035   -5.0713  -10.6328 F   0  0  0  0  0  0  0  0  0  0  0  0
   -4.4582    0.1516   -9.9975 C   0  0  0  0  0  0  0  0  0  0  0  0
   -4.1956   -0.0377   -8.2823 S   0  0  0  0  0  0  0  0  0  0  0  0
   -6.2643   -0.8213  -13.1301 C   0  0  0  0  0  0  0  0  0  0  0  0
   -6.0517   -0.2975  -14.3541 C   0  0  0  0  0  0  0  0  0  0  0  0
   -4.7878    0.8833  -14.3958 S   0  0  0  0  0  0  0  0  0  0  0  0
   -5.8074   -5.3292   -3.7190 H   0  0  0  0  0  0  0  0  0  0  0  0
   -4.2727   -7.1717   -2.7161 H   0  0  0  0  0  0  0  0  0  0  0  0
   -2.4671   -9.0805    1.1225 H   0  0  0  0  0  0  0  0  0  0  0  0
   -0.9099  -10.7183   -0.0819 H   0  0  0  0  0  0  0  0  0  0  0  0
    1.2723   -9.7151   -4.7777 H   0  0  0  0  0  0  0  0  0  0  0  0
   -0.0222   -8.5686   -4.3580 H   0  0  0  0  0  0  0  0  0  0  0  0
    2.2391   -7.5355   -3.9909 H   0  0  0  0  0  0  0  0  0  0  0  0
    2.6607   -8.8538   -2.8884 H   0  0  0  0  0  0  0  0  0  0  0  0
    1.3830   -7.7130   -2.4545 H   0  0  0  0  0  0  0  0  0  0  0  0
   -6.7941   -2.7389    0.3180 H   0  0  0  0  0  0  0  0  0  0  0  0
   -6.9763   -0.2447    0.8376 H   0  0  0  0  0  0  0  0  0  0  0  0
   -2.9586    2.5418    2.8825 H   0  0  0  0  0  0  0  0  0  0  0  0
   -2.7403    0.7786    2.9691 H   0  0  0  0  0  0  0  0  0  0  0  0
   -2.5584    0.7167    0.4484 H   0  0  0  0  0  0  0  0  0  0  0  0
   -1.3058    1.7361    1.1711 H   0  0  0  0  0  0  0  0  0  0  0  0
   -2.7210    2.4782    0.4049 H   0  0  0  0  0  0  0  0  0  0  0  0
   -3.3964   -3.6720    3.4648 H   0  0  0  0  0  0  0  0  0  0  0  0
   -2.3165   -3.5075    5.4614 H   0  0  0  0  0  0  0  0  0  0  0  0
   -0.1014   -0.4907    8.2810 H   0  0  0  0  0  0  0  0  0  0  0  0
   -2.1542    1.0092    8.4917 H   0  0  0  0  0  0  0  0  0  0  0  0
   -5.7956   -1.7846    6.9299 H   0  0  0  0  0  0  0  0  0  0  0  0
   -6.8575   -0.3695    6.7335 H   0  0  0  0  0  0  0  0  0  0  0  0
   -4.1606   -0.7427    5.3108 H   0  0  0  0  0  0  0  0  0  0  0  0
   -5.2556    0.6300    5.1072 H   0  0  0  0  0  0  0  0  0  0  0  0
   -5.7453   -0.9770    4.5578 H   0  0  0  0  0  0  0  0  0  0  0  0
    4.4876   -5.0456    6.5987 H   0  0  0  0  0  0  0  0  0  0  0  0
    5.8496   -7.1542    6.1056 H   0  0  0  0  0  0  0  0  0  0  0  0
    2.5854  -10.4800    5.0115 H   0  0  0  0  0  0  0  0  0  0  0  0
    2.7459  -10.8335    6.7544 H   0  0  0  0  0  0  0  0  0  0  0  0
    4.2399  -12.7670    6.2142 H   0  0  0  0  0  0  0  0  0  0  0  0
    4.0802  -12.4176    4.4912 H   0  0  0  0  0  0  0  0  0  0  0  0
    2.6723  -12.9542    5.4172 H   0  0  0  0  0  0  0  0  0  0  0  0
    3.9428   -4.5241    8.6947 H   0  0  0  0  0  0  0  0  0  0  0  0
    5.6664   -2.4233    8.8240 H   0  0  0  0  0  0  0  0  0  0  0  0
    7.8438   -2.0854    9.7330 H   0  0  0  0  0  0  0  0  0  0  0  0
    9.8350   -3.1191    8.5094 H   0  0  0  0  0  0  0  0  0  0  0  0
   12.0466   -0.9335    4.2319 H   0  0  0  0  0  0  0  0  0  0  0  0
   10.4759   -0.2197    4.6729 H   0  0  0  0  0  0  0  0  0  0  0  0
   11.5324    0.8085    6.7050 H   0  0  0  0  0  0  0  0  0  0  0  0
   13.0862    0.0878    6.2640 H   0  0  0  0  0  0  0  0  0  0  0  0
   12.3654    1.3392    5.2404 H   0  0  0  0  0  0  0  0  0  0  0  0
    4.5939    4.5351   10.8305 H   0  0  0  0  0  0  0  0  0  0  0  0
    2.5454    5.6240   11.9092 H   0  0  0  0  0  0  0  0  0  0  0  0
   -1.7840    2.8872   13.2586 H   0  0  0  0  0  0  0  0  0  0  0  0
   -0.3646    1.8904   12.8555 H   0  0  0  0  0  0  0  0  0  0  0  0
   -2.1240    3.3971   10.8369 H   0  0  0  0  0  0  0  0  0  0  0  0
   -2.1529    1.6486   11.1122 H   0  0  0  0  0  0  0  0  0  0  0  0
   -0.7132    2.4097   10.4250 H   0  0  0  0  0  0  0  0  0  0  0  0
    4.1279    4.0814    8.4739 H   0  0  0  0  0  0  0  0  0  0  0  0
    3.2650    2.9909    6.1376 H   0  0  0  0  0  0  0  0  0  0  0  0
    0.9611    3.4053    6.0409 H   0  0  0  0  0  0  0  0  0  0  0  0
   -0.5410    1.3909    6.5386 H   0  0  0  0  0  0  0  0  0  0  0  0
   -0.3748   -1.1674    2.3856 H   0  0  0  0  0  0  0  0  0  0  0  0
   -1.1169   -2.6176    3.0890 H   0  0  0  0  0  0  0  0  0  0  0  0
    1.3212   -2.9784    2.8380 H   0  0  0  0  0  0  0  0  0  0  0  0
    0.9044   -2.9290    4.5577 H   0  0  0  0  0  0  0  0  0  0  0  0
    1.6653   -1.5302    3.7923 H   0  0  0  0  0  0  0  0  0  0  0  0
    7.2150    5.2688    2.4030 H   0  0  0  0  0  0  0  0  0  0  0  0
    8.5226    7.1227    1.2353 H   0  0  0  0  0  0  0  0  0  0  0  0
    5.0913    9.8993   -0.7448 H   0  0  0  0  0  0  0  0  0  0  0  0
    6.2292   10.8961   -1.6818 H   0  0  0  0  0  0  0  0  0  0  0  0
    5.4941    7.9895   -2.3316 H   0  0  0  0  0  0  0  0  0  0  0  0
    6.6216    8.9977   -3.2492 H   0  0  0  0  0  0  0  0  0  0  0  0
    4.8995    9.4087   -3.1998 H   0  0  0  0  0  0  0  0  0  0  0  0
    3.5717    5.3268   -0.6013 H   0  0  0  0  0  0  0  0  0  0  0  0
   -0.0009    2.2405   -0.8405 H   0  0  0  0  0  0  0  0  0  0  0  0
   -3.4956    0.2564   -3.1612 H   0  0  0  0  0  0  0  0  0  0  0  0
   -3.6159   -1.8261   -1.6854 H   0  0  0  0  0  0  0  0  0  0  0  0
   -1.9892   -4.3140   -1.9042 H   0  0  0  0  0  0  0  0  0  0  0  0
   -0.9437   -5.1547   -0.7345 H   0  0  0  0  0  0  0  0  0  0  0  0
    0.0069   -3.1231   -2.8250 H   0  0  0  0  0  0  0  0  0  0  0  0
    1.0413   -3.9241   -1.6328 H   0  0  0  0  0  0  0  0  0  0  0  0
    0.2450   -4.8724   -2.9001 H   0  0  0  0  0  0  0  0  0  0  0  0
   -1.2838    5.4184   -7.0869 H   0  0  0  0  0  0  0  0  0  0  0  0
    0.0715    7.0733   -8.4939 H   0  0  0  0  0  0  0  0  0  0  0  0
    5.3126    7.6348   -8.0492 H   0  0  0  0  0  0  0  0  0  0  0  0
    4.6475    6.2280   -7.1836 H   0  0  0  0  0  0  0  0  0  0  0  0
    3.6670    7.7743   -5.4632 H   0  0  0  0  0  0  0  0  0  0  0  0
    4.3323    9.1634   -6.3352 H   0  0  0  0  0  0  0  0  0  0  0  0
    5.4168    7.9907   -5.5716 H   0  0  0  0  0  0  0  0  0  0  0  0
   -1.1045    3.2441   -7.7893 H   0  0  0  0  0  0  0  0  0  0  0  0
   -1.9604    2.3930   -9.7883 H   0  0  0  0  0  0  0  0  0  0  0  0
   -3.2872    3.9445  -11.0758 H   0  0  0  0  0  0  0  0  0  0  0  0
   -1.7213    5.6113  -11.9063 H   0  0  0  0  0  0  0  0  0  0  0  0
    1.3134    7.3340  -13.1636 H   0  0  0  0  0  0  0  0  0  0  0  0
   -0.2812    7.1116  -12.4328 H   0  0  0  0  0  0  0  0  0  0  0  0
    2.1981    5.3814  -11.8915 H   0  0  0  0  0  0  0  0  0  0  0  0
    1.5781    6.6147  -10.7910 H   0  0  0  0  0  0  0  0  0  0  0  0
    0.6303    5.1571  -11.1144 H   0  0  0  0  0  0  0  0  0  0  0  0
   -1.9634    1.1919  -14.0780 H   0  0  0  0  0  0  0  0  0  0  0  0
   -6.9559   -0.3233   -8.5993 H   0  0  0  0  0  0  0  0  0  0  0  0
   -8.3314   -2.0237   -7.5519 H   0  0  0  0  0  0  0  0  0  0  0  0
   -9.8216   -5.1252   -6.2107 H   0  0  0  0  0  0  0  0  0  0  0  0
   -9.6138   -3.4079   -6.5783 H   0  0  0  0  0  0  0  0  0  0  0  0
   -7.1333   -3.6527   -6.0906 H   0  0  0  0  0  0  0  0  0  0  0  0
   -7.4044   -5.3592   -5.7245 H   0  0  0  0  0  0  0  0  0  0  0  0
   -8.1094   -4.1076   -4.6877 H   0  0  0  0  0  0  0  0  0  0  0  0
   -5.7068   -3.1448  -11.5711 H   0  0  0  0  0  0  0  0  0  0  0  0
   -7.0229   -1.5526  -12.9186 H   0  0  0  0  0  0  0  0  0  0  0  0
   -6.5650   -0.5280  -15.2671 H   0  0  0  0  0  0  0  0  0  0  0  0
  1  2  2  0  0  0  0
  2  3  1  0  0  0  0
  3  4  2  0  0  0  0
  4  5  1  0  0  0  0
  5  6  2  0  0  0  0
  6  7  1  0  0  0  0
  7  8  2  0  0  0  0
  8  9  1  0  0  0  0
  9 10  1  0  0  0  0
 10 11  1  0  0  0  0
  8 12  1  0  0  0  0
  4 13  1  0  0  0  0
 13 14  2  0  0  0  0
 14 15  1  0  0  0  0
 15 16  1  0  0  0  0
 16 17  2  0  0  0  0
 17 18  1  0  0  0  0
 18 19  2  0  0  0  0
 19 20  1  0  0  0  0
 20 21  1  0  0  0  0
 21 22  1  0  0  0  0
 19 23  1  0  0  0  0
 15 24  2  0  0  0  0
 24 25  1  0  0  0  0
 14 26  1  0  0  0  0
 26 27  2  0  0  0  0
 27 28  1  0  0  0  0
 27 29  1  0  0  0  0
 29 30  2  0  0  0  0
 30 31  1  0  0  0  0
 31 32  2  0  0  0  0
 32 33  1  0  0  0  0
 33 34  2  0  0  0  0
 34 35  1  0  0  0  0
 35 36  2  0  0  0  0
 36 37  1  0  0  0  0
 37 38  1  0  0  0  0
 38 39  1  0  0  0  0
 36 40  1  0  0  0  0
 32 41  1  0  0  0  0
 41 42  2  0  0  0  0
 42 43  1  0  0  0  0
 43 44  1  0  0  0  0
 44 45  2  0  0  0  0
 45 46  1  0  0  0  0
 46 47  2  0  0  0  0
 47 48  1  0  0  0  0
 48 49  1  0  0  0  0
 49 50  1  0  0  0  0
 47 51  1  0  0  0  0
 43 52  2  0  0  0  0
 52 53  1  0  0  0  0
 42 54  1  0  0  0  0
 54 55  2  0  0  0  0
 55 56  1  0  0  0  0
 55 57  1  0  0  0  0
 57 58  2  0  0  0  0
 58 59  1  0  0  0  0
 59 60  2  0  0  0  0
 60 61  1  0  0  0  0
 61 62  2  0  0  0  0
 62 63  1  0  0  0  0
 63 64  2  0  0  0  0
 64 65  1  0  0  0  0
 65 66  1  0  0  0  0
 66 67  1  0  0  0  0
 64 68  1  0  0  0  0
 60 69  1  0  0  0  0
 69 70  2  0  0  0  0
 70 71  1  0  0  0  0
 71 72  1  0  0  0  0
 72 73  2  0  0  0  0
 73 74  1  0  0  0  0
 74 75  2  0  0  0  0
 75 76  1  0  0  0  0
 76 77  1  0  0  0  0
 77 78  1  0  0  0  0
 75 79  1  0  0  0  0
 71 80  2  0  0  0  0
 80 81  1  0  0  0  0
 70 82  1  0  0  0  0
 82 83  2  0  0  0  0
 83 84  1  0  0  0  0
 83 85  1  0  0  0  0
 85 86  2  0  0  0  0
 86 87  1  0  0  0  0
 87 88  2  0  0  0  0
 88 89  1  0  0  0  0
 89 90  2  0  0  0  0
 90 91  1  0  0  0  0
 91 92  2  0  0  0  0
 92 93  1  0  0  0  0
 93 94  1  0  0  0  0
 94 95  1  0  0  0  0
 92 96  1  0  0  0  0
 88 97  1  0  0  0  0
 97 98  2  0  0  0  0
 98 99  1  0  0  0  0
 99100  1  0  0  0  0
100101  2  0  0  0  0
101102  1  0  0  0  0
102103  2  0  0  0  0
103104  1  0  0  0  0
104105  1  0  0  0  0
105106  1  0  0  0  0
103107  1  0  0  0  0
 99108  2  0  0  0  0
108109  1  0  0  0  0
 98110  1  0  0  0  0
110111  2  0  0  0  0
111112  1  0  0  0  0
111113  1  0  0  0  0
113114  2  0  0  0  0
114115  1  0  0  0  0
115116  2  0  0  0  0
116117  1  0  0  0  0
117118  2  0  0  0  0
118119  1  0  0  0  0
119120  2  0  0  0  0
120121  1  0  0  0  0
121122  1  0  0  0  0
122123  1  0  0  0  0
120124  1  0  0  0  0
116125  1  0  0  0  0
125126  2  0  0  0  0
126127  1  0  0  0  0
127128  1  0  0  0  0
128129  2  0  0  0  0
129130  1  0  0  0  0
130131  2  0  0  0  0
131132  1  0  0  0  0
132133  1  0  0  0  0
133134  1  0  0  0  0
131135  1  0  0  0  0
127136  2  0  0  0  0
136137  1  0  0  0  0
126138  1  0  0  0  0
138139  2  0  0  0  0
139140  1  0  0  0  0
139141  1  0  0  0  0
141142  2  0  0  0  0
142143  1  0  0  0  0
143144  2  0  0  0  0
144145  1  0  0  0  0
145146  2  0  0  0  0
146147  1  0  0  0  0
147148  2  0  0  0  0
148149  1  0  0  0  0
149150  1  0  0  0  0
150151  1  0  0  0  0
148152  1  0  0  0  0
152153  1  0  0  0  0
152154  2  0  0  0  0
144155  1  0  0  0  0
155156  2  0  0  0  0
156157  1  0  0  0  0
157158  1  0  0  0  0
158159  2  0  0  0  0
159160  1  0  0  0  0
160161  2  0  0  0  0
161162  1  0  0  0  0
162163  1  0  0  0  0
163164  1  0  0  0  0
161165  1  0  0  0  0
165166  2  0  0  0  0
165167  1  0  0  0  0
157168  2  0  0  0  0
168169  1  0  0  0  0
156170  1  0  0  0  0
170171  2  0  0  0  0
171172  1  0  0  0  0
 25  1  1  0  0  0  0
 53 29  1  0  0  0  0
 81 57  1  0  0  0  0
109 85  1  0  0  0  0
137113  1  0  0  0  0
169141  1  0  0  0  0
 24  3  1  0  0  0  0
 52 31  1  0  0  0  0
 80 59  1  0  0  0  0
108 87  1  0  0  0  0
136115  1  0  0  0  0
168143  1  0  0  0  0
 12  5  1  0  0  0  0
 28 13  1  0  0  0  0
 40 33  1  0  0  0  0
 56 41  1  0  0  0  0
 68 61  1  0  0  0  0
 84 69  1  0  0  0  0
 96 89  1  0  0  0  0
112 97  1  0  0  0  0
124117  1  0  0  0  0
140125  1  0  0  0  0
154145  1  0  0  0  0
172155  1  0  0  0  0
 23 16  1  0  0  0  0
 51 44  1  0  0  0  0
 79 72  1  0  0  0  0
107100  1  0  0  0  0
135128  1  0  0  0  0
166158  1  0  0  0  0
  1173  1  0  0  0  0
  2174  1  0  0  0  0
  6175  1  0  0  0  0
  7176  1  0  0  0  0
 10177  1  0  0  0  0
 10178  1  0  0  0  0
 11179  1  0  0  0  0
 11180  1  0  0  0  0
 11181  1  0  0  0  0
 17182  1  0  0  0  0
 18183  1  0  0  0  0
 21184  1  0  0  0  0
 21185  1  0  0  0  0
 22186  1  0  0  0  0
 22187  1  0  0  0  0
 22188  1  0  0  0  0
 26189  1  0  0  0  0
 30190  1  0  0  0  0
 34191  1  0  0  0  0
 35192  1  0  0  0  0
 38193  1  0  0  0  0
 38194  1  0  0  0  0
 39195  1  0  0  0  0
 39196  1  0  0  0  0
 39197  1  0  0  0  0
 45198  1  0  0  0  0
 46199  1  0  0  0  0
 49200  1  0  0  0  0
 49201  1  0  0  0  0
 50202  1  0  0  0  0
 50203  1  0  0  0  0
 50204  1  0  0  0  0
 54205  1  0  0  0  0
 58206  1  0  0  0  0
 62207  1  0  0  0  0
 63208  1  0  0  0  0
 66209  1  0  0  0  0
 66210  1  0  0  0  0
 67211  1  0  0  0  0
 67212  1  0  0  0  0
 67213  1  0  0  0  0
 73214  1  0  0  0  0
 74215  1  0  0  0  0
 77216  1  0  0  0  0
 77217  1  0  0  0  0
 78218  1  0  0  0  0
 78219  1  0  0  0  0
 78220  1  0  0  0  0
 82221  1  0  0  0  0
 86222  1  0  0  0  0
 90223  1  0  0  0  0
 91224  1  0  0  0  0
 94225  1  0  0  0  0
 94226  1  0  0  0  0
 95227  1  0  0  0  0
 95228  1  0  0  0  0
 95229  1  0  0  0  0
101230  1  0  0  0  0
102231  1  0  0  0  0
105232  1  0  0  0  0
105233  1  0  0  0  0
106234  1  0  0  0  0
106235  1  0  0  0  0
106236  1  0  0  0  0
110237  1  0  0  0  0
114238  1  0  0  0  0
118239  1  0  0  0  0
119240  1  0  0  0  0
122241  1  0  0  0  0
122242  1  0  0  0  0
123243  1  0  0  0  0
123244  1  0  0  0  0
123245  1  0  0  0  0
129246  1  0  0  0  0
130247  1  0  0  0  0
133248  1  0  0  0  0
133249  1  0  0  0  0
134250  1  0  0  0  0
134251  1  0  0  0  0
134252  1  0  0  0  0
138253  1  0  0  0  0
142254  1  0  0  0  0
146255  1  0  0  0  0
147256  1  0  0  0  0
150257  1  0  0  0  0
150258  1  0  0  0  0
151259  1  0  0  0  0
151260  1  0  0  0  0
151261  1  0  0  0  0
154262  1  0  0  0  0
159263  1  0  0  0  0
160264  1  0  0  0  0
163265  1  0  0  0  0
163266  1  0  0  0  0
164267  1  0  0  0  0
164268  1  0  0  0  0
164269  1  0  0  0  0
166270  1  0  0  0  0
170271  1  0  0  0  0
171272  1  0  0  0  0
M  END
