284

C        -17.32080       -5.90020       10.57310
C        -16.83390       -4.65830       10.38080
C        -16.25090       -4.48470        9.09020
C        -15.61470       -3.34920        8.57170
C        -15.49370       -2.09410        9.32570
C        -14.24960       -1.49560        9.49820
C        -14.11540       -0.30130       10.17990
C        -15.22900        0.34400       10.70620
S        -15.20850        1.87800       11.56780
C        -13.42450        2.27960       11.68300
C        -13.27030        3.58720       12.43650
C        -16.47120       -0.26970       10.52660
F        -17.57190        0.33040       11.02410
C        -16.61630       -1.46430        9.85870
C        -15.08350       -3.46370        7.29640
C        -15.14260       -4.64970        6.52490
C        -15.76120       -5.79370        7.05370
C        -15.78430       -7.06400        6.31980
C        -16.96270       -7.78560        6.15930
C        -16.97740       -8.99360        5.48850
C        -15.80990       -9.52580        4.95430
S        -15.67000      -11.06330        4.10680
C        -17.39630      -11.56170        3.78390
C        -18.04840      -10.71660        2.70590
C        -14.63290       -8.79440        5.13000
C        -14.60510       -7.58880        5.79200
F        -13.47800       -9.28780        4.63960
C        -16.31700       -5.67150        8.32090
S        -17.10790       -6.94790        9.21170
C        -14.55380       -4.47500        5.24340
C        -14.06310       -3.22170        5.03710
S        -14.30360       -2.17350        6.42510
C        -13.35670       -2.69430        3.91700
C        -12.92680       -1.40790        3.78740
C        -12.14460       -1.17410        2.63310
C        -11.46670        0.01270        2.28780
C        -11.49060        1.19590        3.12200
C        -11.52260        2.49900        2.70880
C        -11.51880        3.47420        3.72620
C        -11.45330        2.98430        4.99810
S        -11.38680        3.97430        6.43840
C        -12.03680        2.81260        7.69460
C        -13.51540        2.53480        7.51360
Se       -11.35170        1.10520        5.00200
C        -10.71450       -0.03850        1.11920
C        -10.61460       -1.19230        0.30330
C        -11.29470       -2.38160        0.64880
C        -11.19900       -3.60280       -0.12000
C        -12.19050       -4.53260       -0.29090
C        -11.84690       -5.69390       -1.00340
C        -10.54550       -5.75640       -1.41740
S         -9.86910       -7.08710       -2.31750
C         -8.14460       -6.51320       -2.53570
C         -7.33120       -7.56920       -3.25200
Se        -9.59690       -4.21330       -0.91910
C        -12.04170       -2.33170        1.82520
S        -12.87660       -3.68290        2.55710
C         -9.72710       -0.98590       -0.77920
C         -9.12300        0.23860       -0.77630
S         -9.69290        1.24600        0.53340
C         -8.04880        0.66480       -1.61360
C         -7.33280       -0.11380       -2.47710
C         -6.18620        0.52910       -3.00100
C         -5.20420       -0.01700       -3.84300
C         -5.23010       -1.41290       -4.29620
C         -5.02670       -1.72890       -5.63610
C         -4.96870       -3.04140       -6.06250
C         -5.11240       -4.08820       -5.15940
S         -4.98500       -5.80320       -5.55580
C         -5.19150       -5.86400       -7.36760
C         -6.60630       -5.52510       -7.79500
C         -5.31980       -3.75660       -3.81990
F         -5.45120       -4.74900       -2.91310
C         -5.38170       -2.45350       -3.38160
C         -4.13060        0.80080       -4.15410
C         -3.99820        2.12770       -3.67790
C         -5.00770        2.69380       -2.87970
C         -4.89830        4.08300       -2.42150
C         -5.08460        4.43720       -1.08680
C         -4.92960        5.74540       -0.68070
C         -4.60150        6.75420       -1.58450
S         -4.44770        8.39800       -0.95180
C         -3.01380        9.08890       -1.85920
C         -1.76380        8.25220       -1.67490
C         -4.46520        6.39360       -2.92190
C         -4.58990        5.08460       -3.33820
F         -4.20370        7.32230       -3.86880
C         -6.06540        1.86440       -2.53640
S         -7.38160        2.27650       -1.46860
C         -2.72020        2.66760       -3.97550
C         -1.90440        1.80410       -4.64260
S         -2.70460        0.28660       -5.01600
C         -0.50880        1.92340       -4.89750
C          0.29950        0.95850       -5.42060
C          1.68010        1.25230       -5.32760
C          2.75800        0.39090       -5.62180
C          2.57010       -0.96410       -6.09490
C          3.34880       -1.64280       -6.99120
C          2.99230       -2.98300       -7.23680
C          1.92780       -3.44250       -6.51430
S          1.32940       -5.08450       -6.59800
C         -0.23930       -4.97360       -5.66620
C         -1.34620       -4.30950       -6.45970
Se         1.24290       -2.10510       -5.38500
C          4.02620        0.89170       -5.34380
C          4.25250        2.18140       -4.80450
C          3.17510        3.04270       -4.50300
C          3.34580        4.33300       -3.87220
C          2.56680        5.44450       -4.06120
C          2.86970        6.56450       -3.26770
C          3.89890        6.38790       -2.38450
S          4.47750        7.61370       -1.28690
C          5.94640        6.77560       -0.58190
C          6.67090        7.70160        0.37130
Se         4.61990        4.65910       -2.51310
C          1.90620        2.53620       -4.77560
S          0.40060        3.31620       -4.35590
C          5.62400        2.39790       -4.54080
C          6.41830        1.31800       -4.79150
S          5.51440       -0.01460       -5.47440
C          7.79190        1.20270       -4.43060
C          8.65620        0.16290       -4.59930
C          9.90530        0.35340       -3.95090
C         10.99900       -0.52690       -3.89550
C         11.01800       -1.79350       -4.63610
C         11.34600       -2.98580       -3.99770
C         11.40760       -4.17710       -4.69330
C         11.15830       -4.21670       -6.06010
S         11.21910       -5.65930       -7.06900
C         12.07220       -6.89520       -6.03020
C         13.54270       -6.57610       -5.83600
C         10.81110       -3.01650       -6.68390
F         10.54980       -3.01870       -8.00680
C         10.73440       -1.82430       -6.00020
C         12.06910       -0.14030       -3.10150
C         12.10100        1.08030       -2.38350
C         11.02000        1.97470       -2.45550
C         11.02180        3.23140       -1.69760
C         12.12210        4.08480       -1.70670
C         12.14380        5.24000       -0.94850
C         11.05610        5.59210       -0.15750
S         10.94970        7.01470        0.87490
C         12.65820        7.65250        0.94420
C         12.97590        8.60840       -0.19060
C          9.94780        4.74400       -0.18320
C          9.91800        3.58520       -0.92240
F          8.86640        5.06030        0.56180
C          9.94790        1.57950       -3.23920
S          8.48880        2.49920       -3.47490
C         13.28330        1.21150       -1.61720
C         14.15130        0.17030       -1.76640
S         13.53720       -1.05450       -2.85400
C         15.41020        0.04750       -1.10470
C         16.07940        1.05970       -0.48340
C         17.26310        0.64970        0.17590
C         18.14110        1.43560        0.95060
C         17.89840        2.83960        1.21240
C         18.83420        3.82750        1.34620
C         18.35440        5.11950        1.64890
C         17.00190        5.20340        1.79280
S         15.99590        6.59470        2.12240
C         17.22900        7.86980        2.57700
C         16.50400        9.10880        3.06470
Se        16.16490        3.54790        1.53520
C         19.25200        0.76840        1.46950
C         19.50290       -0.60940        1.26650
C         18.60380       -1.39640        0.52240
C         18.79310       -2.81920        0.33640
C         19.19610       -3.74430        1.25760
C         19.29470       -5.07280        0.79860
C         18.98860       -5.25310       -0.52040
S         19.11490       -6.79400       -1.33910
C         18.27570       -6.45130       -2.92530
C         16.76860       -6.38160       -2.78370
Se        18.50280       -3.62760       -1.34140
C         17.50870       -0.72930       -0.01550
S         16.24370       -1.48000       -0.95260
C         20.71720       -1.02350        1.88980
C         21.33080       -0.02970        2.56150
S         20.49120        1.47920        2.47180
H        -17.80690       -6.29060       11.44580
H        -16.86540       -3.88130       11.12280
H        -13.36700       -1.97790        9.10720
H        -13.13110        0.12140       10.29920
H        -13.03060        2.36780       10.67070
H        -12.93010        1.46360       12.21040
H        -12.21630        3.84370       12.52020
H        -13.68960        3.50280       13.43620
H        -13.78530        4.39000       11.91420
H        -17.60250       -1.88380        9.73530
H        -17.88790       -7.39140        6.55070
H        -17.91240       -9.52090        5.39400
H        -17.94730      -11.54140        4.72330
H        -17.30430      -12.59820        3.45940
H        -18.09230       -9.67030        3.00070
H        -19.06130      -11.06910        2.52070
H        -17.48070      -10.78730        1.78110
H        -13.66290       -7.07850        5.91600
H        -14.50780       -5.24520        4.49440
H        -13.18770       -0.65440        4.51100
H        -11.61490        2.76940        1.67040
H        -11.58280        4.52880        3.52150
H        -11.83200        3.30280        8.64630
H        -11.44150        1.89640        7.62600
H        -13.86090        1.82270        8.26100
H        -14.09010        3.45320        7.60710
H        -13.70540        2.10530        6.53000
H        -13.19540       -4.36810        0.05930
H        -12.54960       -6.48260       -1.20830
H         -7.73780       -6.30950       -1.54160
H         -8.18290       -5.58180       -3.10740
H         -6.30980       -7.21850       -3.37360
H         -7.75140       -7.77380       -4.23400
H         -7.32130       -8.49370       -2.67990
H         -9.53630       -1.71560       -1.54680
H         -7.59800       -1.12810       -2.71130
H         -4.91640       -0.93600       -6.35960
H         -4.79530       -3.24090       -7.10740
H         -4.94740       -6.89730       -7.61420
H         -4.44850       -5.21330       -7.82700
H         -6.69570       -5.60910       -8.87630
H         -7.31280       -6.21120       -7.33370
H         -6.87110       -4.51110       -7.50230
H         -5.51320       -2.25910       -2.32880
H         -5.31600        3.67820       -0.35620
H         -5.05410        6.01190        0.35710
H         -3.27870        9.20270       -2.90800
H         -2.89380       10.07690       -1.41460
H         -0.92070        8.74340       -2.15640
H         -1.88470        7.26600       -2.11960
H         -1.53810        8.12860       -0.61790
H         -4.47610        4.86060       -4.38790
H         -2.38800        3.63590       -3.64560
H         -0.10660        0.05740       -5.84860
H          4.15610       -1.16780       -7.52280
H          3.51450       -3.60370       -7.94400
H         -0.02950       -4.43480       -4.73740
H         -0.49190       -6.00670       -5.42950
H         -1.08400       -3.27960       -6.70400
H         -2.25970       -4.29790       -5.86900
H         -1.52470       -4.85280       -7.38500
H          1.79810        5.48380       -4.81450
H          2.33980        7.49760       -3.34850
H          6.58680        6.48820       -1.42060
H          5.59470        5.87530       -0.07030
H          7.00070        8.59920       -0.14680
H          7.54000        7.19400        0.78130
H          6.01680        7.99380        1.18930
H          6.03570        3.32220       -4.17100
H          8.39330       -0.72900       -5.13980
H         11.53660       -2.98860       -2.93560
H         11.64830       -5.07890       -4.15460
H         11.94850       -7.82270       -6.58930
H         11.53720       -6.98750       -5.08590
H         14.01290       -7.35650       -5.24010
H         14.04450       -6.52280       -6.79930
H         13.67340       -5.62270       -5.32810
H         10.48560       -0.92300       -6.53850
H         12.96940        3.85430       -2.33470
H         13.02200        5.86380       -0.97890
H         13.33580        6.80090        0.97710
H         12.70760        8.16800        1.90330
H         12.31980        9.47470       -0.14840
H         12.84570        8.13170       -1.15930
H         14.00710        8.94660       -0.10620
H          9.04560        2.95440       -0.86550
H         13.46310        2.02960       -0.94460
H         15.74510        2.08040       -0.53940
H         19.88340        3.65320        1.18020
H         19.01810        5.96070        1.74580
H         17.82620        8.08470        1.69060
H         17.85890        7.44530        3.35860
H         17.22680        9.87070        3.34820
H         15.88720        8.87320        3.92890
H         15.86290        9.50950        2.28260
H         19.36930       -3.48590        2.28910
H         19.58110       -5.89070        1.43690
H         18.57470       -7.27220       -3.57650
H         18.68990       -5.51550       -3.31360
H         16.31660       -6.20880       -3.75830
H         16.38280       -7.31240       -2.37440
H         16.48090       -5.56430       -2.12210
H         21.11170       -2.01970        1.81130
H         22.25080       -0.07160        3.11100
