
  xtb     03052209033D
 energy: -280.952671942005 gnorm: 0.000317511303 xtb: 6.4.1 (unknown)
158175  0     0  0            999 V2000
    6.1557   -4.6776   13.0113 C   0  0  0  0  0  0  0  0  0  0  0  0
    5.8269   -5.2125   11.4202 S   0  0  0  0  0  0  0  0  0  0  0  0
    4.8326   -3.8142   11.1076 C   0  0  0  0  0  0  0  0  0  0  0  0
    4.7832   -2.9800   12.2064 C   0  0  0  0  0  0  0  0  0  0  0  0
    5.5419   -3.4969   13.2805 C   0  0  0  0  0  0  0  0  0  0  0  0
    5.7220   -2.6649   14.8508 S   0  0  0  0  0  6  0  0  0  0  0  0
    7.0103   -2.0275   14.8759 O   0  0  0  0  0  0  0  0  0  0  0  0
    5.4173   -3.5937   15.9042 O   0  0  0  0  0  0  0  0  0  0  0  0
    4.4412   -1.3811   14.7445 C   0  0  0  0  0  0  0  0  0  0  0  0
    4.5901   -0.7558   13.3733 C   0  0  0  0  0  0  0  0  0  0  0  0
    4.0562   -1.6731   12.2736 C   0  0  0  0  0  0  0  0  0  0  0  0
    4.2113   -3.6691    9.8244 C   0  0  0  0  0  0  0  0  0  0  0  0
    3.1072   -2.9480    9.4792 C   0  0  0  0  0  0  0  0  0  0  0  0
    2.7779   -3.0243    8.1018 C   0  0  0  0  0  0  0  0  0  0  0  0
    1.6886   -2.4142    7.4404 C   0  0  0  0  0  0  0  0  0  0  0  0
    0.6495   -1.7217    8.1656 C   0  0  0  0  0  0  0  0  0  0  0  0
    0.1200   -2.0541    9.3841 C   0  0  0  0  0  0  0  0  0  0  0  0
   -0.8841   -1.2029    9.8799 C   0  0  0  0  0  0  0  0  0  0  0  0
   -1.2006   -0.1481    9.0693 C   0  0  0  0  0  0  0  0  0  0  0  0
   -2.4491    1.0135    9.4583 S   0  0  0  0  0  0  0  0  0  0  0  0
   -2.4437    2.1031    7.9922 C   0  0  0  0  0  0  0  0  0  0  0  0
   -1.3283    3.1278    8.0363 C   0  0  0  0  0  0  0  0  0  0  0  0
   -0.1751   -0.1676    7.4891 Se  0  0  0  0  0  2  0  0  0  0  0  0
    1.6773   -2.5344    6.0543 C   0  0  0  0  0  0  0  0  0  0  0  0
    2.6239   -3.2953    5.3303 C   0  0  0  0  0  0  0  0  0  0  0  0
    3.6416   -4.0033    6.0016 C   0  0  0  0  0  0  0  0  0  0  0  0
    4.5362   -4.8991    5.3029 C   0  0  0  0  0  0  0  0  0  0  0  0
    5.8591   -5.1375    5.5531 C   0  0  0  0  0  0  0  0  0  0  0  0
    6.4651   -6.1472    4.7804 C   0  0  0  0  0  0  0  0  0  0  0  0
    5.6361   -6.7796    3.8990 C   0  0  0  0  0  0  0  0  0  0  0  0
    6.1559   -8.0446    2.8060 S   0  0  0  0  0  0  0  0  0  0  0  0
    4.6044   -8.9862    2.5474 C   0  0  0  0  0  0  0  0  0  0  0  0
    3.7990   -8.4691    1.3721 C   0  0  0  0  0  0  0  0  0  0  0  0
    3.9068   -6.0417    3.9384 Se  0  0  0  0  0  2  0  0  0  0  0  0
    3.7082   -3.8090    7.3797 C   0  0  0  0  0  0  0  0  0  0  0  0
    4.9072   -4.4929    8.4432 S   0  0  0  0  0  0  0  0  0  0  0  0
    2.4110   -3.2051    3.9337 C   0  0  0  0  0  0  0  0  0  0  0  0
    1.3369   -2.4423    3.5864 C   0  0  0  0  0  0  0  0  0  0  0  0
    0.5101   -1.7963    4.9878 S   0  0  0  0  0  0  0  0  0  0  0  0
    0.8933   -2.1505    2.2668 C   0  0  0  0  0  0  0  0  0  0  0  0
   -0.1243   -1.3379    1.8663 C   0  0  0  0  0  0  0  0  0  0  0  0
   -0.2739   -1.2680    0.4585 C   0  0  0  0  0  0  0  0  0  0  0  0
   -1.1864   -0.4843   -0.2794 C   0  0  0  0  0  0  0  0  0  0  0  0
   -2.2098    0.3005    0.3725 C   0  0  0  0  0  0  0  0  0  0  0  0
   -2.9515   -0.0440    1.4690 C   0  0  0  0  0  0  0  0  0  0  0  0
   -3.8822    0.9147    1.9136 C   0  0  0  0  0  0  0  0  0  0  0  0
   -3.9090    2.0714    1.1882 C   0  0  0  0  0  0  0  0  0  0  0  0
   -4.9093    3.4471    1.5983 S   0  0  0  0  0  0  0  0  0  0  0  0
   -4.9015    4.3821    0.0288 C   0  0  0  0  0  0  0  0  0  0  0  0
   -5.7308    3.7081   -1.0449 C   0  0  0  0  0  0  0  0  0  0  0  0
   -2.6611    2.0275   -0.2288 Se  0  0  0  0  0  2  0  0  0  0  0  0
   -1.0421   -0.5191   -1.6631 C   0  0  0  0  0  0  0  0  0  0  0  0
   -0.0896   -1.3214   -2.3362 C   0  0  0  0  0  0  0  0  0  0  0  0
    0.8389   -2.0903   -1.6000 C   0  0  0  0  0  0  0  0  0  0  0  0
    1.9088   -2.8100   -2.2459 C   0  0  0  0  0  0  0  0  0  0  0  0
    2.6013   -2.4496   -3.3720 C   0  0  0  0  0  0  0  0  0  0  0  0
    3.6359   -3.3186   -3.7633 C   0  0  0  0  0  0  0  0  0  0  0  0
    3.8085   -4.4179   -2.9703 C   0  0  0  0  0  0  0  0  0  0  0  0
    4.9835   -5.6724   -3.2843 S   0  0  0  0  0  0  0  0  0  0  0  0
    5.0608   -6.5185   -1.6640 C   0  0  0  0  0  0  0  0  0  0  0  0
    5.7829   -5.7002   -0.6131 C   0  0  0  0  0  0  0  0  0  0  0  0
    2.5658   -4.4380   -1.5543 Se  0  0  0  0  0  2  0  0  0  0  0  0
    0.6954   -2.0485   -0.2151 C   0  0  0  0  0  0  0  0  0  0  0  0
    1.7333   -2.8762    0.9113 S   0  0  0  0  0  0  0  0  0  0  0  0
   -0.2224   -1.2381   -3.7425 C   0  0  0  0  0  0  0  0  0  0  0  0
   -1.1733   -0.3492   -4.1476 C   0  0  0  0  0  0  0  0  0  0  0  0
   -2.0201    0.3736   -2.7930 S   0  0  0  0  0  0  0  0  0  0  0  0
   -1.5022    0.0479   -5.4752 C   0  0  0  0  0  0  0  0  0  0  0  0
   -2.9932    0.8704   -5.8130 S   0  0  0  0  0  0  0  0  0  0  0  0
   -2.5817    1.0306   -7.4970 C   0  0  0  0  0  0  0  0  0  0  0  0
   -1.3705    0.4435   -7.7770 C   0  0  0  0  0  0  0  0  0  0  0  0
   -0.7650   -0.0986   -6.6265 C   0  0  0  0  0  0  0  0  0  0  0  0
    0.8928   -0.7668   -6.6844 S   0  0  0  0  0  6  0  0  0  0  0  0
    1.6881   -0.0884   -5.6938 O   0  0  0  0  0  0  0  0  0  0  0  0
    0.8203   -2.2036   -6.5621 O   0  0  0  0  0  0  0  0  0  0  0  0
    1.5434   -0.3878   -8.3453 C   0  0  0  0  0  0  0  0  0  0  0  0
    0.7511    0.7122   -9.0150 C   0  0  0  0  0  0  0  0  0  0  0  0
   -0.7281    0.3349   -9.1190 C   0  0  0  0  0  0  0  0  0  0  0  0
   -3.4525    1.7716   -8.3681 C   0  0  0  0  0  0  0  0  0  0  0  0
   -5.1529    1.4287   -8.4774 S   0  0  0  0  0  0  0  0  0  0  0  0
   -5.4032    2.7364   -9.6097 C   0  0  0  0  0  0  0  0  0  0  0  0
   -4.2256    3.3769   -9.8916 C   0  0  0  0  0  0  0  0  0  0  0  0
   -3.1390    2.8254   -9.1793 C   0  0  0  0  0  0  0  0  0  0  0  0
   -1.5504    3.6061   -9.3769 S   0  0  0  0  0  6  0  0  0  0  0  0
   -0.9919    3.1344  -10.6219 O   0  0  0  0  0  0  0  0  0  0  0  0
   -0.7566    3.3990   -8.1947 O   0  0  0  0  0  0  0  0  0  0  0  0
   -1.9038    5.3885   -9.5740 C   0  0  0  0  0  0  0  0  0  0  0  0
   -3.3649    5.6627   -9.8842 C   0  0  0  0  0  0  0  0  0  0  0  0
   -3.9799    4.5616  -10.7607 C   0  0  0  0  0  0  0  0  0  0  0  0
   -6.7417    2.9907  -10.0795 C   0  0  0  0  0  0  0  0  0  0  0  0
   -7.6858    1.7165  -10.7908 S   0  0  0  0  0  0  0  0  0  0  0  0
   -9.0423    2.7560  -10.9464 C   0  0  0  0  0  0  0  0  0  0  0  0
   -8.8036    4.0151  -10.4803 C   0  0  0  0  0  0  0  0  0  0  0  0
   -7.4780    4.1408   -9.9961 C   0  0  0  0  0  0  0  0  0  0  0  0
   -6.9069    5.6509   -9.2451 S   0  0  0  0  0  6  0  0  0  0  0  0
   -6.1001    5.3350   -8.0967 O   0  0  0  0  0  0  0  0  0  0  0  0
   -6.3108    6.4903  -10.2523 O   0  0  0  0  0  0  0  0  0  0  0  0
   -8.4829    6.4109   -8.7641 C   0  0  0  0  0  0  0  0  0  0  0  0
   -9.3003    6.4634  -10.0399 C   0  0  0  0  0  0  0  0  0  0  0  0
   -9.8491    5.0884  -10.4146 C   0  0  0  0  0  0  0  0  0  0  0  0
    6.7745   -5.2512   13.6702 H   0  0  0  0  0  0  0  0  0  0  0  0
    3.4811   -1.8661   14.8963 H   0  0  0  0  0  0  0  0  0  0  0  0
    4.6390   -0.6768   15.5479 H   0  0  0  0  0  0  0  0  0  0  0  0
    4.0556    0.1960   13.3294 H   0  0  0  0  0  0  0  0  0  0  0  0
    5.6520   -0.5579   13.2091 H   0  0  0  0  0  0  0  0  0  0  0  0
    4.1425   -1.1697   11.3072 H   0  0  0  0  0  0  0  0  0  0  0  0
    2.9914   -1.8592   12.4539 H   0  0  0  0  0  0  0  0  0  0  0  0
    2.5348   -2.3723   10.1793 H   0  0  0  0  0  0  0  0  0  0  0  0
    0.4081   -2.9509    9.9066 H   0  0  0  0  0  0  0  0  0  0  0  0
   -1.3828   -1.3729   10.8185 H   0  0  0  0  0  0  0  0  0  0  0  0
   -3.4214    2.5840    8.0015 H   0  0  0  0  0  0  0  0  0  0  0  0
   -2.3677    1.4582    7.1118 H   0  0  0  0  0  0  0  0  0  0  0  0
   -0.3545    2.6367    8.0438 H   0  0  0  0  0  0  0  0  0  0  0  0
   -1.3838    3.7681    7.1587 H   0  0  0  0  0  0  0  0  0  0  0  0
   -1.4134    3.7440    8.9282 H   0  0  0  0  0  0  0  0  0  0  0  0
    6.4179   -4.5725    6.2793 H   0  0  0  0  0  0  0  0  0  0  0  0
    7.5011   -6.4185    4.8854 H   0  0  0  0  0  0  0  0  0  0  0  0
    4.0412   -8.9319    3.4805 H   0  0  0  0  0  0  0  0  0  0  0  0
    4.9257  -10.0138    2.3799 H   0  0  0  0  0  0  0  0  0  0  0  0
    2.8877   -9.0538    1.2659 H   0  0  0  0  0  0  0  0  0  0  0  0
    3.5218   -7.4238    1.5202 H   0  0  0  0  0  0  0  0  0  0  0  0
    4.3757   -8.5493    0.4541 H   0  0  0  0  0  0  0  0  0  0  0  0
    3.0557   -3.6398    3.1883 H   0  0  0  0  0  0  0  0  0  0  0  0
   -0.7208   -0.7780    2.5636 H   0  0  0  0  0  0  0  0  0  0  0  0
   -2.8780   -1.0160    1.9274 H   0  0  0  0  0  0  0  0  0  0  0  0
   -4.5348    0.7485    2.7533 H   0  0  0  0  0  0  0  0  0  0  0  0
   -3.8554    4.4903   -0.2749 H   0  0  0  0  0  0  0  0  0  0  0  0
   -5.3032    5.3612    0.2877 H   0  0  0  0  0  0  0  0  0  0  0  0
   -5.7172    4.3077   -1.9524 H   0  0  0  0  0  0  0  0  0  0  0  0
   -6.7599    3.5928   -0.7127 H   0  0  0  0  0  0  0  0  0  0  0  0
   -5.3274    2.7229   -1.2793 H   0  0  0  0  0  0  0  0  0  0  0  0
    2.4170   -1.5288   -3.8997 H   0  0  0  0  0  0  0  0  0  0  0  0
    4.2576   -3.1260   -4.6201 H   0  0  0  0  0  0  0  0  0  0  0  0
    5.5847   -7.4517   -1.8689 H   0  0  0  0  0  0  0  0  0  0  0  0
    4.0286   -6.7368   -1.3710 H   0  0  0  0  0  0  0  0  0  0  0  0
    6.7865   -5.4522   -0.9499 H   0  0  0  0  0  0  0  0  0  0  0  0
    5.2437   -4.7746   -0.4111 H   0  0  0  0  0  0  0  0  0  0  0  0
    5.8568   -6.2656    0.3137 H   0  0  0  0  0  0  0  0  0  0  0  0
    0.3316   -1.8467   -4.4290 H   0  0  0  0  0  0  0  0  0  0  0  0
    2.5822   -0.1116   -8.1838 H   0  0  0  0  0  0  0  0  0  0  0  0
    1.4860   -1.3267   -8.8915 H   0  0  0  0  0  0  0  0  0  0  0  0
    1.1463    0.8945  -10.0161 H   0  0  0  0  0  0  0  0  0  0  0  0
    0.8338    1.6431   -8.4515 H   0  0  0  0  0  0  0  0  0  0  0  0
   -1.2229    0.9931   -9.8306 H   0  0  0  0  0  0  0  0  0  0  0  0
   -0.8206   -0.6949   -9.4805 H   0  0  0  0  0  0  0  0  0  0  0  0
   -1.2535    5.6822  -10.3953 H   0  0  0  0  0  0  0  0  0  0  0  0
   -1.5762    5.8616   -8.6533 H   0  0  0  0  0  0  0  0  0  0  0  0
   -3.4596    6.6211  -10.3966 H   0  0  0  0  0  0  0  0  0  0  0  0
   -3.9478    5.7293   -8.9641 H   0  0  0  0  0  0  0  0  0  0  0  0
   -4.9068    4.9212  -11.2034 H   0  0  0  0  0  0  0  0  0  0  0  0
   -3.2797    4.2900  -11.5552 H   0  0  0  0  0  0  0  0  0  0  0  0
   -9.9527    2.3771  -11.3668 H   0  0  0  0  0  0  0  0  0  0  0  0
   -8.2506    7.3990   -8.3768 H   0  0  0  0  0  0  0  0  0  0  0  0
   -8.9270    5.7951   -7.9872 H   0  0  0  0  0  0  0  0  0  0  0  0
   -8.6469    6.8341  -10.8328 H   0  0  0  0  0  0  0  0  0  0  0  0
  -10.1339    7.1605   -9.9325 H   0  0  0  0  0  0  0  0  0  0  0  0
  -10.5982    4.7877   -9.6742 H   0  0  0  0  0  0  0  0  0  0  0  0
  -10.3597    5.1503  -11.3784 H   0  0  0  0  0  0  0  0  0  0  0  0
  1  2  1  0  0  0  0
  2  3  1  0  0  0  0
  3  4  2  0  0  0  0
  4  5  1  0  0  0  0
  5  6  1  0  0  0  0
  6  7  2  0  0  0  0
  6  8  2  0  0  0  0
  6  9  1  0  0  0  0
  9 10  1  0  0  0  0
 10 11  1  0  0  0  0
  3 12  1  0  0  0  0
 12 13  2  0  0  0  0
 13 14  1  0  0  0  0
 14 15  2  0  0  0  0
 15 16  1  0  0  0  0
 16 17  2  0  0  0  0
 17 18  1  0  0  0  0
 18 19  2  0  0  0  0
 19 20  1  0  0  0  0
 20 21  1  0  0  0  0
 21 22  1  0  0  0  0
 19 23  1  0  0  0  0
 15 24  1  0  0  0  0
 24 25  2  0  0  0  0
 25 26  1  0  0  0  0
 26 27  1  0  0  0  0
 27 28  2  0  0  0  0
 28 29  1  0  0  0  0
 29 30  2  0  0  0  0
 30 31  1  0  0  0  0
 31 32  1  0  0  0  0
 32 33  1  0  0  0  0
 30 34  1  0  0  0  0
 26 35  2  0  0  0  0
 35 36  1  0  0  0  0
 25 37  1  0  0  0  0
 37 38  2  0  0  0  0
 38 39  1  0  0  0  0
 38 40  1  0  0  0  0
 40 41  2  0  0  0  0
 41 42  1  0  0  0  0
 42 43  2  0  0  0  0
 43 44  1  0  0  0  0
 44 45  2  0  0  0  0
 45 46  1  0  0  0  0
 46 47  2  0  0  0  0
 47 48  1  0  0  0  0
 48 49  1  0  0  0  0
 49 50  1  0  0  0  0
 47 51  1  0  0  0  0
 43 52  1  0  0  0  0
 52 53  2  0  0  0  0
 53 54  1  0  0  0  0
 54 55  1  0  0  0  0
 55 56  2  0  0  0  0
 56 57  1  0  0  0  0
 57 58  2  0  0  0  0
 58 59  1  0  0  0  0
 59 60  1  0  0  0  0
 60 61  1  0  0  0  0
 58 62  1  0  0  0  0
 54 63  2  0  0  0  0
 63 64  1  0  0  0  0
 53 65  1  0  0  0  0
 65 66  2  0  0  0  0
 66 67  1  0  0  0  0
 66 68  1  0  0  0  0
 68 69  1  0  0  0  0
 69 70  1  0  0  0  0
 70 71  2  0  0  0  0
 71 72  1  0  0  0  0
 72 73  1  0  0  0  0
 73 74  2  0  0  0  0
 73 75  2  0  0  0  0
 73 76  1  0  0  0  0
 76 77  1  0  0  0  0
 77 78  1  0  0  0  0
 70 79  1  0  0  0  0
 79 80  1  0  0  0  0
 80 81  1  0  0  0  0
 81 82  2  0  0  0  0
 82 83  1  0  0  0  0
 83 84  1  0  0  0  0
 84 85  2  0  0  0  0
 84 86  2  0  0  0  0
 84 87  1  0  0  0  0
 87 88  1  0  0  0  0
 88 89  1  0  0  0  0
 81 90  1  0  0  0  0
 90 91  1  0  0  0  0
 91 92  1  0  0  0  0
 92 93  2  0  0  0  0
 93 94  1  0  0  0  0
 94 95  1  0  0  0  0
 95 96  2  0  0  0  0
 95 97  2  0  0  0  0
 95 98  1  0  0  0  0
 98 99  1  0  0  0  0
 99100  1  0  0  0  0
  5  1  2  0  0  0  0
 36 12  1  0  0  0  0
 64 40  1  0  0  0  0
 72 68  2  0  0  0  0
 83 79  2  0  0  0  0
 94 90  2  0  0  0  0
 11  4  1  0  0  0  0
 35 14  1  0  0  0  0
 63 42  1  0  0  0  0
 78 71  1  0  0  0  0
 89 82  1  0  0  0  0
100 93  1  0  0  0  0
 23 16  1  0  0  0  0
 39 24  1  0  0  0  0
 51 44  1  0  0  0  0
 67 52  1  0  0  0  0
 34 27  1  0  0  0  0
 62 55  1  0  0  0  0
  1101  1  0  0  0  0
  9102  1  0  0  0  0
  9103  1  0  0  0  0
 10104  1  0  0  0  0
 10105  1  0  0  0  0
 11106  1  0  0  0  0
 11107  1  0  0  0  0
 13108  1  0  0  0  0
 17109  1  0  0  0  0
 18110  1  0  0  0  0
 21111  1  0  0  0  0
 21112  1  0  0  0  0
 22113  1  0  0  0  0
 22114  1  0  0  0  0
 22115  1  0  0  0  0
 28116  1  0  0  0  0
 29117  1  0  0  0  0
 32118  1  0  0  0  0
 32119  1  0  0  0  0
 33120  1  0  0  0  0
 33121  1  0  0  0  0
 33122  1  0  0  0  0
 37123  1  0  0  0  0
 41124  1  0  0  0  0
 45125  1  0  0  0  0
 46126  1  0  0  0  0
 49127  1  0  0  0  0
 49128  1  0  0  0  0
 50129  1  0  0  0  0
 50130  1  0  0  0  0
 50131  1  0  0  0  0
 56132  1  0  0  0  0
 57133  1  0  0  0  0
 60134  1  0  0  0  0
 60135  1  0  0  0  0
 61136  1  0  0  0  0
 61137  1  0  0  0  0
 61138  1  0  0  0  0
 65139  1  0  0  0  0
 76140  1  0  0  0  0
 76141  1  0  0  0  0
 77142  1  0  0  0  0
 77143  1  0  0  0  0
 78144  1  0  0  0  0
 78145  1  0  0  0  0
 87146  1  0  0  0  0
 87147  1  0  0  0  0
 88148  1  0  0  0  0
 88149  1  0  0  0  0
 89150  1  0  0  0  0
 89151  1  0  0  0  0
 92152  1  0  0  0  0
 98153  1  0  0  0  0
 98154  1  0  0  0  0
 99155  1  0  0  0  0
 99156  1  0  0  0  0
100157  1  0  0  0  0
100158  1  0  0  0  0
M  END
