
  xtb     03072217493D
 energy: -348.313162889520 gnorm: 0.000522055020 xtb: 6.4.1 (unknown)
200223  0     0  0            999 V2000
    1.3284   -3.1108   -0.1986 C   0  0  0  0  0  0  0  0  0  0  0  0
    0.2733   -2.3335   -0.5168 C   0  0  0  0  0  0  0  0  0  0  0  0
   -0.5784   -2.9211   -1.4971 C   0  0  0  0  0  0  0  0  0  0  0  0
   -1.8255   -2.4573   -1.9673 C   0  0  0  0  0  0  0  0  0  0  0  0
   -2.3698   -1.1424   -1.7222 C   0  0  0  0  0  0  0  0  0  0  0  0
   -3.2267   -0.4777   -2.5659 C   0  0  0  0  0  0  0  0  0  0  0  0
   -3.7078    0.7638   -2.1242 C   0  0  0  0  0  0  0  0  0  0  0  0
   -3.2684    1.1459   -0.8866 C   0  0  0  0  0  0  0  0  0  0  0  0
   -3.8022    2.6120   -0.0944 S   0  0  0  0  0  0  0  0  0  0  0  0
   -2.9117    2.5537    1.4958 C   0  0  0  0  0  0  0  0  0  0  0  0
   -1.4755    3.0179    1.3793 C   0  0  0  0  0  0  0  0  0  0  0  0
   -2.0884   -0.1158   -0.1734 Se  0  0  0  0  0  2  0  0  0  0  0  0
   -2.5694   -3.4040   -2.6770 C   0  0  0  0  0  0  0  0  0  0  0  0
   -2.0828   -4.6681   -3.0777 C   0  0  0  0  0  0  0  0  0  0  0  0
   -0.7335   -5.0080   -2.8418 C   0  0  0  0  0  0  0  0  0  0  0  0
   -0.0503   -6.1260   -3.4472 C   0  0  0  0  0  0  0  0  0  0  0  0
    1.2902   -6.1704   -3.7371 C   0  0  0  0  0  0  0  0  0  0  0  0
    1.7679   -7.3449   -4.3444 C   0  0  0  0  0  0  0  0  0  0  0  0
    0.8269   -8.3114   -4.5589 C   0  0  0  0  0  0  0  0  0  0  0  0
    1.1914   -9.8991   -5.1893 S   0  0  0  0  0  0  0  0  0  0  0  0
   -0.4783  -10.5538   -5.5360 C   0  0  0  0  0  0  0  0  0  0  0  0
   -1.0920   -9.9394   -6.7775 C   0  0  0  0  0  0  0  0  0  0  0  0
   -0.8698   -7.7336   -3.9926 Se  0  0  0  0  0  2  0  0  0  0  0  0
   -0.0676   -4.1566   -1.9526 C   0  0  0  0  0  0  0  0  0  0  0  0
    1.4204   -4.5562   -1.1346 S   0  0  0  0  0  0  0  0  0  0  0  0
   -3.1290   -5.5080   -3.5518 C   0  0  0  0  0  0  0  0  0  0  0  0
   -4.3584   -4.9496   -3.4632 C   0  0  0  0  0  0  0  0  0  0  0  0
   -4.2757   -3.2623   -3.0083 S   0  0  0  0  0  0  0  0  0  0  0  0
   -5.6481   -5.6308   -3.5137 C   0  0  0  0  0  0  0  0  0  0  0  0
   -6.3360   -5.7949   -2.3687 C   0  0  0  0  0  0  0  0  0  0  0  0
   -7.5664   -6.3556   -2.1998 O   0  0  0  0  0  0  0  0  0  0  0  0
   -8.2350   -6.8141   -3.2950 C   0  0  0  0  0  0  0  0  0  0  0  0
   -9.4874   -7.3338   -3.1926 C   0  0  0  0  0  0  0  0  0  0  0  0
  -10.1000   -7.8491   -4.7152 S   0  0  0  0  0  0  0  0  0  0  0  0
   -8.6516   -7.3577   -5.5044 C   0  0  0  0  0  0  0  0  0  0  0  0
   -7.7527   -6.8296   -4.6359 C   0  0  0  0  0  0  0  0  0  0  0  0
   -6.1652   -6.2235   -5.1056 S   0  0  0  0  0  0  0  0  0  0  0  0
   -5.7217   -5.2738   -1.1409 C   0  0  0  0  0  0  0  0  0  0  0  0
   -4.5461   -5.6733   -0.5944 C   0  0  0  0  0  0  0  0  0  0  0  0
   -4.0071   -4.7511    0.3442 C   0  0  0  0  0  0  0  0  0  0  0  0
   -2.7757   -4.8200    1.0274 C   0  0  0  0  0  0  0  0  0  0  0  0
   -1.9250   -5.9931    1.0725 C   0  0  0  0  0  0  0  0  0  0  0  0
   -1.3270   -6.4505    2.2162 C   0  0  0  0  0  0  0  0  0  0  0  0
   -0.5349   -7.6053    2.0856 C   0  0  0  0  0  0  0  0  0  0  0  0
   -0.4484   -8.1090    0.8223 C   0  0  0  0  0  0  0  0  0  0  0  0
    0.3464   -9.6171    0.4319 S   0  0  0  0  0  0  0  0  0  0  0  0
    1.1917   -9.1673   -1.1227 C   0  0  0  0  0  0  0  0  0  0  0  0
    2.3558   -8.2323   -0.8791 C   0  0  0  0  0  0  0  0  0  0  0  0
   -1.4758   -7.0890   -0.3882 Se  0  0  0  0  0  2  0  0  0  0  0  0
   -2.4177   -3.6842    1.7503 C   0  0  0  0  0  0  0  0  0  0  0  0
   -3.2602   -2.5610    1.9030 C   0  0  0  0  0  0  0  0  0  0  0  0
   -4.5043   -2.5008    1.2456 C   0  0  0  0  0  0  0  0  0  0  0  0
   -5.3069   -1.2951    1.2179 C   0  0  0  0  0  0  0  0  0  0  0  0
   -5.8953   -0.7496    0.1101 C   0  0  0  0  0  0  0  0  0  0  0  0
   -6.6065    0.4491    0.3088 C   0  0  0  0  0  0  0  0  0  0  0  0
   -6.6246    0.9072    1.5934 C   0  0  0  0  0  0  0  0  0  0  0  0
   -7.3228    2.4345    2.0761 S   0  0  0  0  0  0  0  0  0  0  0  0
   -7.5815    2.1522    3.8631 C   0  0  0  0  0  0  0  0  0  0  0  0
   -8.7125    1.1822    4.1353 C   0  0  0  0  0  0  0  0  0  0  0  0
   -5.6446   -0.2284    2.7359 Se  0  0  0  0  0  2  0  0  0  0  0  0
   -4.8386   -3.6139    0.4796 C   0  0  0  0  0  0  0  0  0  0  0  0
   -6.2998   -3.7746   -0.4582 S   0  0  0  0  0  0  0  0  0  0  0  0
   -2.6114   -1.5165    2.6042 C   0  0  0  0  0  0  0  0  0  0  0  0
   -1.3032   -1.7666    2.8907 C   0  0  0  0  0  0  0  0  0  0  0  0
   -0.8354   -3.3876    2.4384 S   0  0  0  0  0  0  0  0  0  0  0  0
   -0.3969   -0.7470    3.3221 C   0  0  0  0  0  0  0  0  0  0  0  0
    0.8777   -0.4990    2.9118 C   0  0  0  0  0  0  0  0  0  0  0  0
    1.3549    0.7881    3.2765 C   0  0  0  0  0  0  0  0  0  0  0  0
    2.5638    1.4140    2.8969 C   0  0  0  0  0  0  0  0  0  0  0  0
    3.4850    0.8545    1.9357 C   0  0  0  0  0  0  0  0  0  0  0  0
    4.8110    1.1609    1.7682 C   0  0  0  0  0  0  0  0  0  0  0  0
    5.4186    0.6940    0.5892 C   0  0  0  0  0  0  0  0  0  0  0  0
    4.5979   -0.0030   -0.2537 C   0  0  0  0  0  0  0  0  0  0  0  0
    5.1366   -0.6727   -1.7749 S   0  0  0  0  0  0  0  0  0  0  0  0
    3.7355   -1.7245   -2.2895 C   0  0  0  0  0  0  0  0  0  0  0  0
    2.6102   -0.9463   -2.9386 C   0  0  0  0  0  0  0  0  0  0  0  0
    2.8744   -0.1576    0.4620 Se  0  0  0  0  0  2  0  0  0  0  0  0
    2.7401    2.7196    3.3621 C   0  0  0  0  0  0  0  0  0  0  0  0
    1.7737    3.4310    4.1071 C   0  0  0  0  0  0  0  0  0  0  0  0
    0.5812    2.7971    4.5100 C   0  0  0  0  0  0  0  0  0  0  0  0
   -0.4065    3.4800    5.3127 C   0  0  0  0  0  0  0  0  0  0  0  0
   -0.1770    4.3454    6.3468 C   0  0  0  0  0  0  0  0  0  0  0  0
   -1.3178    4.8820    6.9737 C   0  0  0  0  0  0  0  0  0  0  0  0
   -2.5110    4.4740    6.4511 C   0  0  0  0  0  0  0  0  0  0  0  0
   -4.0636    5.0646    6.9924 S   0  0  0  0  0  0  0  0  0  0  0  0
   -5.1892    3.7992    6.3068 C   0  0  0  0  0  0  0  0  0  0  0  0
   -5.0865    2.4796    7.0443 C   0  0  0  0  0  0  0  0  0  0  0  0
   -2.2585    3.2848    5.0107 Se  0  0  0  0  0  2  0  0  0  0  0  0
    0.4082    1.4935    4.0543 C   0  0  0  0  0  0  0  0  0  0  0  0
   -1.0430    0.5630    4.2883 S   0  0  0  0  0  0  0  0  0  0  0  0
    2.1054    4.8038    4.2321 C   0  0  0  0  0  0  0  0  0  0  0  0
    3.2803    5.1548    3.6361 C   0  0  0  0  0  0  0  0  0  0  0  0
    4.0767    3.7562    2.9415 S   0  0  0  0  0  0  0  0  0  0  0  0
    3.8627    6.4721    3.6534 C   0  0  0  0  0  0  0  0  0  0  0  0
    4.8957    6.8987    2.8898 C   0  0  0  0  0  0  0  0  0  0  0  0
    5.5620    8.0899    2.9896 O   0  0  0  0  0  0  0  0  0  0  0  0
    5.2874    8.9603    3.9946 C   0  0  0  0  0  0  0  0  0  0  0  0
    6.0456   10.0688    4.2118 C   0  0  0  0  0  0  0  0  0  0  0  0
    5.4552   10.9982    5.5332 S   0  0  0  0  0  0  0  0  0  0  0  0
    4.1757    9.8781    5.8019 C   0  0  0  0  0  0  0  0  0  0  0  0
    4.2087    8.8526    4.9136 C   0  0  0  0  0  0  0  0  0  0  0  0
    3.0633    7.5224    4.8685 S   0  0  0  0  0  0  0  0  0  0  0  0
    5.5220    6.0885    1.8552 C   0  0  0  0  0  0  0  0  0  0  0  0
    4.9686    5.4404    0.7984 C   0  0  0  0  0  0  0  0  0  0  0  0
    5.9068    4.6929    0.0365 C   0  0  0  0  0  0  0  0  0  0  0  0
    5.6622    3.8517   -1.0666 C   0  0  0  0  0  0  0  0  0  0  0  0
    4.3323    3.5234   -1.5390 C   0  0  0  0  0  0  0  0  0  0  0  0
    3.9837    3.1993   -2.8252 C   0  0  0  0  0  0  0  0  0  0  0  0
    2.6780    2.7085   -3.0089 C   0  0  0  0  0  0  0  0  0  0  0  0
    1.9295    2.6301   -1.8742 C   0  0  0  0  0  0  0  0  0  0  0  0
    0.2874    2.0058   -1.7686 S   0  0  0  0  0  0  0  0  0  0  0  0
   -0.6575    3.5338   -2.1364 C   0  0  0  0  0  0  0  0  0  0  0  0
   -0.5668    3.9321   -3.5932 C   0  0  0  0  0  0  0  0  0  0  0  0
    2.8810    3.2370   -0.3723 Se  0  0  0  0  0  2  0  0  0  0  0  0
    6.7851    3.2423   -1.6327 C   0  0  0  0  0  0  0  0  0  0  0  0
    8.0995    3.4136   -1.1386 C   0  0  0  0  0  0  0  0  0  0  0  0
    8.3429    4.2682   -0.0469 C   0  0  0  0  0  0  0  0  0  0  0  0
    9.6804    4.5039    0.4485 C   0  0  0  0  0  0  0  0  0  0  0  0
   10.8206    4.6657   -0.2892 C   0  0  0  0  0  0  0  0  0  0  0  0
   12.0098    4.8558    0.4398 C   0  0  0  0  0  0  0  0  0  0  0  0
   11.8621    4.8474    1.7982 C   0  0  0  0  0  0  0  0  0  0  0  0
   13.1821    5.1345    2.9086 S   0  0  0  0  0  0  0  0  0  0  0  0
   12.4372    4.6621    4.5078 C   0  0  0  0  0  0  0  0  0  0  0  0
   12.3158    3.1599    4.6641 C   0  0  0  0  0  0  0  0  0  0  0  0
   10.0563    4.6144    2.2917 Se  0  0  0  0  0  2  0  0  0  0  0  0
    7.2227    4.8667    0.5226 C   0  0  0  0  0  0  0  0  0  0  0  0
    7.2600    5.9194    1.9077 S   0  0  0  0  0  0  0  0  0  0  0  0
    9.0332    2.5753   -1.8172 C   0  0  0  0  0  0  0  0  0  0  0  0
    8.4648    1.8324   -2.7872 C   0  0  0  0  0  0  0  0  0  0  0  0
    6.7680    2.1028   -2.9526 S   0  0  0  0  0  0  0  0  0  0  0  0
    2.0797   -2.9407    0.5503 H   0  0  0  0  0  0  0  0  0  0  0  0
    0.0911   -1.3792   -0.0450 H   0  0  0  0  0  0  0  0  0  0  0  0
   -3.4863   -0.8627   -3.5377 H   0  0  0  0  0  0  0  0  0  0  0  0
   -4.3821    1.3698   -2.7047 H   0  0  0  0  0  0  0  0  0  0  0  0
   -2.9768    1.5258    1.8653 H   0  0  0  0  0  0  0  0  0  0  0  0
   -3.4850    3.2082    2.1556 H   0  0  0  0  0  0  0  0  0  0  0  0
   -1.0189    3.0537    2.3676 H   0  0  0  0  0  0  0  0  0  0  0  0
   -1.4333    4.0141    0.9449 H   0  0  0  0  0  0  0  0  0  0  0  0
   -0.8926    2.3348    0.7596 H   0  0  0  0  0  0  0  0  0  0  0  0
    1.9438   -5.3351   -3.5533 H   0  0  0  0  0  0  0  0  0  0  0  0
    2.7989   -7.4777   -4.6241 H   0  0  0  0  0  0  0  0  0  0  0  0
   -1.0889  -10.3699   -4.6456 H   0  0  0  0  0  0  0  0  0  0  0  0
   -0.3345  -11.6272   -5.6547 H   0  0  0  0  0  0  0  0  0  0  0  0
   -0.4562  -10.1147   -7.6421 H   0  0  0  0  0  0  0  0  0  0  0  0
   -2.0686  -10.3812   -6.9631 H   0  0  0  0  0  0  0  0  0  0  0  0
   -1.2194   -8.8636   -6.6526 H   0  0  0  0  0  0  0  0  0  0  0  0
   -3.0068   -6.5416   -3.8332 H   0  0  0  0  0  0  0  0  0  0  0  0
  -10.0730   -7.4376   -2.3029 H   0  0  0  0  0  0  0  0  0  0  0  0
   -8.5404   -7.4858   -6.5613 H   0  0  0  0  0  0  0  0  0  0  0  0
   -4.0525   -6.5847   -0.8899 H   0  0  0  0  0  0  0  0  0  0  0  0
   -1.4778   -5.9727    3.1696 H   0  0  0  0  0  0  0  0  0  0  0  0
   -0.0270   -8.0628    2.9168 H   0  0  0  0  0  0  0  0  0  0  0  0
    0.4363   -8.7117   -1.7687 H   0  0  0  0  0  0  0  0  0  0  0  0
    1.5170  -10.1116   -1.5574 H   0  0  0  0  0  0  0  0  0  0  0  0
    2.0101   -7.3002   -0.4348 H   0  0  0  0  0  0  0  0  0  0  0  0
    2.8463   -8.0017   -1.8222 H   0  0  0  0  0  0  0  0  0  0  0  0
    3.0776   -8.6927   -0.2083 H   0  0  0  0  0  0  0  0  0  0  0  0
   -5.7891   -1.1876   -0.8681 H   0  0  0  0  0  0  0  0  0  0  0  0
   -7.0943    0.9759   -0.4925 H   0  0  0  0  0  0  0  0  0  0  0  0
   -7.7952    3.1386    4.2728 H   0  0  0  0  0  0  0  0  0  0  0  0
   -6.6304    1.7904    4.2679 H   0  0  0  0  0  0  0  0  0  0  0  0
   -8.4897    0.2044    3.7092 H   0  0  0  0  0  0  0  0  0  0  0  0
   -9.6386    1.5474    3.6980 H   0  0  0  0  0  0  0  0  0  0  0  0
   -8.8521    1.0671    5.2082 H   0  0  0  0  0  0  0  0  0  0  0  0
   -3.0658   -0.5694    2.8428 H   0  0  0  0  0  0  0  0  0  0  0  0
    1.4438   -1.2207    2.3444 H   0  0  0  0  0  0  0  0  0  0  0  0
    5.3827    1.6818    2.5174 H   0  0  0  0  0  0  0  0  0  0  0  0
    6.4556    0.8730    0.3597 H   0  0  0  0  0  0  0  0  0  0  0  0
    3.3954   -2.2614   -1.4015 H   0  0  0  0  0  0  0  0  0  0  0  0
    4.1785   -2.4321   -2.9906 H   0  0  0  0  0  0  0  0  0  0  0  0
    2.9820   -0.3767   -3.7871 H   0  0  0  0  0  0  0  0  0  0  0  0
    2.1505   -0.2558   -2.2303 H   0  0  0  0  0  0  0  0  0  0  0  0
    1.8399   -1.6332   -3.2841 H   0  0  0  0  0  0  0  0  0  0  0  0
    0.8174    4.5567    6.7032 H   0  0  0  0  0  0  0  0  0  0  0  0
   -1.2596    5.5541    7.8122 H   0  0  0  0  0  0  0  0  0  0  0  0
   -6.1835    4.2338    6.4049 H   0  0  0  0  0  0  0  0  0  0  0  0
   -4.9446    3.6938    5.2443 H   0  0  0  0  0  0  0  0  0  0  0  0
   -4.0877    2.0559    6.9372 H   0  0  0  0  0  0  0  0  0  0  0  0
   -5.2917    2.6206    8.1028 H   0  0  0  0  0  0  0  0  0  0  0  0
   -5.8042    1.7686    6.6396 H   0  0  0  0  0  0  0  0  0  0  0  0
    1.4533    5.5204    4.6978 H   0  0  0  0  0  0  0  0  0  0  0  0
    6.9102   10.3808    3.6639 H   0  0  0  0  0  0  0  0  0  0  0  0
    3.4691   10.0404    6.5893 H   0  0  0  0  0  0  0  0  0  0  0  0
    3.9173    5.4998    0.5688 H   0  0  0  0  0  0  0  0  0  0  0  0
    4.6554    3.3331   -3.6555 H   0  0  0  0  0  0  0  0  0  0  0  0
    2.3023    2.3971   -3.9691 H   0  0  0  0  0  0  0  0  0  0  0  0
   -0.2682    4.3117   -1.4775 H   0  0  0  0  0  0  0  0  0  0  0  0
   -1.6824    3.2957   -1.8561 H   0  0  0  0  0  0  0  0  0  0  0  0
   -0.9162    3.1212   -4.2285 H   0  0  0  0  0  0  0  0  0  0  0  0
    0.4593    4.1745   -3.8643 H   0  0  0  0  0  0  0  0  0  0  0  0
   -1.1877    4.8079   -3.7718 H   0  0  0  0  0  0  0  0  0  0  0  0
   10.8052    4.6884   -1.3661 H   0  0  0  0  0  0  0  0  0  0  0  0
   12.9667    4.9999   -0.0312 H   0  0  0  0  0  0  0  0  0  0  0  0
   11.4626    5.1571    4.5674 H   0  0  0  0  0  0  0  0  0  0  0  0
   13.1021    5.0868    5.2591 H   0  0  0  0  0  0  0  0  0  0  0  0
   11.6621    2.7461    3.8959 H   0  0  0  0  0  0  0  0  0  0  0  0
   13.2925    2.6894    4.5793 H   0  0  0  0  0  0  0  0  0  0  0  0
   11.8941    2.9232    5.6385 H   0  0  0  0  0  0  0  0  0  0  0  0
   10.0736    2.5149   -1.5566 H   0  0  0  0  0  0  0  0  0  0  0  0
    8.9363    1.1238   -3.4394 H   0  0  0  0  0  0  0  0  0  0  0  0
  1  2  2  0  0  0  0
  2  3  1  0  0  0  0
  3  4  2  0  0  0  0
  4  5  1  0  0  0  0
  5  6  2  0  0  0  0
  6  7  1  0  0  0  0
  7  8  2  0  0  0  0
  8  9  1  0  0  0  0
  9 10  1  0  0  0  0
 10 11  1  0  0  0  0
  8 12  1  0  0  0  0
  4 13  1  0  0  0  0
 13 14  2  0  0  0  0
 14 15  1  0  0  0  0
 15 16  1  0  0  0  0
 16 17  2  0  0  0  0
 17 18  1  0  0  0  0
 18 19  2  0  0  0  0
 19 20  1  0  0  0  0
 20 21  1  0  0  0  0
 21 22  1  0  0  0  0
 19 23  1  0  0  0  0
 15 24  2  0  0  0  0
 24 25  1  0  0  0  0
 14 26  1  0  0  0  0
 26 27  2  0  0  0  0
 27 28  1  0  0  0  0
 27 29  1  0  0  0  0
 29 30  2  0  0  0  0
 30 31  1  0  0  0  0
 31 32  1  0  0  0  0
 32 33  2  0  0  0  0
 33 34  1  0  0  0  0
 34 35  1  0  0  0  0
 35 36  2  0  0  0  0
 36 37  1  0  0  0  0
 30 38  1  0  0  0  0
 38 39  2  0  0  0  0
 39 40  1  0  0  0  0
 40 41  2  0  0  0  0
 41 42  1  0  0  0  0
 42 43  2  0  0  0  0
 43 44  1  0  0  0  0
 44 45  2  0  0  0  0
 45 46  1  0  0  0  0
 46 47  1  0  0  0  0
 47 48  1  0  0  0  0
 45 49  1  0  0  0  0
 41 50  1  0  0  0  0
 50 51  2  0  0  0  0
 51 52  1  0  0  0  0
 52 53  1  0  0  0  0
 53 54  2  0  0  0  0
 54 55  1  0  0  0  0
 55 56  2  0  0  0  0
 56 57  1  0  0  0  0
 57 58  1  0  0  0  0
 58 59  1  0  0  0  0
 56 60  1  0  0  0  0
 52 61  2  0  0  0  0
 61 62  1  0  0  0  0
 51 63  1  0  0  0  0
 63 64  2  0  0  0  0
 64 65  1  0  0  0  0
 64 66  1  0  0  0  0
 66 67  2  0  0  0  0
 67 68  1  0  0  0  0
 68 69  2  0  0  0  0
 69 70  1  0  0  0  0
 70 71  2  0  0  0  0
 71 72  1  0  0  0  0
 72 73  2  0  0  0  0
 73 74  1  0  0  0  0
 74 75  1  0  0  0  0
 75 76  1  0  0  0  0
 73 77  1  0  0  0  0
 69 78  1  0  0  0  0
 78 79  2  0  0  0  0
 79 80  1  0  0  0  0
 80 81  1  0  0  0  0
 81 82  2  0  0  0  0
 82 83  1  0  0  0  0
 83 84  2  0  0  0  0
 84 85  1  0  0  0  0
 85 86  1  0  0  0  0
 86 87  1  0  0  0  0
 84 88  1  0  0  0  0
 80 89  2  0  0  0  0
 89 90  1  0  0  0  0
 79 91  1  0  0  0  0
 91 92  2  0  0  0  0
 92 93  1  0  0  0  0
 92 94  1  0  0  0  0
 94 95  2  0  0  0  0
 95 96  1  0  0  0  0
 96 97  1  0  0  0  0
 97 98  2  0  0  0  0
 98 99  1  0  0  0  0
 99100  1  0  0  0  0
100101  2  0  0  0  0
101102  1  0  0  0  0
 95103  1  0  0  0  0
103104  2  0  0  0  0
104105  1  0  0  0  0
105106  2  0  0  0  0
106107  1  0  0  0  0
107108  2  0  0  0  0
108109  1  0  0  0  0
109110  2  0  0  0  0
110111  1  0  0  0  0
111112  1  0  0  0  0
112113  1  0  0  0  0
110114  1  0  0  0  0
106115  1  0  0  0  0
115116  2  0  0  0  0
116117  1  0  0  0  0
117118  1  0  0  0  0
118119  2  0  0  0  0
119120  1  0  0  0  0
120121  2  0  0  0  0
121122  1  0  0  0  0
122123  1  0  0  0  0
123124  1  0  0  0  0
121125  1  0  0  0  0
117126  2  0  0  0  0
126127  1  0  0  0  0
116128  1  0  0  0  0
128129  2  0  0  0  0
129130  1  0  0  0  0
 25  1  1  0  0  0  0
 37 29  1  0  0  0  0
 62 38  1  0  0  0  0
 90 66  1  0  0  0  0
102 94  1  0  0  0  0
127103  1  0  0  0  0
 24  3  1  0  0  0  0
 36 32  1  0  0  0  0
 61 40  1  0  0  0  0
 89 68  1  0  0  0  0
101 97  1  0  0  0  0
126105  1  0  0  0  0
 12  5  1  0  0  0  0
 28 13  1  0  0  0  0
 49 42  1  0  0  0  0
 65 50  1  0  0  0  0
 77 70  1  0  0  0  0
 93 78  1  0  0  0  0
114107  1  0  0  0  0
130115  1  0  0  0  0
 23 16  1  0  0  0  0
 60 53  1  0  0  0  0
 88 81  1  0  0  0  0
125118  1  0  0  0  0
  1131  1  0  0  0  0
  2132  1  0  0  0  0
  6133  1  0  0  0  0
  7134  1  0  0  0  0
 10135  1  0  0  0  0
 10136  1  0  0  0  0
 11137  1  0  0  0  0
 11138  1  0  0  0  0
 11139  1  0  0  0  0
 17140  1  0  0  0  0
 18141  1  0  0  0  0
 21142  1  0  0  0  0
 21143  1  0  0  0  0
 22144  1  0  0  0  0
 22145  1  0  0  0  0
 22146  1  0  0  0  0
 26147  1  0  0  0  0
 33148  1  0  0  0  0
 35149  1  0  0  0  0
 39150  1  0  0  0  0
 43151  1  0  0  0  0
 44152  1  0  0  0  0
 47153  1  0  0  0  0
 47154  1  0  0  0  0
 48155  1  0  0  0  0
 48156  1  0  0  0  0
 48157  1  0  0  0  0
 54158  1  0  0  0  0
 55159  1  0  0  0  0
 58160  1  0  0  0  0
 58161  1  0  0  0  0
 59162  1  0  0  0  0
 59163  1  0  0  0  0
 59164  1  0  0  0  0
 63165  1  0  0  0  0
 67166  1  0  0  0  0
 71167  1  0  0  0  0
 72168  1  0  0  0  0
 75169  1  0  0  0  0
 75170  1  0  0  0  0
 76171  1  0  0  0  0
 76172  1  0  0  0  0
 76173  1  0  0  0  0
 82174  1  0  0  0  0
 83175  1  0  0  0  0
 86176  1  0  0  0  0
 86177  1  0  0  0  0
 87178  1  0  0  0  0
 87179  1  0  0  0  0
 87180  1  0  0  0  0
 91181  1  0  0  0  0
 98182  1  0  0  0  0
100183  1  0  0  0  0
104184  1  0  0  0  0
108185  1  0  0  0  0
109186  1  0  0  0  0
112187  1  0  0  0  0
112188  1  0  0  0  0
113189  1  0  0  0  0
113190  1  0  0  0  0
113191  1  0  0  0  0
119192  1  0  0  0  0
120193  1  0  0  0  0
123194  1  0  0  0  0
123195  1  0  0  0  0
124196  1  0  0  0  0
124197  1  0  0  0  0
124198  1  0  0  0  0
128199  1  0  0  0  0
129200  1  0  0  0  0
M  END
