
  xtb     03072216033D
 energy: -474.134058828758 gnorm: 0.000226411080 xtb: 6.4.1 (unknown)
278307  0     0  0            999 V2000
  -19.7754   -2.0361   11.0520 C   0  0  0  0  0  0  0  0  0  0  0  0
  -18.9820   -0.9600   10.8811 C   0  0  0  0  0  0  0  0  0  0  0  0
  -18.1695   -1.0492    9.7117 C   0  0  0  0  0  0  0  0  0  0  0  0
  -17.2317   -0.1240    9.2351 C   0  0  0  0  0  0  0  0  0  0  0  0
  -16.8612    1.1030    9.9531 C   0  0  0  0  0  0  0  0  0  0  0  0
  -16.8442    2.3328    9.2960 C   0  0  0  0  0  0  0  0  0  0  0  0
  -16.3672    3.4598    9.9273 C   0  0  0  0  0  0  0  0  0  0  0  0
  -15.8941    3.4112   11.2382 C   0  0  0  0  0  0  0  0  0  0  0  0
  -15.2804    4.9183   11.9246 S   0  0  0  0  0  0  0  0  0  0  0  0
  -13.9557    4.3731   13.0771 C   0  0  0  0  0  0  0  0  0  0  0  0
  -12.9811    5.5175   13.2730 C   0  0  0  0  0  0  0  0  0  0  0  0
  -15.9733    2.1905   11.9016 C   0  0  0  0  0  0  0  0  0  0  0  0
  -15.5873    2.0762   13.1929 F   0  0  0  0  0  0  0  0  0  0  0  0
  -16.4349    1.0495   11.2751 C   0  0  0  0  0  0  0  0  0  0  0  0
  -16.5929   -0.4436    8.0464 C   0  0  0  0  0  0  0  0  0  0  0  0
  -16.8083   -1.6551    7.3470 C   0  0  0  0  0  0  0  0  0  0  0  0
  -17.7313   -2.5931    7.8364 C   0  0  0  0  0  0  0  0  0  0  0  0
  -17.9301   -3.8702    7.1412 C   0  0  0  0  0  0  0  0  0  0  0  0
  -19.1992   -4.3171    6.7889 C   0  0  0  0  0  0  0  0  0  0  0  0
  -19.3733   -5.4924    6.0828 C   0  0  0  0  0  0  0  0  0  0  0  0
  -18.2822   -6.2705    5.7142 C   0  0  0  0  0  0  0  0  0  0  0  0
  -18.3484   -7.7549    4.7662 S   0  0  0  0  0  0  0  0  0  0  0  0
  -20.1010   -8.2564    4.8395 C   0  0  0  0  0  0  0  0  0  0  0  0
  -20.5051   -8.7326    6.2216 C   0  0  0  0  0  0  0  0  0  0  0  0
  -17.0161   -5.8209    6.0937 C   0  0  0  0  0  0  0  0  0  0  0  0
  -16.8282   -4.6506    6.7911 C   0  0  0  0  0  0  0  0  0  0  0  0
  -15.9347   -6.5548    5.7592 F   0  0  0  0  0  0  0  0  0  0  0  0
  -18.4098   -2.2491    8.9975 C   0  0  0  0  0  0  0  0  0  0  0  0
  -19.6013   -3.2311    9.8113 S   0  0  0  0  0  0  0  0  0  0  0  0
  -15.9959   -1.7444    6.1864 C   0  0  0  0  0  0  0  0  0  0  0  0
  -15.1728   -0.6740    6.0168 C   0  0  0  0  0  0  0  0  0  0  0  0
  -15.3747    0.5335    7.2721 S   0  0  0  0  0  0  0  0  0  0  0  0
  -14.1647   -0.4809    5.0302 C   0  0  0  0  0  0  0  0  0  0  0  0
  -13.4098    0.6368    4.8437 C   0  0  0  0  0  0  0  0  0  0  0  0
  -12.3904    0.4851    3.8736 C   0  0  0  0  0  0  0  0  0  0  0  0
  -11.3935    1.4159    3.5137 C   0  0  0  0  0  0  0  0  0  0  0  0
  -11.2521    2.6964    4.1743 C   0  0  0  0  0  0  0  0  0  0  0  0
  -10.8384    3.8777    3.6215 C   0  0  0  0  0  0  0  0  0  0  0  0
  -10.7552    4.9800    4.4951 C   0  0  0  0  0  0  0  0  0  0  0  0
  -11.0881    4.7196    5.7924 C   0  0  0  0  0  0  0  0  0  0  0  0
  -11.0626    5.9083    7.0785 S   0  0  0  0  0  0  0  0  0  0  0  0
  -12.5477    5.4420    8.0516 C   0  0  0  0  0  0  0  0  0  0  0  0
  -12.2528    4.4261    9.1360 C   0  0  0  0  0  0  0  0  0  0  0  0
  -11.5148    2.9040    6.0325 Se  0  0  0  0  0  2  0  0  0  0  0  0
  -10.5131    1.0021    2.5168 C   0  0  0  0  0  0  0  0  0  0  0  0
  -10.5593   -0.2750    1.9037 C   0  0  0  0  0  0  0  0  0  0  0  0
  -11.5207   -1.2254    2.3103 C   0  0  0  0  0  0  0  0  0  0  0  0
  -11.5295   -2.5799    1.8062 C   0  0  0  0  0  0  0  0  0  0  0  0
  -10.4528   -3.3732    1.5127 C   0  0  0  0  0  0  0  0  0  0  0  0
  -10.7443   -4.6790    1.0762 C   0  0  0  0  0  0  0  0  0  0  0  0
  -12.0746   -4.9803    0.9944 C   0  0  0  0  0  0  0  0  0  0  0  0
  -12.6969   -6.5058    0.4165 S   0  0  0  0  0  0  0  0  0  0  0  0
  -14.3789   -6.5099    1.1361 C   0  0  0  0  0  0  0  0  0  0  0  0
  -14.3637   -6.7057    2.6374 C   0  0  0  0  0  0  0  0  0  0  0  0
  -13.1416   -3.5085    1.4914 Se  0  0  0  0  0  2  0  0  0  0  0  0
  -12.4276   -0.7957    3.2753 C   0  0  0  0  0  0  0  0  0  0  0  0
  -13.6866   -1.7848    3.9671 S   0  0  0  0  0  0  0  0  0  0  0  0
   -9.5369   -0.4319    0.9346 C   0  0  0  0  0  0  0  0  0  0  0  0
   -8.7025    0.6406    0.8379 C   0  0  0  0  0  0  0  0  0  0  0  0
   -9.1718    1.9389    1.9163 S   0  0  0  0  0  0  0  0  0  0  0  0
   -7.5134    0.7732    0.0648 C   0  0  0  0  0  0  0  0  0  0  0  0
   -6.6723    1.8452    0.0391 C   0  0  0  0  0  0  0  0  0  0  0  0
   -5.4877    1.6228   -0.7047 C   0  0  0  0  0  0  0  0  0  0  0  0
   -4.3897    2.4865   -0.8555 C   0  0  0  0  0  0  0  0  0  0  0  0
   -4.3803    3.8035   -0.2074 C   0  0  0  0  0  0  0  0  0  0  0  0
   -4.6596    3.9241    1.1514 C   0  0  0  0  0  0  0  0  0  0  0  0
   -4.7067    5.1598    1.7653 C   0  0  0  0  0  0  0  0  0  0  0  0
   -4.4874    6.3240    1.0376 C   0  0  0  0  0  0  0  0  0  0  0  0
   -4.5570    7.9578    1.6926 S   0  0  0  0  0  0  0  0  0  0  0  0
   -5.4493    7.7630    3.2752 C   0  0  0  0  0  0  0  0  0  0  0  0
   -6.9064    7.3876    3.0822 C   0  0  0  0  0  0  0  0  0  0  0  0
   -4.1664    6.1851   -0.3142 C   0  0  0  0  0  0  0  0  0  0  0  0
   -3.9219    7.2906   -1.0448 F   0  0  0  0  0  0  0  0  0  0  0  0
   -4.1063    4.9579   -0.9365 C   0  0  0  0  0  0  0  0  0  0  0  0
   -3.3215    2.0088   -1.5969 C   0  0  0  0  0  0  0  0  0  0  0  0
   -3.2986    0.7133   -2.1727 C   0  0  0  0  0  0  0  0  0  0  0  0
   -4.4011   -0.1456   -2.0309 C   0  0  0  0  0  0  0  0  0  0  0  0
   -4.3940   -1.5032   -2.5904 C   0  0  0  0  0  0  0  0  0  0  0  0
   -3.3488   -2.3866   -2.3247 C   0  0  0  0  0  0  0  0  0  0  0  0
   -3.3441   -3.6517   -2.8712 C   0  0  0  0  0  0  0  0  0  0  0  0
   -4.3799   -4.0909   -3.6938 C   0  0  0  0  0  0  0  0  0  0  0  0
   -4.2748   -5.7439   -4.3150 S   0  0  0  0  0  0  0  0  0  0  0  0
   -4.8855   -5.6106   -6.0363 C   0  0  0  0  0  0  0  0  0  0  0  0
   -4.0826   -4.6144   -6.8482 C   0  0  0  0  0  0  0  0  0  0  0  0
   -5.4370   -3.2137   -3.9147 C   0  0  0  0  0  0  0  0  0  0  0  0
   -5.4470   -1.9381   -3.3874 C   0  0  0  0  0  0  0  0  0  0  0  0
   -6.4979   -3.5820   -4.6655 F   0  0  0  0  0  0  0  0  0  0  0  0
   -5.4747    0.3374   -1.3003 C   0  0  0  0  0  0  0  0  0  0  0  0
   -6.9129   -0.5659   -0.8951 S   0  0  0  0  0  0  0  0  0  0  0  0
   -2.0623    0.4426   -2.8083 C   0  0  0  0  0  0  0  0  0  0  0  0
   -1.1542    1.4531   -2.6953 C   0  0  0  0  0  0  0  0  0  0  0  0
   -1.8082    2.8424   -1.8476 S   0  0  0  0  0  0  0  0  0  0  0  0
    0.2198    1.4080   -3.0718 C   0  0  0  0  0  0  0  0  0  0  0  0
    1.1670    2.3817   -2.9658 C   0  0  0  0  0  0  0  0  0  0  0  0
    2.4806    1.9378   -3.2623 C   0  0  0  0  0  0  0  0  0  0  0  0
    3.6758    2.6895   -3.2352 C   0  0  0  0  0  0  0  0  0  0  0  0
    3.7055    4.0801   -2.8407 C   0  0  0  0  0  0  0  0  0  0  0  0
    3.0061    4.6899   -1.8356 C   0  0  0  0  0  0  0  0  0  0  0  0
    3.2513    6.0648   -1.6566 C   0  0  0  0  0  0  0  0  0  0  0  0
    4.1530    6.6102   -2.5262 C   0  0  0  0  0  0  0  0  0  0  0  0
    4.5695    8.3071   -2.5564 S   0  0  0  0  0  0  0  0  0  0  0  0
    6.1225    8.2855   -3.5204 C   0  0  0  0  0  0  0  0  0  0  0  0
    7.2807    7.7028   -2.7367 C   0  0  0  0  0  0  0  0  0  0  0  0
    4.8078    5.3210   -3.7352 Se  0  0  0  0  0  2  0  0  0  0  0  0
    4.8367    2.0035   -3.5803 C   0  0  0  0  0  0  0  0  0  0  0  0
    4.8554    0.6316   -3.9191 C   0  0  0  0  0  0  0  0  0  0  0  0
    3.6608   -0.1174   -3.9875 C   0  0  0  0  0  0  0  0  0  0  0  0
    3.6493   -1.5027   -4.4043 C   0  0  0  0  0  0  0  0  0  0  0  0
    2.8181   -2.5038   -3.9786 C   0  0  0  0  0  0  0  0  0  0  0  0
    2.9949   -3.7646   -4.5786 C   0  0  0  0  0  0  0  0  0  0  0  0
    3.9692   -3.8199   -5.5355 C   0  0  0  0  0  0  0  0  0  0  0  0
    4.4092   -5.2599   -6.4213 S   0  0  0  0  0  0  0  0  0  0  0  0
    5.8911   -4.6616   -7.3185 C   0  0  0  0  0  0  0  0  0  0  0  0
    6.4586   -5.7638   -8.1874 C   0  0  0  0  0  0  0  0  0  0  0  0
    4.7916   -2.1467   -5.7679 Se  0  0  0  0  0  2  0  0  0  0  0  0
    2.5023    0.5694   -3.6336 C   0  0  0  0  0  0  0  0  0  0  0  0
    0.9016   -0.1177   -3.5982 S   0  0  0  0  0  0  0  0  0  0  0  0
    6.1735    0.1564   -4.0896 C   0  0  0  0  0  0  0  0  0  0  0  0
    7.1382    1.1104   -3.9386 C   0  0  0  0  0  0  0  0  0  0  0  0
    6.4519    2.6697   -3.5524 S   0  0  0  0  0  0  0  0  0  0  0  0
    8.5388    0.8603   -4.0332 C   0  0  0  0  0  0  0  0  0  0  0  0
    9.0905   -0.3229   -4.4320 C   0  0  0  0  0  0  0  0  0  0  0  0
   10.4994   -0.3535   -4.3495 C   0  0  0  0  0  0  0  0  0  0  0  0
   11.3476   -1.4440   -4.6259 C   0  0  0  0  0  0  0  0  0  0  0  0
   10.8000   -2.7432   -4.9572 C   0  0  0  0  0  0  0  0  0  0  0  0
    9.7086   -3.3350   -4.3805 C   0  0  0  0  0  0  0  0  0  0  0  0
    9.3017   -4.5642   -4.9355 C   0  0  0  0  0  0  0  0  0  0  0  0
   10.0661   -4.9958   -5.9798 C   0  0  0  0  0  0  0  0  0  0  0  0
    9.8623   -6.4389   -6.9513 S   0  0  0  0  0  0  0  0  0  0  0  0
    9.1826   -7.6271   -5.7344 C   0  0  0  0  0  0  0  0  0  0  0  0
   10.1586   -7.9140   -4.6119 C   0  0  0  0  0  0  0  0  0  0  0  0
   11.4854   -3.8216   -6.3499 Se  0  0  0  0  0  2  0  0  0  0  0  0
   12.7102   -1.1889   -4.5474 C   0  0  0  0  0  0  0  0  0  0  0  0
   13.2533    0.0652   -4.1732 C   0  0  0  0  0  0  0  0  0  0  0  0
   12.3980    1.1318   -3.8145 C   0  0  0  0  0  0  0  0  0  0  0  0
   12.9162    2.3987   -3.3447 C   0  0  0  0  0  0  0  0  0  0  0  0
   14.0009    2.6017   -2.5355 C   0  0  0  0  0  0  0  0  0  0  0  0
   14.3376    3.9437   -2.2659 C   0  0  0  0  0  0  0  0  0  0  0  0
   13.5229    4.8637   -2.8585 C   0  0  0  0  0  0  0  0  0  0  0  0
   13.6072    6.6109   -2.8202 S   0  0  0  0  0  0  0  0  0  0  0  0
   14.5482    6.9364   -1.2858 C   0  0  0  0  0  0  0  0  0  0  0  0
   13.7768    6.5343   -0.0448 C   0  0  0  0  0  0  0  0  0  0  0  0
   12.1479    4.0555   -3.8471 Se  0  0  0  0  0  2  0  0  0  0  0  0
   11.0325    0.8888   -3.9339 C   0  0  0  0  0  0  0  0  0  0  0  0
    9.7596    2.0275   -3.5723 S   0  0  0  0  0  0  0  0  0  0  0  0
   14.6693    0.0509   -4.2231 C   0  0  0  0  0  0  0  0  0  0  0  0
   15.1965   -1.1611   -4.5661 C   0  0  0  0  0  0  0  0  0  0  0  0
   13.9562   -2.3589   -4.8671 S   0  0  0  0  0  0  0  0  0  0  0  0
   16.5726   -1.5295   -4.6572 C   0  0  0  0  0  0  0  0  0  0  0  0
   17.6692   -0.7351   -4.4891 C   0  0  0  0  0  0  0  0  0  0  0  0
   18.8987   -1.4317   -4.5997 C   0  0  0  0  0  0  0  0  0  0  0  0
   20.2070   -0.9166   -4.4888 C   0  0  0  0  0  0  0  0  0  0  0  0
   20.4483    0.4595   -4.1183 C   0  0  0  0  0  0  0  0  0  0  0  0
   19.7641    1.2009   -3.1935 C   0  0  0  0  0  0  0  0  0  0  0  0
   20.1838    2.5338   -3.0305 C   0  0  0  0  0  0  0  0  0  0  0  0
   21.2239    2.9117   -3.8328 C   0  0  0  0  0  0  0  0  0  0  0  0
   21.9206    4.5133   -3.8376 S   0  0  0  0  0  0  0  0  0  0  0  0
   23.2768    4.2756   -5.0431 C   0  0  0  0  0  0  0  0  0  0  0  0
   24.0675    5.5571   -5.2043 C   0  0  0  0  0  0  0  0  0  0  0  0
   21.8070    1.4892   -4.9228 Se  0  0  0  0  0  2  0  0  0  0  0  0
   21.2423   -1.8172   -4.7282 C   0  0  0  0  0  0  0  0  0  0  0  0
   21.0428   -3.1855   -5.0191 C   0  0  0  0  0  0  0  0  0  0  0  0
   19.7374   -3.7037   -5.1153 C   0  0  0  0  0  0  0  0  0  0  0  0
   19.4897   -5.0961   -5.4307 C   0  0  0  0  0  0  0  0  0  0  0  0
   20.1383   -5.8641   -6.3555 C   0  0  0  0  0  0  0  0  0  0  0  0
   19.7320   -7.2130   -6.4458 C   0  0  0  0  0  0  0  0  0  0  0  0
   18.7421   -7.5649   -5.5764 C   0  0  0  0  0  0  0  0  0  0  0  0
   17.9640   -9.1115   -5.3414 S   0  0  0  0  0  0  0  0  0  0  0  0
   18.8371  -10.1716   -6.5560 C   0  0  0  0  0  0  0  0  0  0  0  0
   18.2906  -11.5831   -6.4658 C   0  0  0  0  0  0  0  0  0  0  0  0
   18.1823   -6.1200   -4.5170 Se  0  0  0  0  0  2  0  0  0  0  0  0
   18.7010   -2.8019   -4.8922 C   0  0  0  0  0  0  0  0  0  0  0  0
   17.0080   -3.1930   -4.9877 S   0  0  0  0  0  0  0  0  0  0  0  0
   22.2826   -3.8833   -5.1272 C   0  0  0  0  0  0  0  0  0  0  0  0
   23.3549   -3.0861   -4.9543 C   0  0  0  0  0  0  0  0  0  0  0  0
   22.9417   -1.4365   -4.6347 S   0  0  0  0  0  0  0  0  0  0  0  0
  -20.4782   -2.2193   11.8411 H   0  0  0  0  0  0  0  0  0  0  0  0
  -18.9678   -0.1146   11.5449 H   0  0  0  0  0  0  0  0  0  0  0  0
  -17.2060    2.4026    8.2821 H   0  0  0  0  0  0  0  0  0  0  0  0
  -16.3409    4.4067    9.4106 H   0  0  0  0  0  0  0  0  0  0  0  0
  -14.4169    4.0827   14.0198 H   0  0  0  0  0  0  0  0  0  0  0  0
  -13.4673    3.5119   12.6234 H   0  0  0  0  0  0  0  0  0  0  0  0
  -12.5377    5.8098   12.3239 H   0  0  0  0  0  0  0  0  0  0  0  0
  -13.4879    6.3815   13.6969 H   0  0  0  0  0  0  0  0  0  0  0  0
  -12.1882    5.2111   13.9518 H   0  0  0  0  0  0  0  0  0  0  0  0
  -16.4355    0.1200   11.8236 H   0  0  0  0  0  0  0  0  0  0  0  0
  -20.0640   -3.7240    7.0439 H   0  0  0  0  0  0  0  0  0  0  0  0
  -20.3726   -5.7881    5.8077 H   0  0  0  0  0  0  0  0  0  0  0  0
  -20.1629   -9.0686    4.1152 H   0  0  0  0  0  0  0  0  0  0  0  0
  -20.7157   -7.4297    4.4854 H   0  0  0  0  0  0  0  0  0  0  0  0
  -21.5451   -9.0532    6.2128 H   0  0  0  0  0  0  0  0  0  0  0  0
  -20.3916   -7.9398    6.9581 H   0  0  0  0  0  0  0  0  0  0  0  0
  -19.8846   -9.5728    6.5245 H   0  0  0  0  0  0  0  0  0  0  0  0
  -15.8281   -4.3633    7.0749 H   0  0  0  0  0  0  0  0  0  0  0  0
  -16.0213   -2.5668    5.4943 H   0  0  0  0  0  0  0  0  0  0  0  0
  -13.6131    1.5455    5.3848 H   0  0  0  0  0  0  0  0  0  0  0  0
  -10.6560    3.9856    2.5660 H   0  0  0  0  0  0  0  0  0  0  0  0
  -10.4791    5.9658    4.1626 H   0  0  0  0  0  0  0  0  0  0  0  0
  -13.2874    5.0688    7.3420 H   0  0  0  0  0  0  0  0  0  0  0  0
  -12.8990    6.3797    8.4813 H   0  0  0  0  0  0  0  0  0  0  0  0
  -11.4821    4.7980    9.8073 H   0  0  0  0  0  0  0  0  0  0  0  0
  -13.1592    4.2316    9.7060 H   0  0  0  0  0  0  0  0  0  0  0  0
  -11.9106    3.4844    8.7024 H   0  0  0  0  0  0  0  0  0  0  0  0
   -9.4390   -3.0499    1.6791 H   0  0  0  0  0  0  0  0  0  0  0  0
   -9.9793   -5.3988    0.8419 H   0  0  0  0  0  0  0  0  0  0  0  0
  -14.8889   -7.3306    0.6331 H   0  0  0  0  0  0  0  0  0  0  0  0
  -14.8519   -5.5642    0.8518 H   0  0  0  0  0  0  0  0  0  0  0  0
  -15.3816   -6.7602    3.0163 H   0  0  0  0  0  0  0  0  0  0  0  0
  -13.8578   -5.8760    3.1314 H   0  0  0  0  0  0  0  0  0  0  0  0
  -13.8494   -7.6275    2.8970 H   0  0  0  0  0  0  0  0  0  0  0  0
   -9.4239   -1.3031    0.3156 H   0  0  0  0  0  0  0  0  0  0  0  0
   -6.8945    2.7645    0.5507 H   0  0  0  0  0  0  0  0  0  0  0  0
   -4.8231    3.0356    1.7425 H   0  0  0  0  0  0  0  0  0  0  0  0
   -4.9150    5.2072    2.8218 H   0  0  0  0  0  0  0  0  0  0  0  0
   -4.9127    7.0451    3.8944 H   0  0  0  0  0  0  0  0  0  0  0  0
   -5.3617    8.7477    3.7343 H   0  0  0  0  0  0  0  0  0  0  0  0
   -7.0019    6.4267    2.5807 H   0  0  0  0  0  0  0  0  0  0  0  0
   -7.4106    8.1403    2.4807 H   0  0  0  0  0  0  0  0  0  0  0  0
   -7.4017    7.3240    4.0495 H   0  0  0  0  0  0  0  0  0  0  0  0
   -3.8756    4.9127   -1.9891 H   0  0  0  0  0  0  0  0  0  0  0  0
   -2.5429   -2.0810   -1.6750 H   0  0  0  0  0  0  0  0  0  0  0  0
   -2.5301   -4.3309   -2.6703 H   0  0  0  0  0  0  0  0  0  0  0  0
   -5.9449   -5.3645   -6.0188 H   0  0  0  0  0  0  0  0  0  0  0  0
   -4.7622   -6.6226   -6.4221 H   0  0  0  0  0  0  0  0  0  0  0  0
   -3.0247   -4.8676   -6.8270 H   0  0  0  0  0  0  0  0  0  0  0  0
   -4.2042   -3.6059   -6.4569 H   0  0  0  0  0  0  0  0  0  0  0  0
   -4.4246   -4.6245   -7.8812 H   0  0  0  0  0  0  0  0  0  0  0  0
   -6.2815   -1.2917   -3.6112 H   0  0  0  0  0  0  0  0  0  0  0  0
   -1.8414   -0.4769   -3.3201 H   0  0  0  0  0  0  0  0  0  0  0  0
    0.9208    3.3907   -2.6900 H   0  0  0  0  0  0  0  0  0  0  0  0
    2.3597    4.1418   -1.1708 H   0  0  0  0  0  0  0  0  0  0  0  0
    2.7767    6.6455   -0.8847 H   0  0  0  0  0  0  0  0  0  0  0  0
    5.9254    7.7187   -4.4359 H   0  0  0  0  0  0  0  0  0  0  0  0
    6.3011    9.3291   -3.7773 H   0  0  0  0  0  0  0  0  0  0  0  0
    7.0836    6.6636   -2.4724 H   0  0  0  0  0  0  0  0  0  0  0  0
    7.4435    8.2690   -1.8226 H   0  0  0  0  0  0  0  0  0  0  0  0
    8.1865    7.7360   -3.3382 H   0  0  0  0  0  0  0  0  0  0  0  0
    2.1042   -2.3585   -3.1861 H   0  0  0  0  0  0  0  0  0  0  0  0
    2.4167   -4.6285   -4.3000 H   0  0  0  0  0  0  0  0  0  0  0  0
    6.6151   -4.3326   -6.5675 H   0  0  0  0  0  0  0  0  0  0  0  0
    5.5798   -3.8024   -7.9203 H   0  0  0  0  0  0  0  0  0  0  0  0
    7.3684   -5.4186   -8.6728 H   0  0  0  0  0  0  0  0  0  0  0  0
    6.6997   -6.6376   -7.5869 H   0  0  0  0  0  0  0  0  0  0  0  0
    5.7404   -6.0571   -8.9492 H   0  0  0  0  0  0  0  0  0  0  0  0
    6.4177   -0.8778   -4.2516 H   0  0  0  0  0  0  0  0  0  0  0  0
    8.5110   -1.1436   -4.8099 H   0  0  0  0  0  0  0  0  0  0  0  0
    9.2084   -2.9070   -3.5276 H   0  0  0  0  0  0  0  0  0  0  0  0
    8.4514   -5.1065   -4.5575 H   0  0  0  0  0  0  0  0  0  0  0  0
    8.2366   -7.2336   -5.3646 H   0  0  0  0  0  0  0  0  0  0  0  0
    8.9869   -8.5203   -6.3271 H   0  0  0  0  0  0  0  0  0  0  0  0
   11.0930   -8.3011   -5.0116 H   0  0  0  0  0  0  0  0  0  0  0  0
   10.3736   -7.0087   -4.0474 H   0  0  0  0  0  0  0  0  0  0  0  0
    9.7346   -8.6531   -3.9351 H   0  0  0  0  0  0  0  0  0  0  0  0
   14.5446    1.7855   -2.0896 H   0  0  0  0  0  0  0  0  0  0  0  0
   15.1780    4.2032   -1.6453 H   0  0  0  0  0  0  0  0  0  0  0  0
   14.7204    8.0121   -1.3113 H   0  0  0  0  0  0  0  0  0  0  0  0
   15.5068    6.4252   -1.3622 H   0  0  0  0  0  0  0  0  0  0  0  0
   14.3583    6.7715    0.8439 H   0  0  0  0  0  0  0  0  0  0  0  0
   13.5665    5.4668   -0.0489 H   0  0  0  0  0  0  0  0  0  0  0  0
   12.8321    7.0708    0.0024 H   0  0  0  0  0  0  0  0  0  0  0  0
   15.2757    0.9171   -4.0368 H   0  0  0  0  0  0  0  0  0  0  0  0
   17.6022    0.3238   -4.3240 H   0  0  0  0  0  0  0  0  0  0  0  0
   18.9860    0.7727   -2.5838 H   0  0  0  0  0  0  0  0  0  0  0  0
   19.7312    3.2081   -2.3241 H   0  0  0  0  0  0  0  0  0  0  0  0
   23.9041    3.4636   -4.6641 H   0  0  0  0  0  0  0  0  0  0  0  0
   22.8172    3.9682   -5.9873 H   0  0  0  0  0  0  0  0  0  0  0  0
   24.5009    5.8582   -4.2535 H   0  0  0  0  0  0  0  0  0  0  0  0
   23.4242    6.3587   -5.5597 H   0  0  0  0  0  0  0  0  0  0  0  0
   24.8699    5.4071   -5.9231 H   0  0  0  0  0  0  0  0  0  0  0  0
   20.8853   -5.4573   -7.0169 H   0  0  0  0  0  0  0  0  0  0  0  0
   20.1758   -7.8910   -7.1535 H   0  0  0  0  0  0  0  0  0  0  0  0
   19.8991  -10.1437   -6.3120 H   0  0  0  0  0  0  0  0  0  0  0  0
   18.6679   -9.7456   -7.5449 H   0  0  0  0  0  0  0  0  0  0  0  0
   18.4422  -11.9864   -5.4673 H   0  0  0  0  0  0  0  0  0  0  0  0
   18.8002  -12.2229   -7.1831 H   0  0  0  0  0  0  0  0  0  0  0  0
   17.2252  -11.5927   -6.6832 H   0  0  0  0  0  0  0  0  0  0  0  0
   22.3522   -4.9411   -5.3008 H   0  0  0  0  0  0  0  0  0  0  0  0
   24.3923   -3.3559   -4.9836 H   0  0  0  0  0  0  0  0  0  0  0  0
  1  2  2  0  0  0  0
  2  3  1  0  0  0  0
  3  4  2  0  0  0  0
  4  5  1  0  0  0  0
  5  6  2  0  0  0  0
  6  7  1  0  0  0  0
  7  8  2  0  0  0  0
  8  9  1  0  0  0  0
  9 10  1  0  0  0  0
 10 11  1  0  0  0  0
  8 12  1  0  0  0  0
 12 13  1  0  0  0  0
 12 14  2  0  0  0  0
  4 15  1  0  0  0  0
 15 16  2  0  0  0  0
 16 17  1  0  0  0  0
 17 18  1  0  0  0  0
 18 19  2  0  0  0  0
 19 20  1  0  0  0  0
 20 21  2  0  0  0  0
 21 22  1  0  0  0  0
 22 23  1  0  0  0  0
 23 24  1  0  0  0  0
 21 25  1  0  0  0  0
 25 26  2  0  0  0  0
 25 27  1  0  0  0  0
 17 28  2  0  0  0  0
 28 29  1  0  0  0  0
 16 30  1  0  0  0  0
 30 31  2  0  0  0  0
 31 32  1  0  0  0  0
 31 33  1  0  0  0  0
 33 34  2  0  0  0  0
 34 35  1  0  0  0  0
 35 36  2  0  0  0  0
 36 37  1  0  0  0  0
 37 38  2  0  0  0  0
 38 39  1  0  0  0  0
 39 40  2  0  0  0  0
 40 41  1  0  0  0  0
 41 42  1  0  0  0  0
 42 43  1  0  0  0  0
 40 44  1  0  0  0  0
 36 45  1  0  0  0  0
 45 46  2  0  0  0  0
 46 47  1  0  0  0  0
 47 48  1  0  0  0  0
 48 49  2  0  0  0  0
 49 50  1  0  0  0  0
 50 51  2  0  0  0  0
 51 52  1  0  0  0  0
 52 53  1  0  0  0  0
 53 54  1  0  0  0  0
 51 55  1  0  0  0  0
 47 56  2  0  0  0  0
 56 57  1  0  0  0  0
 46 58  1  0  0  0  0
 58 59  2  0  0  0  0
 59 60  1  0  0  0  0
 59 61  1  0  0  0  0
 61 62  2  0  0  0  0
 62 63  1  0  0  0  0
 63 64  2  0  0  0  0
 64 65  1  0  0  0  0
 65 66  2  0  0  0  0
 66 67  1  0  0  0  0
 67 68  2  0  0  0  0
 68 69  1  0  0  0  0
 69 70  1  0  0  0  0
 70 71  1  0  0  0  0
 68 72  1  0  0  0  0
 72 73  1  0  0  0  0
 72 74  2  0  0  0  0
 64 75  1  0  0  0  0
 75 76  2  0  0  0  0
 76 77  1  0  0  0  0
 77 78  1  0  0  0  0
 78 79  2  0  0  0  0
 79 80  1  0  0  0  0
 80 81  2  0  0  0  0
 81 82  1  0  0  0  0
 82 83  1  0  0  0  0
 83 84  1  0  0  0  0
 81 85  1  0  0  0  0
 85 86  2  0  0  0  0
 85 87  1  0  0  0  0
 77 88  2  0  0  0  0
 88 89  1  0  0  0  0
 76 90  1  0  0  0  0
 90 91  2  0  0  0  0
 91 92  1  0  0  0  0
 91 93  1  0  0  0  0
 93 94  2  0  0  0  0
 94 95  1  0  0  0  0
 95 96  2  0  0  0  0
 96 97  1  0  0  0  0
 97 98  2  0  0  0  0
 98 99  1  0  0  0  0
 99100  2  0  0  0  0
100101  1  0  0  0  0
101102  1  0  0  0  0
102103  1  0  0  0  0
100104  1  0  0  0  0
 96105  1  0  0  0  0
105106  2  0  0  0  0
106107  1  0  0  0  0
107108  1  0  0  0  0
108109  2  0  0  0  0
109110  1  0  0  0  0
110111  2  0  0  0  0
111112  1  0  0  0  0
112113  1  0  0  0  0
113114  1  0  0  0  0
111115  1  0  0  0  0
107116  2  0  0  0  0
116117  1  0  0  0  0
106118  1  0  0  0  0
118119  2  0  0  0  0
119120  1  0  0  0  0
119121  1  0  0  0  0
121122  2  0  0  0  0
122123  1  0  0  0  0
123124  2  0  0  0  0
124125  1  0  0  0  0
125126  2  0  0  0  0
126127  1  0  0  0  0
127128  2  0  0  0  0
128129  1  0  0  0  0
129130  1  0  0  0  0
130131  1  0  0  0  0
128132  1  0  0  0  0
124133  1  0  0  0  0
133134  2  0  0  0  0
134135  1  0  0  0  0
135136  1  0  0  0  0
136137  2  0  0  0  0
137138  1  0  0  0  0
138139  2  0  0  0  0
139140  1  0  0  0  0
140141  1  0  0  0  0
141142  1  0  0  0  0
139143  1  0  0  0  0
135144  2  0  0  0  0
144145  1  0  0  0  0
134146  1  0  0  0  0
146147  2  0  0  0  0
147148  1  0  0  0  0
147149  1  0  0  0  0
149150  2  0  0  0  0
150151  1  0  0  0  0
151152  2  0  0  0  0
152153  1  0  0  0  0
153154  2  0  0  0  0
154155  1  0  0  0  0
155156  2  0  0  0  0
156157  1  0  0  0  0
157158  1  0  0  0  0
158159  1  0  0  0  0
156160  1  0  0  0  0
152161  1  0  0  0  0
161162  2  0  0  0  0
162163  1  0  0  0  0
163164  1  0  0  0  0
164165  2  0  0  0  0
165166  1  0  0  0  0
166167  2  0  0  0  0
167168  1  0  0  0  0
168169  1  0  0  0  0
169170  1  0  0  0  0
167171  1  0  0  0  0
163172  2  0  0  0  0
172173  1  0  0  0  0
162174  1  0  0  0  0
174175  2  0  0  0  0
175176  1  0  0  0  0
 29  1  1  0  0  0  0
 57 33  1  0  0  0  0
 89 61  1  0  0  0  0
117 93  1  0  0  0  0
145121  1  0  0  0  0
173149  1  0  0  0  0
 28  3  1  0  0  0  0
 56 35  1  0  0  0  0
 88 63  1  0  0  0  0
116 95  1  0  0  0  0
144123  1  0  0  0  0
172151  1  0  0  0  0
 14  5  1  0  0  0  0
 32 15  1  0  0  0  0
 44 37  1  0  0  0  0
 60 45  1  0  0  0  0
 74 65  1  0  0  0  0
 92 75  1  0  0  0  0
104 97  1  0  0  0  0
120105  1  0  0  0  0
132125  1  0  0  0  0
148133  1  0  0  0  0
160153  1  0  0  0  0
176161  1  0  0  0  0
 26 18  1  0  0  0  0
 55 48  1  0  0  0  0
 86 78  1  0  0  0  0
115108  1  0  0  0  0
143136  1  0  0  0  0
171164  1  0  0  0  0
  1177  1  0  0  0  0
  2178  1  0  0  0  0
  6179  1  0  0  0  0
  7180  1  0  0  0  0
 10181  1  0  0  0  0
 10182  1  0  0  0  0
 11183  1  0  0  0  0
 11184  1  0  0  0  0
 11185  1  0  0  0  0
 14186  1  0  0  0  0
 19187  1  0  0  0  0
 20188  1  0  0  0  0
 23189  1  0  0  0  0
 23190  1  0  0  0  0
 24191  1  0  0  0  0
 24192  1  0  0  0  0
 24193  1  0  0  0  0
 26194  1  0  0  0  0
 30195  1  0  0  0  0
 34196  1  0  0  0  0
 38197  1  0  0  0  0
 39198  1  0  0  0  0
 42199  1  0  0  0  0
 42200  1  0  0  0  0
 43201  1  0  0  0  0
 43202  1  0  0  0  0
 43203  1  0  0  0  0
 49204  1  0  0  0  0
 50205  1  0  0  0  0
 53206  1  0  0  0  0
 53207  1  0  0  0  0
 54208  1  0  0  0  0
 54209  1  0  0  0  0
 54210  1  0  0  0  0
 58211  1  0  0  0  0
 62212  1  0  0  0  0
 66213  1  0  0  0  0
 67214  1  0  0  0  0
 70215  1  0  0  0  0
 70216  1  0  0  0  0
 71217  1  0  0  0  0
 71218  1  0  0  0  0
 71219  1  0  0  0  0
 74220  1  0  0  0  0
 79221  1  0  0  0  0
 80222  1  0  0  0  0
 83223  1  0  0  0  0
 83224  1  0  0  0  0
 84225  1  0  0  0  0
 84226  1  0  0  0  0
 84227  1  0  0  0  0
 86228  1  0  0  0  0
 90229  1  0  0  0  0
 94230  1  0  0  0  0
 98231  1  0  0  0  0
 99232  1  0  0  0  0
102233  1  0  0  0  0
102234  1  0  0  0  0
103235  1  0  0  0  0
103236  1  0  0  0  0
103237  1  0  0  0  0
109238  1  0  0  0  0
110239  1  0  0  0  0
113240  1  0  0  0  0
113241  1  0  0  0  0
114242  1  0  0  0  0
114243  1  0  0  0  0
114244  1  0  0  0  0
118245  1  0  0  0  0
122246  1  0  0  0  0
126247  1  0  0  0  0
127248  1  0  0  0  0
130249  1  0  0  0  0
130250  1  0  0  0  0
131251  1  0  0  0  0
131252  1  0  0  0  0
131253  1  0  0  0  0
137254  1  0  0  0  0
138255  1  0  0  0  0
141256  1  0  0  0  0
141257  1  0  0  0  0
142258  1  0  0  0  0
142259  1  0  0  0  0
142260  1  0  0  0  0
146261  1  0  0  0  0
150262  1  0  0  0  0
154263  1  0  0  0  0
155264  1  0  0  0  0
158265  1  0  0  0  0
158266  1  0  0  0  0
159267  1  0  0  0  0
159268  1  0  0  0  0
159269  1  0  0  0  0
165270  1  0  0  0  0
166271  1  0  0  0  0
169272  1  0  0  0  0
169273  1  0  0  0  0
170274  1  0  0  0  0
170275  1  0  0  0  0
170276  1  0  0  0  0
174277  1  0  0  0  0
175278  1  0  0  0  0
M  END
