
  xtb     03072217033D
 energy: -214.651971495067 gnorm: 0.000575503502 xtb: 6.4.1 (unknown)
121140  0     0  0            999 V2000
    7.4166   -4.9361   16.1006 C   0  0  0  0  0  0  0  0  0  0  0  0
    7.9093   -3.8211   15.4891 C   0  0  0  0  0  0  0  0  0  0  0  0
    7.0889   -3.4083   14.4290 C   0  0  0  0  0  0  0  0  0  0  0  0
    5.9826   -4.2298   14.2618 C   0  0  0  0  0  0  0  0  0  0  0  0
    5.9430   -5.5125   15.4036 S   0  0  0  0  0  0  0  0  0  0  0  0
    5.2108   -3.7490   13.1724 C   0  0  0  0  0  0  0  0  0  0  0  0
    5.8279   -2.6184   12.6467 C   0  0  0  0  0  0  0  0  0  0  0  0
    7.0817   -2.3076   13.4099 C   0  0  0  0  0  0  0  0  0  0  0  0
    5.1386   -2.0802   11.5620 C   0  0  0  0  0  0  0  0  0  0  0  0
    3.9989   -2.7968   11.2591 C   0  0  0  0  0  0  0  0  0  0  0  0
    3.7704   -4.1631   12.3368 S   0  0  0  0  0  0  0  0  0  0  0  0
    3.0771   -2.5584   10.2037 C   0  0  0  0  0  0  0  0  0  0  0  0
    1.9546   -3.2677    9.8887 C   0  0  0  0  0  0  0  0  0  0  0  0
    1.2799   -2.7932    8.7377 C   0  0  0  0  0  0  0  0  0  0  0  0
    0.0874   -3.2857    8.1630 C   0  0  0  0  0  0  0  0  0  0  0  0
   -0.5571   -4.4779    8.6666 C   0  0  0  0  0  0  0  0  0  0  0  0
    0.0428   -5.6263    9.1031 C   0  0  0  0  0  0  0  0  0  0  0  0
   -0.8180   -6.6373    9.5726 C   0  0  0  0  0  0  0  0  0  0  0  0
   -2.1476   -6.3300    9.5296 C   0  0  0  0  0  0  0  0  0  0  0  0
   -3.4091   -7.4554    9.9813 S   0  0  0  0  0  0  0  0  0  0  0  0
   -4.8621   -6.3564   10.1079 C   0  0  0  0  0  0  0  0  0  0  0  0
   -4.8217   -5.4901   11.3501 C   0  0  0  0  0  0  0  0  0  0  0  0
   -2.4326   -4.6138    8.7991 Se  0  0  0  0  0  2  0  0  0  0  0  0
   -0.4070   -2.5774    7.0739 C   0  0  0  0  0  0  0  0  0  0  0  0
    0.2353   -1.4469    6.5168 C   0  0  0  0  0  0  0  0  0  0  0  0
    1.4220   -0.9486    7.0931 C   0  0  0  0  0  0  0  0  0  0  0  0
    2.0750    0.2493    6.6113 C   0  0  0  0  0  0  0  0  0  0  0  0
    3.4172    0.4895    6.5230 C   0  0  0  0  0  0  0  0  0  0  0  0
    3.7905    1.7877    6.1227 C   0  0  0  0  0  0  0  0  0  0  0  0
    2.7540    2.6452    5.8938 C   0  0  0  0  0  0  0  0  0  0  0  0
    2.9562    4.2762    5.2961 S   0  0  0  0  0  0  0  0  0  0  0  0
    1.3723    5.0423    5.7887 C   0  0  0  0  0  0  0  0  0  0  0  0
    1.2823    5.2580    7.2855 C   0  0  0  0  0  0  0  0  0  0  0  0
    1.0926    1.7936    6.1472 Se  0  0  0  0  0  2  0  0  0  0  0  0
    1.9162   -1.6555    8.1852 C   0  0  0  0  0  0  0  0  0  0  0  0
    3.3500   -1.2356    9.0855 S   0  0  0  0  0  0  0  0  0  0  0  0
   -0.4192   -0.9925    5.3478 C   0  0  0  0  0  0  0  0  0  0  0  0
   -1.5346   -1.7082    5.0211 C   0  0  0  0  0  0  0  0  0  0  0  0
   -1.8378   -3.0006    6.1676 S   0  0  0  0  0  0  0  0  0  0  0  0
   -2.3596   -1.5424    3.8775 C   0  0  0  0  0  0  0  0  0  0  0  0
   -3.5391   -2.1899    3.5643 C   0  0  0  0  0  0  0  0  0  0  0  0
   -4.0312   -1.8149    2.3170 C   0  0  0  0  0  0  0  0  0  0  0  0
   -3.2160   -0.8855    1.6735 C   0  0  0  0  0  0  0  0  0  0  0  0
   -1.8515   -0.4385    2.6105 S   0  0  0  0  0  0  0  0  0  0  0  0
   -3.7427   -0.6161    0.3912 C   0  0  0  0  0  0  0  0  0  0  0  0
   -4.9073   -1.3601    0.2103 C   0  0  0  0  0  0  0  0  0  0  0  0
   -5.1981   -2.1704    1.4411 C   0  0  0  0  0  0  0  0  0  0  0  0
   -5.4585   -1.2013   -1.0577 C   0  0  0  0  0  0  0  0  0  0  0  0
   -4.7083   -0.3508   -1.8532 C   0  0  0  0  0  0  0  0  0  0  0  0
   -3.3142    0.2874   -1.0018 S   0  0  0  0  0  0  0  0  0  0  0  0
   -4.9010   -0.0244   -3.2214 C   0  0  0  0  0  0  0  0  0  0  0  0
   -5.9727   -0.3360   -4.0417 C   0  0  0  0  0  0  0  0  0  0  0  0
   -5.7689    0.0763   -5.3550 C   0  0  0  0  0  0  0  0  0  0  0  0
   -4.5369    0.7018   -5.5410 C   0  0  0  0  0  0  0  0  0  0  0  0
   -3.6262    0.8086   -4.0930 S   0  0  0  0  0  0  0  0  0  0  0  0
   -4.3833    1.0275   -6.9059 C   0  0  0  0  0  0  0  0  0  0  0  0
   -5.5196    0.6210   -7.6037 C   0  0  0  0  0  0  0  0  0  0  0  0
   -6.5089   -0.0020   -6.6601 C   0  0  0  0  0  0  0  0  0  0  0  0
   -5.4264    0.8563   -8.9717 C   0  0  0  0  0  0  0  0  0  0  0  0
   -4.2165    1.4322   -9.3246 C   0  0  0  0  0  0  0  0  0  0  0  0
   -3.1883    1.7072   -7.9307 S   0  0  0  0  0  0  0  0  0  0  0  0
   -3.7387    1.7512  -10.6223 C   0  0  0  0  0  0  0  0  0  0  0  0
   -4.4033    1.6460  -11.8332 C   0  0  0  0  0  0  0  0  0  0  0  0
   -3.5945    1.9924  -12.9106 C   0  0  0  0  0  0  0  0  0  0  0  0
   -2.3066    2.3630  -12.5263 C   0  0  0  0  0  0  0  0  0  0  0  0
   -2.0847    2.3005  -10.8271 S   0  0  0  0  0  0  0  0  0  0  0  0
   -1.5465    2.6595  -13.6793 C   0  0  0  0  0  0  0  0  0  0  0  0
   -2.3443    2.4841  -14.8086 C   0  0  0  0  0  0  0  0  0  0  0  0
   -3.7255    2.0545  -14.4053 C   0  0  0  0  0  0  0  0  0  0  0  0
   -1.6622    2.7271  -15.9965 C   0  0  0  0  0  0  0  0  0  0  0  0
   -0.3413    3.0835  -15.7810 C   0  0  0  0  0  0  0  0  0  0  0  0
    0.0562    3.1281  -14.0737 S   0  0  0  0  0  0  0  0  0  0  0  0
    0.6531    3.3746  -16.7527 C   0  0  0  0  0  0  0  0  0  0  0  0
    0.5085    3.4249  -18.1280 C   0  0  0  0  0  0  0  0  0  0  0  0
    1.7066    3.7185  -18.7742 C   0  0  0  0  0  0  0  0  0  0  0  0
    2.7702    3.8927  -17.8942 C   0  0  0  0  0  0  0  0  0  0  0  0
    2.3032    3.7013  -16.2551 S   0  0  0  0  0  0  0  0  0  0  0  0
    3.9436    4.1742  -18.6404 C   0  0  0  0  0  0  0  0  0  0  0  0
    3.6296    4.1812  -19.9922 C   0  0  0  0  0  0  0  0  0  0  0  0
    2.1702    3.8948  -20.1911 C   0  0  0  0  0  0  0  0  0  0  0  0
    4.7443    4.4450  -20.8016 C   0  0  0  0  0  0  0  0  0  0  0  0
    5.8723    4.6304  -20.0581 C   0  0  0  0  0  0  0  0  0  0  0  0
    5.6074    4.4900  -18.3547 S   0  0  0  0  0  0  0  0  0  0  0  0
    7.8319   -5.4686   16.9329 H   0  0  0  0  0  0  0  0  0  0  0  0
    8.8164   -3.3301   15.7926 H   0  0  0  0  0  0  0  0  0  0  0  0
    7.0419   -1.3200   13.8740 H   0  0  0  0  0  0  0  0  0  0  0  0
    7.9653   -2.3387   12.7688 H   0  0  0  0  0  0  0  0  0  0  0  0
    5.4363   -1.2108   11.0030 H   0  0  0  0  0  0  0  0  0  0  0  0
    1.6123   -4.0913   10.4884 H   0  0  0  0  0  0  0  0  0  0  0  0
    1.1093   -5.7687    9.0542 H   0  0  0  0  0  0  0  0  0  0  0  0
   -0.4602   -7.5843    9.9381 H   0  0  0  0  0  0  0  0  0  0  0  0
   -4.8907   -5.7544    9.1941 H   0  0  0  0  0  0  0  0  0  0  0  0
   -5.7180   -7.0305   10.1213 H   0  0  0  0  0  0  0  0  0  0  0  0
   -3.9542   -4.8304   11.3285 H   0  0  0  0  0  0  0  0  0  0  0  0
   -4.7651   -6.1090   12.2425 H   0  0  0  0  0  0  0  0  0  0  0  0
   -5.7191   -4.8774   11.4025 H   0  0  0  0  0  0  0  0  0  0  0  0
    4.1504   -0.2739    6.7204 H   0  0  0  0  0  0  0  0  0  0  0  0
    4.8172    2.0905    6.0106 H   0  0  0  0  0  0  0  0  0  0  0  0
    0.5707    4.3931    5.4226 H   0  0  0  0  0  0  0  0  0  0  0  0
    1.3418    5.9875    5.2476 H   0  0  0  0  0  0  0  0  0  0  0  0
    1.3328    4.3062    7.8139 H   0  0  0  0  0  0  0  0  0  0  0  0
    0.3393    5.7402    7.5338 H   0  0  0  0  0  0  0  0  0  0  0  0
    2.1003    5.8875    7.6276 H   0  0  0  0  0  0  0  0  0  0  0  0
   -0.0631   -0.1871    4.7271 H   0  0  0  0  0  0  0  0  0  0  0  0
   -3.9953   -2.9039    4.2269 H   0  0  0  0  0  0  0  0  0  0  0  0
   -5.2363   -3.2398    1.2247 H   0  0  0  0  0  0  0  0  0  0  0  0
   -6.1484   -1.8886    1.8998 H   0  0  0  0  0  0  0  0  0  0  0  0
   -6.3462   -1.6951   -1.4081 H   0  0  0  0  0  0  0  0  0  0  0  0
   -6.8516   -0.8416   -3.6856 H   0  0  0  0  0  0  0  0  0  0  0  0
   -6.7416   -1.0323   -6.9364 H   0  0  0  0  0  0  0  0  0  0  0  0
   -7.4475    0.5556   -6.6283 H   0  0  0  0  0  0  0  0  0  0  0  0
   -6.1861    0.6089   -9.6904 H   0  0  0  0  0  0  0  0  0  0  0  0
   -5.4268    1.3280  -11.9112 H   0  0  0  0  0  0  0  0  0  0  0  0
   -3.9917    1.0854  -14.8322 H   0  0  0  0  0  0  0  0  0  0  0  0
   -4.4832    2.7765  -14.7172 H   0  0  0  0  0  0  0  0  0  0  0  0
   -2.0914    2.6421  -16.9779 H   0  0  0  0  0  0  0  0  0  0  0  0
   -0.4291    3.2541  -18.6241 H   0  0  0  0  0  0  0  0  0  0  0  0
    2.0078    2.9951  -20.7881 H   0  0  0  0  0  0  0  0  0  0  0  0
    1.6564    4.7213  -20.6865 H   0  0  0  0  0  0  0  0  0  0  0  0
    4.7269    4.4970  -21.8756 H   0  0  0  0  0  0  0  0  0  0  0  0
    6.8628    4.8446  -20.4064 H   0  0  0  0  0  0  0  0  0  0  0  0
  1  2  2  0  0  0  0
  2  3  1  0  0  0  0
  3  4  2  0  0  0  0
  4  5  1  0  0  0  0
  4  6  1  0  0  0  0
  6  7  2  0  0  0  0
  7  8  1  0  0  0  0
  7  9  1  0  0  0  0
  9 10  2  0  0  0  0
 10 11  1  0  0  0  0
 10 12  1  0  0  0  0
 12 13  2  0  0  0  0
 13 14  1  0  0  0  0
 14 15  2  0  0  0  0
 15 16  1  0  0  0  0
 16 17  2  0  0  0  0
 17 18  1  0  0  0  0
 18 19  2  0  0  0  0
 19 20  1  0  0  0  0
 20 21  1  0  0  0  0
 21 22  1  0  0  0  0
 19 23  1  0  0  0  0
 15 24  1  0  0  0  0
 24 25  2  0  0  0  0
 25 26  1  0  0  0  0
 26 27  1  0  0  0  0
 27 28  2  0  0  0  0
 28 29  1  0  0  0  0
 29 30  2  0  0  0  0
 30 31  1  0  0  0  0
 31 32  1  0  0  0  0
 32 33  1  0  0  0  0
 30 34  1  0  0  0  0
 26 35  2  0  0  0  0
 35 36  1  0  0  0  0
 25 37  1  0  0  0  0
 37 38  2  0  0  0  0
 38 39  1  0  0  0  0
 38 40  1  0  0  0  0
 40 41  2  0  0  0  0
 41 42  1  0  0  0  0
 42 43  2  0  0  0  0
 43 44  1  0  0  0  0
 43 45  1  0  0  0  0
 45 46  2  0  0  0  0
 46 47  1  0  0  0  0
 46 48  1  0  0  0  0
 48 49  2  0  0  0  0
 49 50  1  0  0  0  0
 49 51  1  0  0  0  0
 51 52  2  0  0  0  0
 52 53  1  0  0  0  0
 53 54  2  0  0  0  0
 54 55  1  0  0  0  0
 54 56  1  0  0  0  0
 56 57  2  0  0  0  0
 57 58  1  0  0  0  0
 57 59  1  0  0  0  0
 59 60  2  0  0  0  0
 60 61  1  0  0  0  0
 60 62  1  0  0  0  0
 62 63  2  0  0  0  0
 63 64  1  0  0  0  0
 64 65  2  0  0  0  0
 65 66  1  0  0  0  0
 65 67  1  0  0  0  0
 67 68  2  0  0  0  0
 68 69  1  0  0  0  0
 68 70  1  0  0  0  0
 70 71  2  0  0  0  0
 71 72  1  0  0  0  0
 71 73  1  0  0  0  0
 73 74  2  0  0  0  0
 74 75  1  0  0  0  0
 75 76  2  0  0  0  0
 76 77  1  0  0  0  0
 76 78  1  0  0  0  0
 78 79  2  0  0  0  0
 79 80  1  0  0  0  0
 79 81  1  0  0  0  0
 81 82  2  0  0  0  0
 82 83  1  0  0  0  0
  5  1  1  0  0  0  0
 11  6  1  0  0  0  0
 36 12  1  0  0  0  0
 44 40  1  0  0  0  0
 50 45  1  0  0  0  0
 55 51  1  0  0  0  0
 61 56  1  0  0  0  0
 66 62  1  0  0  0  0
 72 67  1  0  0  0  0
 77 73  1  0  0  0  0
 83 78  1  0  0  0  0
  8  3  1  0  0  0  0
 35 14  1  0  0  0  0
 47 42  1  0  0  0  0
 58 53  1  0  0  0  0
 69 64  1  0  0  0  0
 80 75  1  0  0  0  0
 23 16  1  0  0  0  0
 39 24  1  0  0  0  0
 34 27  1  0  0  0  0
  1 84  1  0  0  0  0
  2 85  1  0  0  0  0
  8 86  1  0  0  0  0
  8 87  1  0  0  0  0
  9 88  1  0  0  0  0
 13 89  1  0  0  0  0
 17 90  1  0  0  0  0
 18 91  1  0  0  0  0
 21 92  1  0  0  0  0
 21 93  1  0  0  0  0
 22 94  1  0  0  0  0
 22 95  1  0  0  0  0
 22 96  1  0  0  0  0
 28 97  1  0  0  0  0
 29 98  1  0  0  0  0
 32 99  1  0  0  0  0
 32100  1  0  0  0  0
 33101  1  0  0  0  0
 33102  1  0  0  0  0
 33103  1  0  0  0  0
 37104  1  0  0  0  0
 41105  1  0  0  0  0
 47106  1  0  0  0  0
 47107  1  0  0  0  0
 48108  1  0  0  0  0
 52109  1  0  0  0  0
 58110  1  0  0  0  0
 58111  1  0  0  0  0
 59112  1  0  0  0  0
 63113  1  0  0  0  0
 69114  1  0  0  0  0
 69115  1  0  0  0  0
 70116  1  0  0  0  0
 74117  1  0  0  0  0
 80118  1  0  0  0  0
 80119  1  0  0  0  0
 81120  1  0  0  0  0
 82121  1  0  0  0  0
M  END
