278

C          4.31330        1.14080       14.88590
C          5.34300        1.27030       14.02630
C          4.98860        0.96750       12.67800
C          5.80690        0.99740       11.52960
C          7.23110        1.22210       11.61350
C          8.08730        0.79440       12.59240
C          9.43670        1.16540       12.44740
C          9.71600        1.91160       11.33670
S         11.32800        2.45330       10.92680
C         11.06380        3.29700        9.32810
C         10.52230        4.70240        9.49730
Se         8.16720        2.20990       10.30810
C          5.15400        0.80240       10.31510
C          3.77590        0.50910       10.19600
C          2.98340        0.36640       11.35410
C          1.59780       -0.02950       11.27110
C          1.03960       -0.91830       10.39180
C         -0.35340       -1.09320       10.48410
C         -0.96770       -0.34300       11.44710
S         -2.68140       -0.43910       11.78730
C         -2.91310        0.92990       12.97350
C         -2.91130        2.28580       12.29690
Se         0.27870        0.69480       12.40740
C          3.61920        0.64120       12.56400
S          2.84360        0.63670       14.12590
C          3.36730        0.43900        8.83910
C          4.38130        0.62940        7.95060
S          5.91740        0.89780        8.75180
C          4.32780        0.65380        6.52810
C          5.35740        0.90070        5.67200
C          4.98410        0.88730        4.30620
C          5.82250        1.07980        3.18890
C          7.21240        1.44400        3.34330
C          7.74730        2.31460        4.25350
C          9.14370        2.48090        4.20330
C          9.78070        1.73420        3.25220
S         11.51850        1.69920        3.06390
C         11.70200        0.88370        1.44020
C         11.32990        1.79810        0.29110
Se         8.55960        0.69410        2.26070
C          5.22420        0.92220        1.94310
C          3.85370        0.62460        1.76900
C          3.01360        0.41170        2.88390
C          1.64730       -0.04680        2.75120
C          0.60360        0.15530        3.61250
C         -0.57910       -0.56790        3.35320
C         -0.50390       -1.41170        2.28510
S         -1.68180       -2.54500        1.67380
C         -2.97700       -2.50660        2.96570
C         -4.01300       -3.57150        2.66350
Se         1.14550       -1.29380        1.41330
C          3.61320        0.57730        4.13230
S          2.82190        0.37500        5.67740
C          3.49650        0.62730        0.39790
C          4.53660        0.87630       -0.44480
S          6.03630        1.12400        0.41310
C          4.41880        0.96380       -1.87060
C          3.35290        1.49920       -2.52340
C          3.38670        1.30730       -3.92670
C          2.39570        1.68610       -4.85560
C          1.27020        2.50760       -4.46130
C         -0.04490        2.34930       -4.80380
C         -0.93840        3.29970       -4.27830
C         -0.36190        4.27420       -3.51170
S         -1.28400        5.55430       -2.74910
C          0.01790        6.68840       -2.14960
C          0.58510        6.26400       -0.80980
Se         1.48770        4.02290       -3.36750
C          2.52720        1.14590       -6.13080
C          3.60920        0.31550       -6.51250
C          4.66800        0.05140       -5.61750
C          5.79690       -0.76830       -6.00410
C          6.40960       -1.74810       -5.27550
C          7.48290       -2.40850       -5.90520
C          7.78460       -1.96120       -7.15970
S          9.11630       -2.58170       -8.11330
C          8.72700       -1.92700       -9.77370
C          7.57050       -2.65520      -10.42730
Se         6.64960       -0.54820       -7.67240
C          4.50940        0.54380       -4.32540
S          5.56460        0.22560       -2.96940
C          3.36980       -0.32170       -7.75560
C          2.16770       -0.00150       -8.31770
S          1.33180        1.23890       -7.39950
C          1.39970       -0.82400       -9.20320
C          1.56380       -2.17930       -9.28370
C          0.38340       -2.88160       -9.61720
C          0.12360       -4.25250       -9.37330
C          1.12560       -5.26910       -9.17340
C          0.94430       -6.60870       -9.40850
C          2.01570       -7.45990       -9.08590
C          3.10830       -6.84060       -8.54790
S          4.54650       -7.68380       -8.02440
C          5.55340       -6.34070       -7.29710
C          6.31370       -5.54830       -8.34090
Se         2.84620       -4.98630       -8.45070
C         -1.22230       -4.54130       -9.14330
C         -2.28460       -3.63830       -9.38760
C         -2.02200       -2.37520       -9.97360
C         -3.00550       -1.45370      -10.47570
C         -2.75140       -0.52620      -11.45710
C         -3.81850        0.30080      -11.83580
C         -4.98790        0.09070      -11.15860
S         -6.42320        1.04440      -11.42540
C         -7.63850        0.24880      -10.32060
C         -8.21040       -1.02670      -10.90290
Se        -4.80250       -1.30260       -9.91460
C         -0.67660       -1.99830       -9.92370
S         -0.15020       -0.32930       -9.84040
C         -3.45510       -4.00720       -8.68270
C         -3.28370       -5.08200       -7.85210
S         -1.75470       -5.88290       -8.15220
C         -3.93690       -5.20790       -6.58320
C         -5.08100       -4.58780       -6.16980
C         -5.09630       -4.29630       -4.78070
C         -6.01540       -3.49620       -4.08030
C         -7.25060       -2.98240       -4.68570
C         -8.46860       -3.14390       -4.03320
C         -9.64420       -2.65400       -4.56960
C         -9.64110       -1.97860       -5.78410
S        -11.04440       -1.29140       -6.59670
C        -12.46050       -1.76560       -5.54890
C        -12.86550       -3.21530       -5.74040
C         -8.40800       -1.80570       -6.41460
F         -8.36430       -1.13260       -7.58520
C         -7.22990       -2.28530       -5.89220
C         -5.64770       -3.10850       -2.80030
C         -4.43830       -3.51230       -2.19000
C         -3.60170       -4.45130       -2.81820
C         -2.43610       -4.98660       -2.10650
C         -1.17560       -5.09570       -2.68960
C         -0.12050       -5.63420       -1.98420
C         -0.27310       -6.09130       -0.67700
S          1.12440       -6.87370        0.07650
C          1.12720       -6.22670        1.78870
C          1.31080       -4.72430        1.80910
C         -1.53530       -5.97150       -0.10410
C         -2.59590       -5.42160       -0.79230
F         -1.77580       -6.40880        1.15330
C         -3.93380       -4.78230       -4.12320
S         -2.92370       -5.67980       -5.22470
C         -4.13610       -2.73080       -1.04540
C         -5.08500       -1.80150       -0.75540
S         -6.46260       -1.89260       -1.84480
C         -4.98620       -0.71710        0.17600
C         -5.97500       -0.05680        0.83320
C         -5.51800        1.08060        1.55280
C         -6.27120        1.96010        2.34380
C         -7.72080        1.80180        2.51140
C         -8.29740        1.80260        3.77730
C         -9.66180        1.66180        3.94420
C        -10.50090        1.51380        2.84620
S        -12.25310        1.34390        2.90180
C        -12.62950        1.08560        4.66930
C        -12.22640       -0.29550        5.15100
C         -9.90930        1.52740        1.58100
F        -10.69530        1.40050        0.49220
C         -8.55250        1.66690        1.40070
C         -5.58030        3.00850        2.93530
C         -4.19450        3.23090        2.75160
C         -3.43140        2.33440        1.98440
C         -1.99380        2.54770        1.77430
C         -1.15440        2.88750        2.83320
C          0.17940        3.18270        2.62890
C          0.73000        3.13440        1.35460
S          2.39230        3.57130        0.95400
C          2.86810        4.72040        2.29370
C          3.61240        4.03990        3.42600
C         -0.10290        2.72220        0.31510
C         -1.43800        2.44720        0.49940
F          0.41100        2.62540       -0.93120
C         -4.12170        1.27660        1.40480
S         -3.41470        0.02530        0.41830
C         -3.77970        4.45090        3.36720
C         -4.78270        5.09200        3.99920
S         -6.30350        4.27440        3.89560
H          4.30860        1.31200       15.94440
H          6.31930        1.60700       14.32230
H          7.76130        0.15930       13.39890
H         10.19970        0.87400       13.14840
H         10.38760        2.66900        8.74030
H         12.04540        3.30690        8.85500
H         10.40600        5.17210        8.52300
H         11.20270        5.30150       10.09770
H          9.54910        4.68330        9.98960
H          1.63600       -1.48770        9.69880
H         -0.89960       -1.76970        9.84950
H         -2.11690        0.84740       13.71980
H         -3.87230        0.72520       13.44800
H         -3.69910        2.33820       11.54900
H         -1.95420        2.46890       11.80770
H         -3.07440        3.06680       13.03640
H          2.34940        0.29680        8.52390
H          6.36330        1.05540        6.01710
H          7.13280        2.88550        4.92980
H          9.67620        3.14940        4.85760
H         12.75130        0.59380        1.39410
H         11.08030       -0.01710        1.46060
H         11.47790        1.28010       -0.65380
H         10.28320        2.09560        0.35880
H         11.94730        2.69330        0.30290
H          0.65530        0.84600        4.43610
H         -1.45480       -0.46220        3.96960
H         -3.41990       -1.50970        2.96490
H         -2.48190       -2.69550        3.91810
H         -3.54090       -4.54890        2.59220
H         -4.51810       -3.35760        1.72420
H         -4.75450       -3.59840        3.45900
H          2.49540        0.48120        0.03030
H          2.54850        1.98140       -1.99840
H         -0.38860        1.52400       -5.40380
H         -1.99820        3.27020       -4.46450
H         -0.47270        7.65940       -2.08090
H          0.79160        6.72840       -2.92050
H          1.08380        5.29900       -0.89570
H         -0.20870        6.18310       -0.06970
H          1.31330        6.99720       -0.46850
H          6.06060       -2.04090       -4.30010
H          8.02430       -3.21440       -5.44000
H          9.64780       -2.05430      -10.34180
H          8.52110       -0.85830       -9.65860
H          7.39280       -2.24710      -11.41980
H          7.79090       -3.71610      -10.51640
H          6.66060       -2.53690       -9.83870
H          4.01460       -1.07840       -8.16890
H          2.47030       -2.65000       -8.94270
H          0.03930       -6.99100       -9.85050
H          1.97900       -8.52450       -9.23890
H          6.23610       -6.84830       -6.61620
H          4.87770       -5.70430       -6.71840
H          6.90990       -4.77920       -7.85410
H          6.97480       -6.20130       -8.90580
H          5.62420       -5.06600       -9.03560
H         -1.79460       -0.46420      -11.94770
H         -3.73160        1.05110      -12.60240
H         -7.13960        0.06810       -9.36590
H         -8.41670        0.99710      -10.17640
H         -8.70530       -0.82780      -11.85050
H         -7.42390       -1.76420      -11.06780
H         -8.93220       -1.44280      -10.20460
H         -4.33880       -3.39130       -8.63300
H         -5.85350       -4.27940       -6.84930
H         -8.50060       -3.67390       -3.09320
H        -10.56210       -2.80100       -4.02500
H        -13.25670       -1.09710       -5.87700
H        -12.21570       -1.52990       -4.51420
H        -13.13720       -3.39450       -6.77800
H        -13.72370       -3.44480       -5.11160
H        -12.05270       -3.88970       -5.47980
H         -6.30510       -2.08290       -6.41060
H         -1.01050       -4.73360       -3.69170
H          0.85300       -5.71580       -2.44180
H          1.97160       -6.73710        2.25220
H          0.21040       -6.53420        2.28600
H          2.23710       -4.44270        1.31110
H          0.48180       -4.23440        1.29830
H          1.34440       -4.36610        2.83700
H         -3.55830       -5.37320       -0.30650
H         -3.21130       -2.81340       -0.50250
H         -7.00000       -0.37980        0.81240
H         -7.66940        1.89950        4.64980
H        -10.06430        1.67430        4.94360
H        -13.71120        1.21110        4.71920
H        -12.16230        1.88350        5.24500
H        -12.49570       -0.41540        6.19870
H        -12.73940       -1.05860        4.57050
H        -11.15460       -0.45030        5.04720
H         -8.15490        1.69490        0.39830
H         -1.54810        2.90830        3.83830
H          0.79250        3.45350        3.47310
H          1.96250        5.22130        2.63240
H          3.51170        5.44910        1.80050
H          3.88170        4.77370        4.18370
H          4.52290        3.57620        3.05370
H          3.00710        3.26560        3.89170
H         -2.03780        2.19690       -0.36070
H         -2.77760        4.83420        3.30740
H         -4.73700        6.02000        4.53500
