290

C          0.61420      -10.41100       10.24190
C          1.38620       -9.33220       10.00160
C          1.57760       -9.08190        8.60950
C          2.28550       -8.02880        8.00800
C          3.00550       -7.02880        8.80680
C          3.91740       -7.40890        9.78650
C          4.59650       -6.46740       10.53630
C          4.38790       -5.10840       10.33110
S          5.15280       -3.80090       11.23030
C          6.51300       -4.61070       12.13980
C          7.64690       -5.03380       11.22530
C          3.46920       -4.74240        9.34510
F          3.23270       -3.43370        9.12610
C          2.78910       -5.66960        8.58950
C          2.26380       -7.97570        6.62170
C          1.57370       -8.92710        5.83380
C          0.84990       -9.96990        6.43210
C          0.10760      -10.90940        5.58300
C          0.28570      -12.28760        5.67610
C         -0.32260      -13.13260        4.77230
C         -1.14810      -12.64680        3.75840
S         -1.83100      -13.83360        2.64200
C         -1.94380      -12.96260        1.03350
C         -0.61680      -12.39150        0.57580
C         -1.38500      -11.27580        3.73390
C         -0.75910      -10.41580        4.61150
F         -2.23280      -10.72770        2.83090
C          0.88690      -10.03110        7.81570
S          0.05980      -11.20400        8.80660
C          1.74390       -8.68890        4.45000
C          2.50400       -7.59500        4.16630
S          3.08140       -6.79860        5.61740
C          2.74690       -7.09510        2.85390
C          3.46950       -6.02200        2.42840
C          3.38350       -5.79750        1.02880
C          3.96060       -4.75780        0.26670
C          4.58370       -3.61470        0.89640
C          4.15410       -2.99300        2.03920
C          4.85700       -1.83470        2.41860
C          5.88440       -1.48400        1.58890
S          6.80550       -0.00810        1.77160
C          8.32620       -0.41030        0.84420
C          9.17640       -1.43670        1.56310
Se         6.03790       -2.68500        0.13960
C          3.74790       -4.81870       -1.10860
C          2.90690       -5.76880       -1.73770
C          2.29150       -6.78240       -0.97290
C          1.34820       -7.71360       -1.54730
C          1.34740       -8.26820       -2.79870
C          0.22670       -9.05130       -3.13390
C         -0.72200       -9.15120       -2.15400
S         -2.18400      -10.09830       -2.31960
C         -3.07100       -9.74070       -0.76150
C         -3.74790       -8.38570       -0.76600
Se        -0.20830       -8.21860       -0.60310
C          2.57710       -6.76660        0.38920
S          1.94260       -7.91520        1.52810
C          2.65860       -5.43670       -3.09150
C          3.28730       -4.29950       -3.50630
S          4.30030       -3.62480       -2.25310
C          2.98090       -3.54550       -4.67840
C          2.18200       -3.92980       -5.71480
C          1.71530       -2.84210       -6.49430
C          0.65680       -2.87440       -7.41500
C          0.04200       -4.15850       -7.78740
C         -1.28390       -4.43350       -7.45770
C         -1.84170       -5.65870       -7.75480
C         -1.10180       -6.65570       -8.38730
S         -1.89950       -8.21230       -8.65850
C         -1.35810       -8.68900      -10.34140
C         -1.72950       -7.64270      -11.37270
C          0.22610       -6.37350       -8.69310
F          1.01720       -7.30520       -9.27070
C          0.79510       -5.14790       -8.40810
C          0.11350       -1.65480       -7.77000
C          0.58650       -0.40400       -7.29010
C          1.68390       -0.37120       -6.41210
C          2.13200        0.82230       -5.68000
C          1.22560        1.62200       -4.99090
C          1.65200        2.62510       -4.14190
C          3.00600        2.86680       -3.94950
S          3.69540        4.07080       -2.86070
C          2.25660        4.92150       -2.12840
C          1.62470        4.14070       -0.99150
C          3.90430        2.08030       -4.67160
C          3.49370        1.07720       -5.51930
F          5.22940        2.29780       -4.51740
C          2.21610       -1.60030       -6.03750
S          3.33120       -1.82900       -4.71560
C         -0.33100        0.64470       -7.58210
C         -1.49040        0.20500       -8.15240
S         -1.39330       -1.48160       -8.63240
C         -2.79970        0.72780       -7.85390
C         -3.67350       -0.06620       -7.17270
C         -4.58110        0.65070       -6.35800
C         -5.23270        0.10630       -5.23720
C         -5.07910       -1.33700       -4.98720
C         -5.47880       -2.27900       -5.93550
C         -5.15340       -3.60860       -5.78500
C         -4.42170       -4.06770       -4.68610
S         -4.07540       -5.80120       -4.68030
C         -2.68230       -6.09540       -3.53410
C         -1.37490       -5.49500       -4.00900
C         -4.08410       -3.12520       -3.72060
F         -3.41770       -3.47740       -2.59720
C         -4.38860       -1.78510       -3.86800
C         -5.72730        1.02230       -4.32710
C         -5.74640        2.41810       -4.57640
C         -5.15740        2.95270       -5.73960
C         -5.18460        4.40070       -5.97130
C         -6.39140        5.08940       -5.86460
C         -6.46440        6.45220       -6.07630
C         -5.32620        7.18350       -6.39830
S         -5.25530        8.92220       -6.66500
C         -7.00220        9.45090       -6.71260
C         -7.69490        9.04670       -8.00020
C         -4.12190        6.48230       -6.49040
C         -4.03660        5.12380       -6.28860
F         -2.99250        7.16140       -6.77630
C         -4.47890        2.04880       -6.54850
S         -3.22820        2.41910       -7.72640
C         -6.03930        3.15770       -3.39590
C         -6.13860        2.38010       -2.28130
S         -6.14790        0.66800       -2.66770
C         -5.67740        2.79990       -0.98020
C         -4.54180        2.24500       -0.46970
C         -3.84900        3.09380        0.42580
C         -2.50200        2.98620        0.80760
C         -1.60820        1.96780        0.24460
C         -0.65180        1.31540        1.01830
C          0.27080        0.46120        0.44600
C          0.26800        0.21540       -0.92350
S          1.43920       -0.79350       -1.76930
C          2.90680       -0.70570       -0.68870
C          3.44920        0.69970       -0.54240
C         -0.73610        0.82430       -1.67550
F         -0.82310        0.57220       -2.99990
C         -1.64010        1.70270       -1.12500
C         -2.00190        4.02270        1.57930
C         -2.77940        5.13320        1.99080
C         -4.11430        5.25870        1.56330
C         -4.91520        6.42460        1.95430
C         -4.43330        7.72630        1.81710
C         -5.14350        8.79340        2.32070
C         -6.36880        8.61420        2.96190
S         -7.15190       10.06500        3.60120
C         -7.99880        9.50490        5.12520
C         -7.04150        8.88340        6.12220
C         -6.88030        7.32080        3.00720
C         -6.16750        6.23910        2.52960
F         -8.09610        7.07170        3.54210
C         -4.60210        4.24910        0.74640
S         -6.07970        4.31250       -0.19670
C         -1.99860        6.08040        2.70390
C         -0.67390        5.76750        2.75340
S         -0.32720        4.21260        2.02500
C          0.40250        6.57760        3.21240
C          1.73490        6.36380        3.03410
C          2.54980        7.40960        3.53320
C          3.95520        7.50110        3.47510
C          4.71710        6.61130        2.62950
C          4.33440        6.18140        1.38500
C          5.22780        5.32570        0.71270
C          6.36310        5.03020        1.41190
S          7.72140        4.03290        0.95320
C          7.45870        3.76850       -0.83970
C          6.52990        2.60820       -1.12980
Se         6.41180        5.89730        3.07770
C          4.51990        8.52450        4.23440
C          3.76130        9.51470        4.90020
C          2.35290        9.54100        4.77410
C          1.56160       10.66550        5.21340
C          1.95360       11.97930        5.27080
C          0.96770       12.91090        5.64350
C         -0.26690       12.38210        5.88640
S         -1.66810       13.31990        6.35820
C         -2.96680       12.58170        5.29010
C         -3.67200       11.40820        5.93780
Se        -0.25300       10.50690        5.69720
C          1.78880        8.42950        4.14900
S          0.08130        8.10930        4.00200
C          4.60050       10.38440        5.65660
C          5.91210       10.09460        5.53240
S          6.22760        8.75880        4.48120
H          0.32060      -10.81210       11.19220
H          1.79970       -8.71090       10.77510
H          4.11420       -8.45760        9.95250
H          5.28900       -6.80620       11.28970
H          6.10470       -5.44170       12.71340
H          6.84470       -3.84050       12.83610
H          7.30730       -5.75860       10.48860
H          8.04310       -4.17000       10.69690
H          8.44770       -5.48120       11.81110
H          2.08230       -5.32740        7.85040
H          0.93770      -12.69310        6.43410
H         -0.15490      -14.19720        4.82390
H         -2.28150      -13.74860        0.35780
H         -2.71710      -12.20080        1.10270
H         -0.71600      -12.01130       -0.43960
H         -0.29430      -11.57330        1.21760
H          0.15350      -13.15970        0.58380
H         -0.97040       -9.35970        4.54090
H          1.32660       -9.31510        3.68220
H          4.06030       -5.42380        3.09850
H          3.29810       -3.34140        2.59260
H          4.60580       -1.25910        3.29270
H          8.01780       -0.76210       -0.14620
H          8.84850        0.54130        0.74750
H          8.63270       -2.37530        1.67330
H          9.45170       -1.07610        2.55130
H         10.08310       -1.62880        0.99350
H          2.17780       -8.15490       -3.47560
H          0.11860       -9.53660       -4.08860
H         -3.80250      -10.54410       -0.68010
H         -2.34660       -9.82520        0.05360
H         -4.31760       -8.26310        0.15250
H         -3.00760       -7.58700       -0.81890
H         -4.42330       -8.29600       -1.61380
H          1.96050       -5.96570       -3.71190
H          1.85940       -4.94260       -5.87280
H         -1.87510       -3.68960       -6.94620
H         -2.86410       -5.87310       -7.48520
H         -0.28870       -8.88780      -10.32820
H         -1.89050       -9.62330      -10.51890
H         -1.46380       -7.99710      -12.36660
H         -2.79880       -7.44310      -11.34610
H         -1.19990       -6.70980      -11.18750
H          1.82900       -4.97790       -8.66730
H          0.17010        1.41970       -5.06820
H          0.91040        3.20270       -3.61440
H          1.55010        5.14280       -2.92700
H          2.67150        5.86200       -1.76440
H          1.26480        3.17020       -1.32560
H          0.78170        4.69660       -0.58600
H          2.34670        3.98110       -0.19380
H          4.23790        0.50130       -6.04660
H         -0.19300        1.66230       -7.26540
H         -3.56370       -1.13350       -7.11930
H         -6.03390       -1.95770       -6.80380
H         -5.44850       -4.32860       -6.53280
H         -2.95970       -5.73590       -2.54620
H         -2.61850       -7.18420       -3.51680
H         -1.42940       -4.40960       -4.05470
H         -1.11620       -5.87260       -4.99630
H         -0.58520       -5.76500       -3.30920
H         -4.04790       -1.09940       -3.10860
H         -7.29250        4.54450       -5.62560
H         -7.42010        6.94080       -5.98010
H         -6.94020       10.53620       -6.63200
H         -7.50570        9.06720       -5.82640
H         -8.72210        9.40590       -7.99550
H         -7.70460        7.96550       -8.11930
H         -7.17940        9.47950       -8.85410
H         -3.07210        4.64770       -6.35640
H         -5.99640        4.23170       -3.34930
H         -4.16390        1.29470       -0.79870
H         -0.63150        1.47040        2.08580
H          0.99840       -0.02190        1.07800
H          2.66690       -1.16240        0.27120
H          3.62900       -1.33760       -1.20480
H          4.35130        0.67340        0.06550
H          2.72640        1.35390       -0.05910
H          3.69590        1.10890       -1.51930
H         -2.33870        2.20430       -1.77660
H         -3.49650        7.89990        1.31050
H         -4.75430        9.79650        2.23680
H         -8.43130       10.42540        5.51780
H         -8.80250        8.82460        4.85280
H         -7.58120        8.62600        7.03120
H         -6.59540        7.97540        5.72130
H         -6.24310        9.57790        6.37490
H         -6.59460        5.25300        2.62790
H         -2.39160        6.98180        3.13780
H          2.12400        5.46780        2.58490
H          3.42110        6.51850        0.92250
H          5.02090        4.95320       -0.27560
H          7.08910        4.70420       -1.25560
H          8.45810        3.57720       -1.23010
H          6.40320        2.50460       -2.20470
H          5.55490        2.77160       -0.68040
H          6.93860        1.68380       -0.73060
H          2.93530       12.29830        4.96530
H          1.15680       13.96930        5.69700
H         -3.66250       13.39790        5.09850
H         -2.47960       12.29360        4.35810
H         -4.44690       11.03730        5.26890
H         -4.12760       11.71040        6.87800
H         -2.96790       10.59740        6.13710
H          4.22840       11.15580        6.30500
H          6.74150       10.58430        6.00330
