
  xtb     03072214523D
 energy: -244.622729152236 gnorm: 0.000554937049 xtb: 6.4.1 (unknown)
121135  0     0  0            999 V2000
    6.6097   -1.6381    4.0784 C   0  0  0  0  0  0  0  0  0  0  0  0
    6.6051   -1.0505    2.8700 O   0  0  0  0  0  0  0  0  0  0  0  0
    7.8933   -1.7485    4.5269 C   0  0  0  0  0  0  0  0  0  0  0  0
    8.7590   -2.2128    5.6261 C   0  0  0  0  0  0  0  0  0  0  0  0
    8.5047   -2.7511    6.6667 O   0  0  0  0  0  0  0  0  0  0  0  0
   10.0427   -1.8820    5.1899 N   0  0  0  0  0  0  0  0  0  0  0  0
   10.1183   -1.2619    3.9452 C   0  0  0  0  0  0  0  0  0  0  0  0
   11.1306   -0.9008    3.4065 O   0  0  0  0  0  0  0  0  0  0  0  0
    8.7172   -1.1809    3.5182 C   0  0  0  0  0  0  0  0  0  0  0  0
    7.8828   -0.7592    2.5026 C   0  0  0  0  0  0  0  0  0  0  0  0
    8.2750   -0.0984    1.3008 C   0  0  0  0  0  0  0  0  0  0  0  0
    7.5573    0.3043    0.2275 C   0  0  0  0  0  0  0  0  0  0  0  0
    6.1768    0.1277   -0.0718 C   0  0  0  0  0  0  0  0  0  0  0  0
    5.3251   -0.6112    0.6775 O   0  0  0  0  0  0  0  0  0  0  0  0
    5.4740    0.6260   -1.1548 C   0  0  0  0  0  0  0  0  0  0  0  0
    5.5746    1.4649   -2.3505 C   0  0  0  0  0  0  0  0  0  0  0  0
    6.4982    2.0589   -2.8368 O   0  0  0  0  0  0  0  0  0  0  0  0
    4.2742    1.4444   -2.8703 N   0  0  0  0  0  0  0  0  0  0  0  0
    3.3614    0.6929   -2.1483 C   0  0  0  0  0  0  0  0  0  0  0  0
    2.1963    0.5601   -2.4451 O   0  0  0  0  0  0  0  0  0  0  0  0
    4.1420    0.1580   -1.0354 C   0  0  0  0  0  0  0  0  0  0  0  0
    4.0907   -0.6092    0.1127 C   0  0  0  0  0  0  0  0  0  0  0  0
    3.0184   -1.3110    0.7268 C   0  0  0  0  0  0  0  0  0  0  0  0
    3.1462   -1.8876    1.9413 C   0  0  0  0  0  0  0  0  0  0  0  0
    2.1051   -2.5653    2.6307 C   0  0  0  0  0  0  0  0  0  0  0  0
    0.9554   -2.9535    2.0210 O   0  0  0  0  0  0  0  0  0  0  0  0
    2.0102   -2.8781    3.9718 C   0  0  0  0  0  0  0  0  0  0  0  0
    2.7177   -2.8314    5.2534 C   0  0  0  0  0  0  0  0  0  0  0  0
    3.8220   -2.4310    5.5246 O   0  0  0  0  0  0  0  0  0  0  0  0
    1.8105   -3.3771    6.1503 N   0  0  0  0  0  0  0  0  0  0  0  0
    0.5878   -3.7745    5.6004 C   0  0  0  0  0  0  0  0  0  0  0  0
   -0.3206   -4.2607    6.2171 O   0  0  0  0  0  0  0  0  0  0  0  0
    0.7289   -3.4452    4.1767 C   0  0  0  0  0  0  0  0  0  0  0  0
    0.1144   -3.4917    2.9414 C   0  0  0  0  0  0  0  0  0  0  0  0
   -1.1612   -4.0044    2.5574 C   0  0  0  0  0  0  0  0  0  0  0  0
   -1.4380   -4.4573    1.3187 C   0  0  0  0  0  0  0  0  0  0  0  0
   -2.7345   -4.8990    0.9189 C   0  0  0  0  0  0  0  0  0  0  0  0
   -3.8362   -4.4966    1.6106 O   0  0  0  0  0  0  0  0  0  0  0  0
   -3.1562   -5.6420   -0.1597 C   0  0  0  0  0  0  0  0  0  0  0  0
   -2.7154   -6.3442   -1.3697 C   0  0  0  0  0  0  0  0  0  0  0  0
   -1.6167   -6.5191   -1.8274 O   0  0  0  0  0  0  0  0  0  0  0  0
   -3.9043   -6.7741   -1.9518 N   0  0  0  0  0  0  0  0  0  0  0  0
   -5.0723   -6.4154   -1.2769 C   0  0  0  0  0  0  0  0  0  0  0  0
   -6.1863   -6.6872   -1.6334 O   0  0  0  0  0  0  0  0  0  0  0  0
   -4.5777   -5.6716   -0.1122 C   0  0  0  0  0  0  0  0  0  0  0  0
   -4.9526   -4.9104    0.9666 C   0  0  0  0  0  0  0  0  0  0  0  0
   -6.2512   -4.3813    1.3701 C   0  0  0  0  0  0  0  0  0  0  0  0
   -6.6095   -3.1065    1.1500 C   0  0  0  0  0  0  0  0  0  0  0  0
   -5.8409   -2.1063    0.4643 C   0  0  0  0  0  0  0  0  0  0  0  0
   -6.2180   -0.8201    0.1944 C   0  0  0  0  0  0  0  0  0  0  0  0
   -5.2671   -0.0758   -0.5522 C   0  0  0  0  0  0  0  0  0  0  0  0
   -5.3213    1.2726   -0.9682 C   0  0  0  0  0  0  0  0  0  0  0  0
   -6.4213    2.1543   -0.6476 C   0  0  0  0  0  0  0  0  0  0  0  0
   -6.9511    3.1321   -1.4450 C   0  0  0  0  0  0  0  0  0  0  0  0
   -7.9610    3.9250   -0.8703 C   0  0  0  0  0  0  0  0  0  0  0  0
   -8.2685    3.6267    0.4261 C   0  0  0  0  0  0  0  0  0  0  0  0
   -9.5531    4.3987    1.3224 S   0  0  0  0  0  0  0  0  0  0  0  0
   -9.0519    4.0489    3.0446 C   0  0  0  0  0  0  0  0  0  0  0  0
   -7.8373    4.8536    3.4596 C   0  0  0  0  0  0  0  0  0  0  0  0
   -7.2477    2.1719    1.0500 Se  0  0  0  0  0  2  0  0  0  0  0  0
   -4.2226    1.7363   -1.6950 C   0  0  0  0  0  0  0  0  0  0  0  0
   -3.0883    0.9389   -1.9986 C   0  0  0  0  0  0  0  0  0  0  0  0
   -3.0305   -0.4088   -1.5873 C   0  0  0  0  0  0  0  0  0  0  0  0
   -1.8894   -1.2735   -1.8077 C   0  0  0  0  0  0  0  0  0  0  0  0
   -1.9342   -2.6223   -2.0508 C   0  0  0  0  0  0  0  0  0  0  0  0
   -0.6891   -3.2709   -2.1428 C   0  0  0  0  0  0  0  0  0  0  0  0
    0.3932   -2.4570   -1.9906 C   0  0  0  0  0  0  0  0  0  0  0  0
    2.0729   -2.9697   -2.0960 S   0  0  0  0  0  0  0  0  0  0  0  0
    2.4177   -2.4296   -3.8133 C   0  0  0  0  0  0  0  0  0  0  0  0
    1.7254   -3.3113   -4.8312 C   0  0  0  0  0  0  0  0  0  0  0  0
   -0.1114   -0.6744   -1.6827 Se  0  0  0  0  0  2  0  0  0  0  0  0
   -4.1411   -0.8669   -0.8860 C   0  0  0  0  0  0  0  0  0  0  0  0
   -4.2811   -2.4652   -0.2361 S   0  0  0  0  0  0  0  0  0  0  0  0
   -2.1095    1.6673   -2.7105 C   0  0  0  0  0  0  0  0  0  0  0  0
   -2.4539    2.9730   -2.9172 C   0  0  0  0  0  0  0  0  0  0  0  0
   -4.0233    3.3727   -2.2737 S   0  0  0  0  0  0  0  0  0  0  0  0
   -1.6613    3.9520   -3.5795 C   0  0  0  0  0  0  0  0  0  0  0  0
   -0.4203    3.6097   -4.0109 O   0  0  0  0  0  0  0  0  0  0  0  0
   -1.8858    5.2727   -3.8937 C   0  0  0  0  0  0  0  0  0  0  0  0
   -2.8555    6.3658   -3.8198 C   0  0  0  0  0  0  0  0  0  0  0  0
   -3.9652    6.4143   -3.3578 O   0  0  0  0  0  0  0  0  0  0  0  0
   -2.1950    7.4279   -4.4395 N   0  0  0  0  0  0  0  0  0  0  0  0
   -0.9119    7.1497   -4.9063 C   0  0  0  0  0  0  0  0  0  0  0  0
   -0.1920    7.9347   -5.4646 O   0  0  0  0  0  0  0  0  0  0  0  0
   -0.7137    5.7404   -4.5487 C   0  0  0  0  0  0  0  0  0  0  0  0
    0.1664    4.6856   -4.5991 C   0  0  0  0  0  0  0  0  0  0  0  0
    1.4941    4.5857   -5.1377 C   0  0  0  0  0  0  0  0  0  0  0  0
    2.2265    3.4745   -5.0826 C   0  0  0  0  0  0  0  0  0  0  0  0
    5.6663   -1.9110    4.5165 H   0  0  0  0  0  0  0  0  0  0  0  0
   10.8643   -2.0790    5.7441 H   0  0  0  0  0  0  0  0  0  0  0  0
    9.3374    0.1078    1.2920 H   0  0  0  0  0  0  0  0  0  0  0  0
    8.0800    0.8406   -0.5528 H   0  0  0  0  0  0  0  0  0  0  0  0
    4.0174    1.9605   -3.7008 H   0  0  0  0  0  0  0  0  0  0  0  0
    2.0868   -1.3377    0.1809 H   0  0  0  0  0  0  0  0  0  0  0  0
    4.0760   -1.7978    2.4842 H   0  0  0  0  0  0  0  0  0  0  0  0
    2.0191   -3.4845    7.1332 H   0  0  0  0  0  0  0  0  0  0  0  0
   -1.9002   -4.0560    3.3442 H   0  0  0  0  0  0  0  0  0  0  0  0
   -0.6720   -4.5053    0.5577 H   0  0  0  0  0  0  0  0  0  0  0  0
   -3.9231   -7.3003   -2.8142 H   0  0  0  0  0  0  0  0  0  0  0  0
   -6.9477   -5.0763    1.8145 H   0  0  0  0  0  0  0  0  0  0  0  0
   -7.5901   -2.7805    1.4702 H   0  0  0  0  0  0  0  0  0  0  0  0
   -7.1716   -0.4294    0.5089 H   0  0  0  0  0  0  0  0  0  0  0  0
   -6.6391    3.2750   -2.4652 H   0  0  0  0  0  0  0  0  0  0  0  0
   -8.4507    4.7199   -1.4049 H   0  0  0  0  0  0  0  0  0  0  0  0
   -9.9240    4.3059    3.6446 H   0  0  0  0  0  0  0  0  0  0  0  0
   -8.8706    2.9715    3.1170 H   0  0  0  0  0  0  0  0  0  0  0  0
   -6.9780    4.6009    2.8390 H   0  0  0  0  0  0  0  0  0  0  0  0
   -7.5882    4.6389    4.4967 H   0  0  0  0  0  0  0  0  0  0  0  0
   -8.0354    5.9180    3.3584 H   0  0  0  0  0  0  0  0  0  0  0  0
   -2.8539   -3.1528   -2.2312 H   0  0  0  0  0  0  0  0  0  0  0  0
   -0.5937   -4.3283   -2.3267 H   0  0  0  0  0  0  0  0  0  0  0  0
    3.5018   -2.4799   -3.9096 H   0  0  0  0  0  0  0  0  0  0  0  0
    2.0880   -1.3924   -3.8847 H   0  0  0  0  0  0  0  0  0  0  0  0
    2.0460   -4.3447   -4.7201 H   0  0  0  0  0  0  0  0  0  0  0  0
    1.9668   -2.9751   -5.8378 H   0  0  0  0  0  0  0  0  0  0  0  0
    0.6456   -3.2677   -4.7004 H   0  0  0  0  0  0  0  0  0  0  0  0
   -1.1819    1.2601   -3.0753 H   0  0  0  0  0  0  0  0  0  0  0  0
   -2.6198    8.3385   -4.5430 H   0  0  0  0  0  0  0  0  0  0  0  0
    1.8597    5.4931   -5.5958 H   0  0  0  0  0  0  0  0  0  0  0  0
    1.8398    2.5793   -4.6223 H   0  0  0  0  0  0  0  0  0  0  0  0
    3.2145    3.4401   -5.5089 H   0  0  0  0  0  0  0  0  0  0  0  0
  1  2  1  0  0  0  0
  1  3  2  0  0  0  0
  3  4  1  0  0  0  0
  4  5  2  0  0  0  0
  4  6  1  0  0  0  0
  6  7  1  0  0  0  0
  7  8  2  0  0  0  0
  7  9  1  0  0  0  0
  9 10  2  0  0  0  0
 10 11  1  0  0  0  0
 11 12  2  0  0  0  0
 12 13  1  0  0  0  0
 13 14  1  0  0  0  0
 13 15  2  0  0  0  0
 15 16  1  0  0  0  0
 16 17  2  0  0  0  0
 16 18  1  0  0  0  0
 18 19  1  0  0  0  0
 19 20  2  0  0  0  0
 19 21  1  0  0  0  0
 21 22  2  0  0  0  0
 22 23  1  0  0  0  0
 23 24  2  0  0  0  0
 24 25  1  0  0  0  0
 25 26  1  0  0  0  0
 25 27  2  0  0  0  0
 27 28  1  0  0  0  0
 28 29  2  0  0  0  0
 28 30  1  0  0  0  0
 30 31  1  0  0  0  0
 31 32  2  0  0  0  0
 31 33  1  0  0  0  0
 33 34  2  0  0  0  0
 34 35  1  0  0  0  0
 35 36  2  0  0  0  0
 36 37  1  0  0  0  0
 37 38  1  0  0  0  0
 37 39  2  0  0  0  0
 39 40  1  0  0  0  0
 40 41  2  0  0  0  0
 40 42  1  0  0  0  0
 42 43  1  0  0  0  0
 43 44  2  0  0  0  0
 43 45  1  0  0  0  0
 45 46  2  0  0  0  0
 46 47  1  0  0  0  0
 47 48  2  0  0  0  0
 48 49  1  0  0  0  0
 49 50  2  0  0  0  0
 50 51  1  0  0  0  0
 51 52  2  0  0  0  0
 52 53  1  0  0  0  0
 53 54  2  0  0  0  0
 54 55  1  0  0  0  0
 55 56  2  0  0  0  0
 56 57  1  0  0  0  0
 57 58  1  0  0  0  0
 58 59  1  0  0  0  0
 56 60  1  0  0  0  0
 52 61  1  0  0  0  0
 61 62  2  0  0  0  0
 62 63  1  0  0  0  0
 63 64  1  0  0  0  0
 64 65  2  0  0  0  0
 65 66  1  0  0  0  0
 66 67  2  0  0  0  0
 67 68  1  0  0  0  0
 68 69  1  0  0  0  0
 69 70  1  0  0  0  0
 67 71  1  0  0  0  0
 63 72  2  0  0  0  0
 72 73  1  0  0  0  0
 62 74  1  0  0  0  0
 74 75  2  0  0  0  0
 75 76  1  0  0  0  0
 75 77  1  0  0  0  0
 77 78  1  0  0  0  0
 77 79  2  0  0  0  0
 79 80  1  0  0  0  0
 80 81  2  0  0  0  0
 80 82  1  0  0  0  0
 82 83  1  0  0  0  0
 83 84  2  0  0  0  0
 83 85  1  0  0  0  0
 85 86  2  0  0  0  0
 86 87  1  0  0  0  0
 87 88  2  0  0  0  0
 10  2  1  0  0  0  0
 22 14  1  0  0  0  0
 34 26  1  0  0  0  0
 46 38  1  0  0  0  0
 73 49  1  0  0  0  0
 86 78  1  0  0  0  0
  9  3  1  0  0  0  0
 21 15  1  0  0  0  0
 33 27  1  0  0  0  0
 45 39  1  0  0  0  0
 72 51  1  0  0  0  0
 85 79  1  0  0  0  0
 60 53  1  0  0  0  0
 76 61  1  0  0  0  0
 71 64  1  0  0  0  0
  1 89  1  0  0  0  0
  6 90  1  0  0  0  0
 11 91  1  0  0  0  0
 12 92  1  0  0  0  0
 18 93  1  0  0  0  0
 23 94  1  0  0  0  0
 24 95  1  0  0  0  0
 30 96  1  0  0  0  0
 35 97  1  0  0  0  0
 36 98  1  0  0  0  0
 42 99  1  0  0  0  0
 47100  1  0  0  0  0
 48101  1  0  0  0  0
 50102  1  0  0  0  0
 54103  1  0  0  0  0
 55104  1  0  0  0  0
 58105  1  0  0  0  0
 58106  1  0  0  0  0
 59107  1  0  0  0  0
 59108  1  0  0  0  0
 59109  1  0  0  0  0
 65110  1  0  0  0  0
 66111  1  0  0  0  0
 69112  1  0  0  0  0
 69113  1  0  0  0  0
 70114  1  0  0  0  0
 70115  1  0  0  0  0
 70116  1  0  0  0  0
 74117  1  0  0  0  0
 82118  1  0  0  0  0
 87119  1  0  0  0  0
 88120  1  0  0  0  0
 88121  1  0  0  0  0
M  END
