156

C          4.53220       -3.88360       -5.59270
S          3.37500       -2.62790       -5.82760
C          2.18990       -3.54590       -4.97480
C          0.83400       -3.22810       -4.67540
C          0.09910       -4.15480       -3.95970
Ge         1.24150       -5.71420       -3.58840
C          1.57260       -6.00980       -1.62650
C          0.34770       -5.72600       -0.76990
C          0.62250       -7.35950       -4.55770
C         -0.66660       -7.92940       -3.98720
C          2.68240       -4.75990       -4.53570
C          4.02890       -4.94010       -4.89880
C         -1.20820       -3.71740       -3.71880
C         -1.47640       -2.47360       -4.23940
S         -0.07910       -1.81820       -5.05400
C         -2.67800       -1.69690       -4.09440
N         -3.93160       -2.22780       -4.07420
C         -4.37450       -3.56010       -4.38690
C         -4.84490       -4.29470       -3.13450
N         -4.84270       -1.31250       -3.76630
C         -4.19670       -0.17350       -3.57100
C         -2.81940       -0.34200       -3.79080
C         -1.76340        0.71010       -3.75170
C         -1.59910        1.37270       -5.12120
C         -4.90640        1.00890       -3.00820
C         -4.69280        1.03560       -1.47650
C         -4.81740       -0.32200       -0.86750
N         -6.01690       -0.91640       -0.66140
C         -7.33590       -0.46020       -1.00900
C         -7.85450       -1.21720       -2.23040
N         -5.88500       -2.13690       -0.15510
C         -4.58640       -2.35260       -0.01400
C         -3.85040       -1.22740       -0.44620
C         -2.35600       -1.11650       -0.47060
C         -1.78970        0.17510        0.12370
C         -4.13440       -3.68320        0.49370
C         -3.94130       -3.73000        2.02610
C         -2.66870       -3.06780        2.41540
S         -2.65930       -1.44430        3.02300
C         -0.93530       -1.41400        2.97160
C         -0.03530       -0.33820        3.21520
C          1.31190       -0.56500        3.00670
Ge         1.55970       -2.44270        2.46820
C          2.37230       -2.71050        0.65020
C          1.63880       -1.97300       -0.45810
C          2.48060       -3.51410        3.89380
C          1.89000       -3.25110        5.26960
C         -0.40080       -2.61190        2.53850
C         -1.40190       -3.54660        2.23030
C          2.07780        0.58980        3.20680
C          1.33090        1.68810        3.55040
S         -0.36780        1.29510        3.64620
C          1.77360        3.04410        3.75610
N          2.86800        3.38600        4.48670
C          3.70380        2.55860        5.31460
C          2.93070        1.97000        6.49110
N          3.08340        4.69470        4.45230
C          2.14770        5.22340        3.67850
C          1.27340        4.22630        3.21350
C          0.07610        4.39650        2.34000
C         -1.16180        4.77090        3.15730
C          2.18500        6.67290        3.33540
C          2.96430        6.89750        2.02010
C          4.20910        6.08070        1.93880
N          5.30370        6.29840        2.70550
C          5.54090        7.30830        3.70200
C          5.54960        6.70020        5.10200
N          6.26740        5.41740        2.45220
C          5.80980        4.61330        1.50740
C          4.50320        4.98900        1.13290
C          3.67200        4.39010        0.04360
C          3.15930        2.98770        0.36940
C          6.63990        3.47800        1.00790
C          6.61290        2.31060        1.99600
H          5.52080       -3.75530       -5.98810
H          2.39610       -5.36340       -1.32500
H          1.90000       -7.03990       -1.48690
H          0.57360       -5.89040        0.28340
H          0.02770       -4.69400       -0.89600
H         -0.47940       -6.37610       -1.04770
H          1.41570       -8.10530       -4.51030
H          0.48510       -7.09770       -5.60680
H         -1.46200       -7.18790       -4.02570
H         -0.52880       -8.23030       -2.95060
H         -0.98490       -8.80250       -4.55480
H          4.60360       -5.81700       -4.65560
H         -1.92080       -4.27910       -3.14170
H         -3.55710       -4.09240       -4.87830
H         -5.21240       -3.47060       -5.08550
H         -5.60530       -3.70460       -2.63030
H         -4.02350       -4.44560       -2.43900
H         -5.26180       -5.26140       -3.40330
H         -0.81000        0.27140       -3.44710
H         -2.03520        1.47210       -3.01920
H         -0.83790        2.14810       -5.07750
H         -2.53750        1.82200       -5.43970
H         -1.30100        0.63770       -5.86550
H         -4.53030        1.93620       -3.44350
H         -5.96710        0.91890       -3.24030
H         -5.40910        1.72450       -1.02030
H         -3.69480        1.41260       -1.26640
H         -7.30210        0.61230       -1.20360
H         -7.99180       -0.64450       -0.15240
H         -7.12840       -1.15870       -3.03900
H         -7.99690       -2.26320       -1.97260
H         -8.80330       -0.80080       -2.55810
H         -1.95400       -1.96330        0.08870
H         -2.00170       -1.21450       -1.50090
H         -1.81630        0.99070       -0.59360
H         -2.34850        0.47420        1.00730
H         -0.74970        0.02450        0.40820
H         -3.19960       -3.97550        0.00980
H         -4.90900       -4.40470        0.22840
H         -4.79100       -3.24370        2.50610
H         -3.91490       -4.77700        2.34020
H          3.41140       -2.38410        0.69380
H          2.37950       -3.78100        0.44940
H          2.08410       -2.19420       -1.42800
H          0.59110       -2.26540       -0.48900
H          1.68460       -0.89780       -0.29620
H          2.39480       -4.57120        3.64340
H          3.54170       -3.26550        3.88520
H          1.99160       -2.19990        5.53320
H          2.39470       -3.84650        6.02870
H          0.83070       -3.50090        5.28390
H         -1.20170       -4.53850        1.86120
H          3.14340        0.62450        3.05980
H          4.14540        1.75820        4.71540
H          4.50490        3.21010        5.66960
H          2.13630        1.31680        6.13740
H          2.48810        2.76530        7.08590
H          3.60110        1.39240        7.12160
H          0.27340        5.17900        1.60390
H         -0.11830        3.46620        1.80070
H         -1.39500        3.98380        3.87090
H         -0.99130        5.69330        3.70830
H         -2.01970        4.90920        2.50310
H          1.17290        7.06530        3.22200
H          2.67370        7.20310        4.15260
H          3.19720        7.96180        1.91810
H          2.32690        6.61740        1.17980
H          6.51520        7.76160        3.49060
H          4.77060        8.07590        3.61600
H          4.62380        6.15400        5.27020
H          5.66150        7.47980        5.85100
H          6.38010        6.00460        5.18500
H          4.27020        4.34460       -0.87240
H          2.81710        5.04000       -0.15650
H          2.51940        2.62510       -0.43330
H          3.98590        2.29270        0.48760
H          2.58440        3.00050        1.29080
H          7.67050        3.81970        0.89340
H          6.27090        3.15320        0.03340
H          5.59320        1.95980        2.14330
H          7.00400        2.63630        2.95640
H          7.21760        1.48300        1.62990
