
  xtb     02282216323D
 energy: -210.606627202004 gnorm: 0.000274739064 xtb: 6.4.1 (unknown)
156165  0     0  0            999 V2000
    4.5322   -3.8836   -5.5927 C   0  0  0  0  0  0  0  0  0  0  0  0
    3.3750   -2.6279   -5.8276 S   0  0  0  0  0  0  0  0  0  0  0  0
    2.1899   -3.5459   -4.9748 C   0  0  0  0  0  0  0  0  0  0  0  0
    0.8340   -3.2281   -4.6754 C   0  0  0  0  0  0  0  0  0  0  0  0
    0.0991   -4.1548   -3.9597 C   0  0  0  0  0  0  0  0  0  0  0  0
    1.2415   -5.7142   -3.5884 Ge  0  0  0  0  0  4  0  0  0  0  0  0
    1.5726   -6.0098   -1.6265 C   0  0  0  0  0  0  0  0  0  0  0  0
    0.3477   -5.7260   -0.7699 C   0  0  0  0  0  0  0  0  0  0  0  0
    0.6225   -7.3595   -4.5577 C   0  0  0  0  0  0  0  0  0  0  0  0
   -0.6666   -7.9294   -3.9872 C   0  0  0  0  0  0  0  0  0  0  0  0
    2.6824   -4.7599   -4.5357 C   0  0  0  0  0  0  0  0  0  0  0  0
    4.0289   -4.9401   -4.8988 C   0  0  0  0  0  0  0  0  0  0  0  0
   -1.2082   -3.7174   -3.7188 C   0  0  0  0  0  0  0  0  0  0  0  0
   -1.4764   -2.4736   -4.2394 C   0  0  0  0  0  0  0  0  0  0  0  0
   -0.0791   -1.8182   -5.0540 S   0  0  0  0  0  0  0  0  0  0  0  0
   -2.6780   -1.6969   -4.0944 C   0  0  0  0  0  0  0  0  0  0  0  0
   -3.9316   -2.2278   -4.0742 N   0  0  0  0  0  0  0  0  0  0  0  0
   -4.3745   -3.5601   -4.3869 C   0  0  0  0  0  0  0  0  0  0  0  0
   -4.8449   -4.2947   -3.1345 C   0  0  0  0  0  0  0  0  0  0  0  0
   -4.8427   -1.3125   -3.7663 N   0  0  0  0  0  0  0  0  0  0  0  0
   -4.1967   -0.1735   -3.5710 C   0  0  0  0  0  0  0  0  0  0  0  0
   -2.8194   -0.3420   -3.7908 C   0  0  0  0  0  0  0  0  0  0  0  0
   -1.7634    0.7101   -3.7517 C   0  0  0  0  0  0  0  0  0  0  0  0
   -1.5991    1.3727   -5.1212 C   0  0  0  0  0  0  0  0  0  0  0  0
   -4.9064    1.0089   -3.0082 C   0  0  0  0  0  0  0  0  0  0  0  0
   -4.6928    1.0356   -1.4765 C   0  0  0  0  0  0  0  0  0  0  0  0
   -4.8174   -0.3220   -0.8675 C   0  0  0  0  0  0  0  0  0  0  0  0
   -6.0169   -0.9164   -0.6614 N   0  0  0  0  0  0  0  0  0  0  0  0
   -7.3359   -0.4602   -1.0090 C   0  0  0  0  0  0  0  0  0  0  0  0
   -7.8545   -1.2172   -2.2304 C   0  0  0  0  0  0  0  0  0  0  0  0
   -5.8850   -2.1369   -0.1551 N   0  0  0  0  0  0  0  0  0  0  0  0
   -4.5864   -2.3526   -0.0140 C   0  0  0  0  0  0  0  0  0  0  0  0
   -3.8504   -1.2274   -0.4462 C   0  0  0  0  0  0  0  0  0  0  0  0
   -2.3560   -1.1165   -0.4706 C   0  0  0  0  0  0  0  0  0  0  0  0
   -1.7897    0.1751    0.1237 C   0  0  0  0  0  0  0  0  0  0  0  0
   -4.1344   -3.6832    0.4937 C   0  0  0  0  0  0  0  0  0  0  0  0
   -3.9413   -3.7300    2.0261 C   0  0  0  0  0  0  0  0  0  0  0  0
   -2.6687   -3.0678    2.4154 C   0  0  0  0  0  0  0  0  0  0  0  0
   -2.6593   -1.4443    3.0230 S   0  0  0  0  0  0  0  0  0  0  0  0
   -0.9353   -1.4140    2.9716 C   0  0  0  0  0  0  0  0  0  0  0  0
   -0.0353   -0.3382    3.2152 C   0  0  0  0  0  0  0  0  0  0  0  0
    1.3119   -0.5650    3.0067 C   0  0  0  0  0  0  0  0  0  0  0  0
    1.5597   -2.4427    2.4682 Ge  0  0  0  0  0  4  0  0  0  0  0  0
    2.3723   -2.7105    0.6502 C   0  0  0  0  0  0  0  0  0  0  0  0
    1.6388   -1.9730   -0.4581 C   0  0  0  0  0  0  0  0  0  0  0  0
    2.4806   -3.5141    3.8938 C   0  0  0  0  0  0  0  0  0  0  0  0
    1.8900   -3.2511    5.2696 C   0  0  0  0  0  0  0  0  0  0  0  0
   -0.4008   -2.6119    2.5385 C   0  0  0  0  0  0  0  0  0  0  0  0
   -1.4019   -3.5466    2.2303 C   0  0  0  0  0  0  0  0  0  0  0  0
    2.0778    0.5898    3.2068 C   0  0  0  0  0  0  0  0  0  0  0  0
    1.3309    1.6881    3.5504 C   0  0  0  0  0  0  0  0  0  0  0  0
   -0.3678    1.2951    3.6462 S   0  0  0  0  0  0  0  0  0  0  0  0
    1.7736    3.0441    3.7561 C   0  0  0  0  0  0  0  0  0  0  0  0
    2.8680    3.3860    4.4867 N   0  0  0  0  0  0  0  0  0  0  0  0
    3.7038    2.5586    5.3146 C   0  0  0  0  0  0  0  0  0  0  0  0
    2.9307    1.9700    6.4911 C   0  0  0  0  0  0  0  0  0  0  0  0
    3.0834    4.6947    4.4523 N   0  0  0  0  0  0  0  0  0  0  0  0
    2.1477    5.2234    3.6785 C   0  0  0  0  0  0  0  0  0  0  0  0
    1.2734    4.2263    3.2135 C   0  0  0  0  0  0  0  0  0  0  0  0
    0.0761    4.3965    2.3400 C   0  0  0  0  0  0  0  0  0  0  0  0
   -1.1618    4.7709    3.1573 C   0  0  0  0  0  0  0  0  0  0  0  0
    2.1850    6.6729    3.3354 C   0  0  0  0  0  0  0  0  0  0  0  0
    2.9643    6.8975    2.0201 C   0  0  0  0  0  0  0  0  0  0  0  0
    4.2091    6.0807    1.9388 C   0  0  0  0  0  0  0  0  0  0  0  0
    5.3037    6.2984    2.7055 N   0  0  0  0  0  0  0  0  0  0  0  0
    5.5409    7.3083    3.7020 C   0  0  0  0  0  0  0  0  0  0  0  0
    5.5496    6.7002    5.1020 C   0  0  0  0  0  0  0  0  0  0  0  0
    6.2674    5.4174    2.4522 N   0  0  0  0  0  0  0  0  0  0  0  0
    5.8098    4.6133    1.5074 C   0  0  0  0  0  0  0  0  0  0  0  0
    4.5032    4.9890    1.1329 C   0  0  0  0  0  0  0  0  0  0  0  0
    3.6720    4.3901    0.0436 C   0  0  0  0  0  0  0  0  0  0  0  0
    3.1593    2.9877    0.3694 C   0  0  0  0  0  0  0  0  0  0  0  0
    6.6399    3.4780    1.0079 C   0  0  0  0  0  0  0  0  0  0  0  0
    6.6129    2.3106    1.9960 C   0  0  0  0  0  0  0  0  0  0  0  0
    5.5208   -3.7553   -5.9881 H   0  0  0  0  0  0  0  0  0  0  0  0
    2.3961   -5.3634   -1.3250 H   0  0  0  0  0  0  0  0  0  0  0  0
    1.9000   -7.0399   -1.4869 H   0  0  0  0  0  0  0  0  0  0  0  0
    0.5736   -5.8904    0.2834 H   0  0  0  0  0  0  0  0  0  0  0  0
    0.0277   -4.6940   -0.8960 H   0  0  0  0  0  0  0  0  0  0  0  0
   -0.4794   -6.3761   -1.0477 H   0  0  0  0  0  0  0  0  0  0  0  0
    1.4157   -8.1053   -4.5103 H   0  0  0  0  0  0  0  0  0  0  0  0
    0.4851   -7.0977   -5.6068 H   0  0  0  0  0  0  0  0  0  0  0  0
   -1.4620   -7.1879   -4.0257 H   0  0  0  0  0  0  0  0  0  0  0  0
   -0.5288   -8.2303   -2.9506 H   0  0  0  0  0  0  0  0  0  0  0  0
   -0.9849   -8.8025   -4.5548 H   0  0  0  0  0  0  0  0  0  0  0  0
    4.6036   -5.8170   -4.6556 H   0  0  0  0  0  0  0  0  0  0  0  0
   -1.9208   -4.2791   -3.1417 H   0  0  0  0  0  0  0  0  0  0  0  0
   -3.5571   -4.0924   -4.8783 H   0  0  0  0  0  0  0  0  0  0  0  0
   -5.2124   -3.4706   -5.0855 H   0  0  0  0  0  0  0  0  0  0  0  0
   -5.6053   -3.7046   -2.6303 H   0  0  0  0  0  0  0  0  0  0  0  0
   -4.0235   -4.4456   -2.4390 H   0  0  0  0  0  0  0  0  0  0  0  0
   -5.2618   -5.2614   -3.4033 H   0  0  0  0  0  0  0  0  0  0  0  0
   -0.8100    0.2714   -3.4471 H   0  0  0  0  0  0  0  0  0  0  0  0
   -2.0352    1.4721   -3.0192 H   0  0  0  0  0  0  0  0  0  0  0  0
   -0.8379    2.1481   -5.0775 H   0  0  0  0  0  0  0  0  0  0  0  0
   -2.5375    1.8220   -5.4397 H   0  0  0  0  0  0  0  0  0  0  0  0
   -1.3010    0.6377   -5.8655 H   0  0  0  0  0  0  0  0  0  0  0  0
   -4.5303    1.9362   -3.4435 H   0  0  0  0  0  0  0  0  0  0  0  0
   -5.9671    0.9189   -3.2403 H   0  0  0  0  0  0  0  0  0  0  0  0
   -5.4091    1.7245   -1.0203 H   0  0  0  0  0  0  0  0  0  0  0  0
   -3.6948    1.4126   -1.2664 H   0  0  0  0  0  0  0  0  0  0  0  0
   -7.3021    0.6123   -1.2036 H   0  0  0  0  0  0  0  0  0  0  0  0
   -7.9918   -0.6445   -0.1524 H   0  0  0  0  0  0  0  0  0  0  0  0
   -7.1284   -1.1587   -3.0390 H   0  0  0  0  0  0  0  0  0  0  0  0
   -7.9969   -2.2632   -1.9726 H   0  0  0  0  0  0  0  0  0  0  0  0
   -8.8033   -0.8008   -2.5581 H   0  0  0  0  0  0  0  0  0  0  0  0
   -1.9540   -1.9633    0.0887 H   0  0  0  0  0  0  0  0  0  0  0  0
   -2.0017   -1.2145   -1.5009 H   0  0  0  0  0  0  0  0  0  0  0  0
   -1.8163    0.9907   -0.5936 H   0  0  0  0  0  0  0  0  0  0  0  0
   -2.3485    0.4742    1.0073 H   0  0  0  0  0  0  0  0  0  0  0  0
   -0.7497    0.0245    0.4082 H   0  0  0  0  0  0  0  0  0  0  0  0
   -3.1996   -3.9755    0.0098 H   0  0  0  0  0  0  0  0  0  0  0  0
   -4.9090   -4.4047    0.2284 H   0  0  0  0  0  0  0  0  0  0  0  0
   -4.7910   -3.2437    2.5061 H   0  0  0  0  0  0  0  0  0  0  0  0
   -3.9149   -4.7770    2.3402 H   0  0  0  0  0  0  0  0  0  0  0  0
    3.4114   -2.3841    0.6938 H   0  0  0  0  0  0  0  0  0  0  0  0
    2.3795   -3.7810    0.4494 H   0  0  0  0  0  0  0  0  0  0  0  0
    2.0841   -2.1942   -1.4280 H   0  0  0  0  0  0  0  0  0  0  0  0
    0.5911   -2.2654   -0.4890 H   0  0  0  0  0  0  0  0  0  0  0  0
    1.6846   -0.8978   -0.2962 H   0  0  0  0  0  0  0  0  0  0  0  0
    2.3948   -4.5712    3.6434 H   0  0  0  0  0  0  0  0  0  0  0  0
    3.5417   -3.2655    3.8852 H   0  0  0  0  0  0  0  0  0  0  0  0
    1.9916   -2.1999    5.5332 H   0  0  0  0  0  0  0  0  0  0  0  0
    2.3947   -3.8465    6.0287 H   0  0  0  0  0  0  0  0  0  0  0  0
    0.8307   -3.5009    5.2839 H   0  0  0  0  0  0  0  0  0  0  0  0
   -1.2017   -4.5385    1.8612 H   0  0  0  0  0  0  0  0  0  0  0  0
    3.1434    0.6245    3.0598 H   0  0  0  0  0  0  0  0  0  0  0  0
    4.1454    1.7582    4.7154 H   0  0  0  0  0  0  0  0  0  0  0  0
    4.5049    3.2101    5.6696 H   0  0  0  0  0  0  0  0  0  0  0  0
    2.1363    1.3168    6.1374 H   0  0  0  0  0  0  0  0  0  0  0  0
    2.4881    2.7653    7.0859 H   0  0  0  0  0  0  0  0  0  0  0  0
    3.6011    1.3924    7.1216 H   0  0  0  0  0  0  0  0  0  0  0  0
    0.2734    5.1790    1.6039 H   0  0  0  0  0  0  0  0  0  0  0  0
   -0.1183    3.4662    1.8007 H   0  0  0  0  0  0  0  0  0  0  0  0
   -1.3950    3.9838    3.8709 H   0  0  0  0  0  0  0  0  0  0  0  0
   -0.9913    5.6933    3.7083 H   0  0  0  0  0  0  0  0  0  0  0  0
   -2.0197    4.9092    2.5031 H   0  0  0  0  0  0  0  0  0  0  0  0
    1.1729    7.0653    3.2220 H   0  0  0  0  0  0  0  0  0  0  0  0
    2.6737    7.2031    4.1526 H   0  0  0  0  0  0  0  0  0  0  0  0
    3.1972    7.9618    1.9181 H   0  0  0  0  0  0  0  0  0  0  0  0
    2.3269    6.6174    1.1798 H   0  0  0  0  0  0  0  0  0  0  0  0
    6.5152    7.7616    3.4906 H   0  0  0  0  0  0  0  0  0  0  0  0
    4.7706    8.0759    3.6160 H   0  0  0  0  0  0  0  0  0  0  0  0
    4.6238    6.1540    5.2702 H   0  0  0  0  0  0  0  0  0  0  0  0
    5.6615    7.4798    5.8510 H   0  0  0  0  0  0  0  0  0  0  0  0
    6.3801    6.0046    5.1850 H   0  0  0  0  0  0  0  0  0  0  0  0
    4.2702    4.3446   -0.8724 H   0  0  0  0  0  0  0  0  0  0  0  0
    2.8171    5.0400   -0.1565 H   0  0  0  0  0  0  0  0  0  0  0  0
    2.5194    2.6251   -0.4333 H   0  0  0  0  0  0  0  0  0  0  0  0
    3.9859    2.2927    0.4876 H   0  0  0  0  0  0  0  0  0  0  0  0
    2.5844    3.0005    1.2908 H   0  0  0  0  0  0  0  0  0  0  0  0
    7.6705    3.8197    0.8934 H   0  0  0  0  0  0  0  0  0  0  0  0
    6.2709    3.1532    0.0334 H   0  0  0  0  0  0  0  0  0  0  0  0
    5.5932    1.9598    2.1433 H   0  0  0  0  0  0  0  0  0  0  0  0
    7.0040    2.6363    2.9564 H   0  0  0  0  0  0  0  0  0  0  0  0
    7.2176    1.4830    1.6299 H   0  0  0  0  0  0  0  0  0  0  0  0
  1  2  1  0  0  0  0
  2  3  1  0  0  0  0
  3  4  1  0  0  0  0
  4  5  2  0  0  0  0
  5  6  1  0  0  0  0
  6  7  1  0  0  0  0
  7  8  1  0  0  0  0
  6  9  1  0  0  0  0
  9 10  1  0  0  0  0
  6 11  1  0  0  0  0
 11 12  1  0  0  0  0
  5 13  1  0  0  0  0
 13 14  2  0  0  0  0
 14 15  1  0  0  0  0
 14 16  1  0  0  0  0
 16 17  1  0  0  0  0
 17 18  1  0  0  0  0
 18 19  1  0  0  0  0
 17 20  1  0  0  0  0
 20 21  2  0  0  0  0
 21 22  1  0  0  0  0
 22 23  1  0  0  0  0
 23 24  1  0  0  0  0
 21 25  1  0  0  0  0
 25 26  1  0  0  0  0
 26 27  1  0  0  0  0
 27 28  1  0  0  0  0
 28 29  1  0  0  0  0
 29 30  1  0  0  0  0
 28 31  1  0  0  0  0
 31 32  2  0  0  0  0
 32 33  1  0  0  0  0
 33 34  1  0  0  0  0
 34 35  1  0  0  0  0
 32 36  1  0  0  0  0
 36 37  1  0  0  0  0
 37 38  1  0  0  0  0
 38 39  1  0  0  0  0
 39 40  1  0  0  0  0
 40 41  1  0  0  0  0
 41 42  2  0  0  0  0
 42 43  1  0  0  0  0
 43 44  1  0  0  0  0
 44 45  1  0  0  0  0
 43 46  1  0  0  0  0
 46 47  1  0  0  0  0
 43 48  1  0  0  0  0
 48 49  1  0  0  0  0
 42 50  1  0  0  0  0
 50 51  2  0  0  0  0
 51 52  1  0  0  0  0
 51 53  1  0  0  0  0
 53 54  1  0  0  0  0
 54 55  1  0  0  0  0
 55 56  1  0  0  0  0
 54 57  1  0  0  0  0
 57 58  2  0  0  0  0
 58 59  1  0  0  0  0
 59 60  1  0  0  0  0
 60 61  1  0  0  0  0
 58 62  1  0  0  0  0
 62 63  1  0  0  0  0
 63 64  1  0  0  0  0
 64 65  1  0  0  0  0
 65 66  1  0  0  0  0
 66 67  1  0  0  0  0
 65 68  1  0  0  0  0
 68 69  2  0  0  0  0
 69 70  1  0  0  0  0
 70 71  1  0  0  0  0
 71 72  1  0  0  0  0
 69 73  1  0  0  0  0
 73 74  1  0  0  0  0
 12  1  2  0  0  0  0
 22 16  2  0  0  0  0
 33 27  2  0  0  0  0
 49 38  2  0  0  0  0
 59 53  2  0  0  0  0
 70 64  2  0  0  0  0
 11  3  2  0  0  0  0
 48 40  2  0  0  0  0
 15  4  1  0  0  0  0
 52 41  1  0  0  0  0
  1 75  1  0  0  0  0
  7 76  1  0  0  0  0
  7 77  1  0  0  0  0
  8 78  1  0  0  0  0
  8 79  1  0  0  0  0
  8 80  1  0  0  0  0
  9 81  1  0  0  0  0
  9 82  1  0  0  0  0
 10 83  1  0  0  0  0
 10 84  1  0  0  0  0
 10 85  1  0  0  0  0
 12 86  1  0  0  0  0
 13 87  1  0  0  0  0
 18 88  1  0  0  0  0
 18 89  1  0  0  0  0
 19 90  1  0  0  0  0
 19 91  1  0  0  0  0
 19 92  1  0  0  0  0
 23 93  1  0  0  0  0
 23 94  1  0  0  0  0
 24 95  1  0  0  0  0
 24 96  1  0  0  0  0
 24 97  1  0  0  0  0
 25 98  1  0  0  0  0
 25 99  1  0  0  0  0
 26100  1  0  0  0  0
 26101  1  0  0  0  0
 29102  1  0  0  0  0
 29103  1  0  0  0  0
 30104  1  0  0  0  0
 30105  1  0  0  0  0
 30106  1  0  0  0  0
 34107  1  0  0  0  0
 34108  1  0  0  0  0
 35109  1  0  0  0  0
 35110  1  0  0  0  0
 35111  1  0  0  0  0
 36112  1  0  0  0  0
 36113  1  0  0  0  0
 37114  1  0  0  0  0
 37115  1  0  0  0  0
 44116  1  0  0  0  0
 44117  1  0  0  0  0
 45118  1  0  0  0  0
 45119  1  0  0  0  0
 45120  1  0  0  0  0
 46121  1  0  0  0  0
 46122  1  0  0  0  0
 47123  1  0  0  0  0
 47124  1  0  0  0  0
 47125  1  0  0  0  0
 49126  1  0  0  0  0
 50127  1  0  0  0  0
 55128  1  0  0  0  0
 55129  1  0  0  0  0
 56130  1  0  0  0  0
 56131  1  0  0  0  0
 56132  1  0  0  0  0
 60133  1  0  0  0  0
 60134  1  0  0  0  0
 61135  1  0  0  0  0
 61136  1  0  0  0  0
 61137  1  0  0  0  0
 62138  1  0  0  0  0
 62139  1  0  0  0  0
 63140  1  0  0  0  0
 63141  1  0  0  0  0
 66142  1  0  0  0  0
 66143  1  0  0  0  0
 67144  1  0  0  0  0
 67145  1  0  0  0  0
 67146  1  0  0  0  0
 71147  1  0  0  0  0
 71148  1  0  0  0  0
 72149  1  0  0  0  0
 72150  1  0  0  0  0
 72151  1  0  0  0  0
 73152  1  0  0  0  0
 73153  1  0  0  0  0
 74154  1  0  0  0  0
 74155  1  0  0  0  0
 74156  1  0  0  0  0
M  END
