252

C         -1.55150       -2.91360        8.31120
C         -1.27740       -2.41050        7.09050
C         -2.16850       -2.88180        6.08050
C         -2.19950       -2.53390        4.72030
C         -1.16920       -1.67650        4.12100
C          0.18300       -1.91960        4.35250
C          1.16310       -1.13230        3.77990
C          0.82870       -0.06790        2.95000
S          1.97610        0.98710        2.13110
C          3.54220        0.74010        3.03510
C          3.49090        1.30060        4.44250
C         -0.52920        0.15680        2.71450
F         -0.89280        1.16760        1.90330
C         -1.51530       -0.61800        3.28280
C         -3.24670       -3.05910        3.97400
C         -4.22890       -3.92930        4.51200
C         -4.18240       -4.29290        5.86840
C         -5.19930       -5.16460        6.46580
C         -6.55950       -4.91390        6.28230
C         -7.50620       -5.71950        6.87400
C         -7.14380       -6.81350        7.66070
S         -8.45260       -7.78310        8.33650
C         -7.76110       -8.43910        9.90830
C         -8.90700       -8.77490       10.84240
C         -5.78400       -7.06780        7.81110
C         -4.82430       -6.25460        7.24380
F         -5.34840       -8.13810        8.51520
C         -3.14320       -3.75750        6.61680
S         -2.90300       -3.99210        8.33050
C         -5.16320       -4.36040        3.53630
C         -4.95110       -3.82580        2.29950
S         -3.52580       -2.78570        2.27830
C         -5.69100       -3.92900        1.08110
S         -4.94300       -3.19360       -0.30680
C         -6.33650       -3.48290       -1.29850
C         -7.30180       -4.16190       -0.59890
C         -6.95890       -4.40980        0.76110
C         -7.94040       -5.03460        1.65530
O         -7.69000       -5.44230        2.77720
C         -9.31360       -5.12650        1.10800
C        -10.34730       -5.45630        1.98170
C        -11.64830       -5.56140        1.53060
C        -11.95630       -5.35650        0.18870
C        -13.35940       -5.52180       -0.31410
C        -13.58540       -6.96320       -0.77710
C        -10.92460       -5.05320       -0.68880
C         -9.61500       -4.92790       -0.24480
C         -8.55600       -4.61360       -1.22110
O         -8.68820       -4.75380       -2.42090
C         -6.36770       -2.85980       -2.58850
S         -4.91820       -2.88650       -3.54100
C         -5.53460       -1.67170       -4.62900
C         -6.83550       -1.33970       -4.29720
C         -7.31570       -2.02190       -3.13960
C         -8.62980       -1.72130       -2.56050
O         -8.98970       -2.09470       -1.45640
C         -9.50710       -0.90940       -3.42780
C        -10.84560       -0.76860       -3.06890
C        -11.71010       -0.01970       -3.84200
C        -11.25930        0.62760       -4.98950
C        -12.20190        1.41210       -5.85190
C        -12.79400        0.51340       -6.94060
C         -9.92440        0.49460       -5.34470
C         -9.04500       -0.26910       -4.58550
C         -7.63390       -0.35460       -5.01650
O         -7.18340        0.34730       -5.90830
C         -4.57220       -1.05400       -5.48210
C         -3.36330       -1.61300       -5.80150
C         -2.37440       -0.66450       -6.13760
C         -1.00420       -0.89630       -6.34690
C         -0.42730       -2.24270       -6.45930
C         -0.61890       -3.21010       -5.47860
C         -0.05000       -4.46470       -5.59300
C          0.73530       -4.79430       -6.69150
S          1.49240       -6.35750       -6.98510
C          1.35030       -7.23750       -5.39150
C          2.28070       -6.67140       -4.33550
C          0.92570       -3.80920       -7.66300
F          1.68020       -4.09410       -8.74250
C          0.36910       -2.55510       -7.55920
C         -0.18760        0.22000       -6.32600
C         -0.67930        1.53890       -6.16670
C         -2.06500        1.77940       -6.14480
C         -2.57500        3.15460       -6.10460
C         -3.52690        3.57080       -5.17600
C         -3.99090        4.86880       -5.18180
C         -3.52710        5.80370       -6.10490
S         -4.16920        7.44860       -5.99460
C         -4.42560        7.93410       -7.74200
C         -5.36280        6.98500       -8.46120
C         -2.55140        5.38400       -7.00400
C         -2.08540        4.08560       -7.01710
F         -2.01850        6.24360       -7.90160
C         -2.88480        0.66080       -6.08190
S         -4.60920        0.66880       -5.79270
C          0.35460        2.44220       -5.80460
C          1.57510        1.84770       -5.68130
S          1.54990        0.16350       -6.18150
C          2.69710        2.30380       -4.91580
C          2.60210        3.06610       -3.78890
C          3.76080        3.01990       -2.97370
C          3.89370        3.52850       -1.67070
C          2.87770        4.41340       -1.09150
C          2.42810        5.52690       -1.80190
C          1.50970        6.38980       -1.24540
C          0.99090        6.17490        0.03110
S         -0.20740        7.33590        0.61340
C          0.14480        7.50000        2.40280
C          1.56590        7.95760        2.66220
C          1.42080        5.03960        0.71290
F          0.93440        4.73950        1.93370
C          2.35710        4.17910        0.17650
C          5.01890        3.12490       -0.96790
C          6.05700        2.35840       -1.55190
C          5.96300        1.92440       -2.88620
C          7.06540        1.16680       -3.49240
C          6.85880       -0.05560       -4.12700
C          7.92140       -0.75990       -4.65690
C          9.22150       -0.27390       -4.57200
S         10.55430       -1.25010       -5.22160
C         11.35170       -0.05680       -6.35960
C         10.41900        0.35150       -7.48220
C          9.41620        0.94280       -3.92730
C          8.36390        1.66440       -3.40420
F         10.66160        1.44790       -3.78380
C          4.77660        2.21060       -3.54310
S          4.28420        1.58680       -5.09760
C          7.05890        2.01890       -0.60860
C          6.80920        2.49160        0.64530
S          5.33980        3.43990        0.71690
C          7.55750        2.20090        1.82810
C          8.82360        1.70470        1.90060
C          9.24770        1.41810        3.22420
C         10.46010        0.84010        3.63410
C         11.49140        0.51320        2.64270
C         12.03180       -0.76920        2.56150
C         12.90190       -1.10010        1.54540
C         13.28260       -0.16670        0.58190
S         14.35520       -0.70430       -0.71020
C         13.78000        0.26420       -2.16460
C         14.05900       -0.52660       -3.42670
C         12.80060        1.13200        0.72550
F         13.19330        2.11390       -0.11630
C         11.90750        1.46960        1.72110
C         10.58890        0.56400        4.98770
C          9.56280        0.81640        5.93100
C          8.34490        1.37410        5.51730
C          7.19460        1.52550        6.41740
C          6.73540        0.43750        7.15490
C          5.58290        0.52200        7.91210
C          4.84690        1.70060        7.95870
S          3.34940        1.93280        8.85860
C          2.74900        0.23530        9.16840
C          2.30780       -0.46410        7.89650
C          5.34190        2.79570        7.24760
C          6.48510        2.72270        6.48340
F          4.67200        3.96240        7.29600
C          8.23290        1.69340        4.17190
S          6.81550        2.36020        3.40610
C          9.96810        0.46770        7.25360
C         11.22350       -0.02150        7.30520
S         12.00260       -0.10370        5.76180
H         -1.04050       -2.71910        9.23410
H         -0.48980       -1.70520        6.89870
H          0.47570       -2.75840        4.96620
H          2.19760       -1.36630        3.97440
H          4.27330        1.28090        2.43460
H          3.79510       -0.31960        3.01510
H          4.44570        1.13610        4.93880
H          3.29710        2.36990        4.41420
H          2.70450        0.82470        5.02430
H         -2.54660       -0.37580        3.08220
H         -6.87420       -4.06420        5.69720
H         -8.55650       -5.51470        6.73890
H         -7.16590       -9.32240        9.68170
H         -7.12480       -7.66240       10.32960
H         -9.55220       -9.52980       10.39880
H         -9.50400       -7.88940       11.04870
H         -8.51410       -9.15970       11.78110
H         -3.78540       -6.50700        7.38870
H         -5.96080       -5.04850        3.74180
H        -10.10500       -5.62450        3.02070
H        -12.43780       -5.80630        2.22670
H        -14.07020       -5.28140        0.47880
H        -13.53370       -4.84430       -1.15190
H        -14.60080       -7.08790       -1.14520
H        -12.89180       -7.21630       -1.57550
H        -13.42650       -7.65520        0.04680
H        -11.12070       -4.89880       -1.74010
H        -11.18550       -1.26340       -2.17090
H        -12.74660        0.07320       -3.55100
H        -13.01000        1.82130       -5.24270
H        -11.66920        2.24080       -6.32120
H        -12.00330        0.10690       -7.56680
H        -13.47750        1.08030       -7.56770
H        -13.33820       -0.31580       -6.49410
H         -9.53700        0.98780       -6.22470
H         -3.17850       -2.66970       -5.72940
H         -1.19640       -2.97310       -4.59770
H         -0.22950       -5.18620       -4.81260
H          0.30710       -7.22920       -5.07860
H          1.62760       -8.26130       -5.64240
H          2.04440       -5.63130       -4.12100
H          2.18990       -7.24610       -3.41570
H          3.31130       -6.72400       -4.67840
H          0.54730       -1.83270       -8.34030
H         -3.89510        2.87820       -4.43650
H         -4.72940        5.18620       -4.46240
H         -4.85940        8.93090       -7.66240
H         -3.45950        8.00700       -8.23630
H         -6.31060        6.91050       -7.93220
H         -5.55150        7.35000       -9.46890
H         -4.92860        5.98930       -8.53170
H         -1.34190        3.80730       -7.74840
H          0.17460        3.47290       -5.55750
H          1.69300        3.55410       -3.48830
H          2.82950        5.73140       -2.78300
H          1.17610        7.25880       -1.79110
H         -0.57560        8.25100        2.72780
H         -0.07810        6.55730        2.89690
H          1.76900        8.88910        2.13780
H          1.70950        8.11700        3.72890
H          2.28220        7.20910        2.32870
H          2.62990        3.30440        0.74480
H          5.86330       -0.46580       -4.19080
H          7.75860       -1.70860       -5.14380
H         11.69250        0.80110       -5.78350
H         12.21710       -0.59840       -6.74070
H          9.54750        0.87390       -7.09040
H         10.93960        1.01490       -8.17010
H         10.07830       -0.52350       -8.03150
H          8.56400        2.61340       -2.93050
H          7.89640        1.38690       -0.83960
H          9.43390        1.52970        1.03430
H         11.73260       -1.52160        3.27460
H         13.29210       -2.10260        1.46530
H         14.30660        1.21740       -2.17040
H         12.71220        0.43410       -2.04120
H         13.75550        0.05770       -4.29220
H         13.50220       -1.46090       -3.42510
H         15.11950       -0.75250       -3.51230
H         11.56140        2.48990        1.78480
H          7.27240       -0.49830        7.11130
H          5.25920       -0.34470        8.46550
H          3.51800       -0.32070        9.70300
H          1.90340        0.38750        9.83910
H          3.14320       -0.58700        7.21020
H          1.90570       -1.44740        8.13510
H          1.53550        0.11890        7.39900
H          6.81630        3.59940        5.95000
H          9.34220        0.60570        8.11660
H         11.76740       -0.35020        8.16920
