
  xtb     03042206453D
 energy: -408.861308843380 gnorm: 0.000698536713 xtb: 6.4.1 (unknown)
230251  0     0  0            999 V2000
   -0.8928  -10.6243   18.3135 C   0  0  0  0  0  0  0  0  0  0  0  0
   -1.5366  -10.3715   17.1790 O   0  0  0  0  0  0  0  0  0  0  0  0
   -1.5597   -9.0214   17.0031 C   0  0  0  0  0  0  0  0  0  0  0  0
   -0.9131   -8.4135   18.0536 C   0  0  0  0  0  0  0  0  0  0  0  0
   -0.4776   -9.4571   18.9094 C   0  0  0  0  0  0  0  0  0  0  0  0
    0.2585   -9.3036   20.1658 C   0  0  0  0  0  0  0  0  0  0  0  0
    0.5983   -8.2539   20.6473 O   0  0  0  0  0  0  0  0  0  0  0  0
    0.5236  -10.4856   20.7480 O   0  0  0  0  0  0  0  0  0  0  0  0
   -2.1948   -8.4430   15.8602 C   0  0  0  0  0  0  0  0  0  0  0  0
   -2.8078   -9.1770   14.9113 C   0  0  0  0  0  0  0  0  0  0  0  0
   -3.4680   -8.7301   13.7273 C   0  0  0  0  0  0  0  0  0  0  0  0
   -3.9569   -9.7276   12.9621 O   0  0  0  0  0  0  0  0  0  0  0  0
   -4.5115   -9.2085   11.8378 C   0  0  0  0  0  0  0  0  0  0  0  0
   -4.4016   -7.8399   11.8861 C   0  0  0  0  0  0  0  0  0  0  0  0
   -3.7302   -7.5136   13.0893 C   0  0  0  0  0  0  0  0  0  0  0  0
   -3.4388   -6.1196   13.4163 C   0  0  0  0  0  0  0  0  0  0  0  0
   -3.4570   -5.2238   12.6047 O   0  0  0  0  0  0  0  0  0  0  0  0
   -3.1617   -5.8770   14.7088 O   0  0  0  0  0  0  0  0  0  0  0  0
   -5.1331  -10.1564   10.9539 C   0  0  0  0  0  0  0  0  0  0  0  0
   -5.3684  -10.1058    9.6275 C   0  0  0  0  0  0  0  0  0  0  0  0
   -4.9670   -9.1508    8.6416 C   0  0  0  0  0  0  0  0  0  0  0  0
   -5.3611   -9.1719    7.3301 C   0  0  0  0  0  0  0  0  0  0  0  0
   -4.7970   -8.1428    6.5356 C   0  0  0  0  0  0  0  0  0  0  0  0
   -4.9717   -7.8960    5.1608 C   0  0  0  0  0  0  0  0  0  0  0  0
   -5.8903   -8.6987    4.3450 C   0  0  0  0  0  0  0  0  0  0  0  0
   -5.4809   -9.2612    3.1375 C   0  0  0  0  0  0  0  0  0  0  0  0
   -6.3623   -9.9910    2.3693 C   0  0  0  0  0  0  0  0  0  0  0  0
   -7.6817  -10.1929    2.7701 C   0  0  0  0  0  0  0  0  0  0  0  0
   -8.7033  -11.1874    1.7226 S   0  0  0  0  0  0  0  0  0  0  0  0
  -10.3327  -10.3527    1.7615 C   0  0  0  0  0  0  0  0  0  0  0  0
  -10.2443   -8.9147    1.2917 C   0  0  0  0  0  0  0  0  0  0  0  0
   -8.0703   -9.6429    3.9878 C   0  0  0  0  0  0  0  0  0  0  0  0
   -9.3239   -9.8205    4.4630 F   0  0  0  0  0  0  0  0  0  0  0  0
   -7.2030   -8.8981    4.7607 C   0  0  0  0  0  0  0  0  0  0  0  0
   -4.2496   -6.8420    4.6209 C   0  0  0  0  0  0  0  0  0  0  0  0
   -3.4156   -6.0011    5.3999 C   0  0  0  0  0  0  0  0  0  0  0  0
   -3.2306   -6.2474    6.7697 C   0  0  0  0  0  0  0  0  0  0  0  0
   -2.3731   -5.3933    7.5986 C   0  0  0  0  0  0  0  0  0  0  0  0
   -2.8186   -4.9231    8.8310 C   0  0  0  0  0  0  0  0  0  0  0  0
   -2.0336   -4.1076    9.6209 C   0  0  0  0  0  0  0  0  0  0  0  0
   -0.7745   -3.7059    9.1908 C   0  0  0  0  0  0  0  0  0  0  0  0
    0.3294   -2.6639   10.0860 S   0  0  0  0  0  0  0  0  0  0  0  0
   -0.7038   -1.9666   11.4181 C   0  0  0  0  0  0  0  0  0  0  0  0
   -1.6955   -0.9435   10.8971 C   0  0  0  0  0  0  0  0  0  0  0  0
   -0.3365   -4.1865    7.9561 C   0  0  0  0  0  0  0  0  0  0  0  0
   -1.0979   -5.0227    7.1724 C   0  0  0  0  0  0  0  0  0  0  0  0
    0.8825   -3.8117    7.5012 F   0  0  0  0  0  0  0  0  0  0  0  0
   -3.9231   -7.3264    7.2960 C   0  0  0  0  0  0  0  0  0  0  0  0
   -3.8216   -7.8646    8.9466 S   0  0  0  0  0  0  0  0  0  0  0  0
   -2.8767   -4.9405    4.6377 C   0  0  0  0  0  0  0  0  0  0  0  0
   -3.2304   -4.9687    3.3199 C   0  0  0  0  0  0  0  0  0  0  0  0
   -4.2900   -6.3132    2.9543 S   0  0  0  0  0  0  0  0  0  0  0  0
   -2.7593   -4.0446    2.3381 C   0  0  0  0  0  0  0  0  0  0  0  0
   -2.0498   -2.9131    2.6161 C   0  0  0  0  0  0  0  0  0  0  0  0
   -1.6083   -2.2147    1.4691 C   0  0  0  0  0  0  0  0  0  0  0  0
   -0.8131   -1.0557    1.4397 C   0  0  0  0  0  0  0  0  0  0  0  0
   -0.2764   -0.5083    2.6906 C   0  0  0  0  0  0  0  0  0  0  0  0
    0.3491   -1.3526    3.6066 C   0  0  0  0  0  0  0  0  0  0  0  0
    0.7930   -0.8906    4.8294 C   0  0  0  0  0  0  0  0  0  0  0  0
    0.6321    0.4454    5.1817 C   0  0  0  0  0  0  0  0  0  0  0  0
    1.0788    1.1571    6.7266 S   0  0  0  0  0  0  0  0  0  0  0  0
    1.7162   -0.2423    7.7118 C   0  0  0  0  0  0  0  0  0  0  0  0
    3.1584   -0.5828    7.3910 C   0  0  0  0  0  0  0  0  0  0  0  0
    0.0475    1.2908    4.2348 C   0  0  0  0  0  0  0  0  0  0  0  0
   -0.1085    2.5963    4.5355 F   0  0  0  0  0  0  0  0  0  0  0  0
   -0.4019    0.8410    3.0135 C   0  0  0  0  0  0  0  0  0  0  0  0
   -0.5611   -0.5173    0.1883 C   0  0  0  0  0  0  0  0  0  0  0  0
   -1.0025   -1.1303   -1.0123 C   0  0  0  0  0  0  0  0  0  0  0  0
   -1.7422   -2.3270   -0.9815 C   0  0  0  0  0  0  0  0  0  0  0  0
   -2.1259   -3.0087   -2.2224 C   0  0  0  0  0  0  0  0  0  0  0  0
   -3.4271   -3.4543   -2.4344 C   0  0  0  0  0  0  0  0  0  0  0  0
   -3.7855   -4.0830   -3.6112 C   0  0  0  0  0  0  0  0  0  0  0  0
   -2.8521   -4.2984   -4.6186 C   0  0  0  0  0  0  0  0  0  0  0  0
   -3.1873   -5.0578   -6.1734 S   0  0  0  0  0  0  0  0  0  0  0  0
   -4.7214   -6.0022   -5.8792 C   0  0  0  0  0  0  0  0  0  0  0  0
   -4.5100   -7.1543   -4.9160 C   0  0  0  0  0  0  0  0  0  0  0  0
   -1.5503   -3.8492   -4.3919 C   0  0  0  0  0  0  0  0  0  0  0  0
   -1.1798   -3.2218   -3.2250 C   0  0  0  0  0  0  0  0  0  0  0  0
   -0.6156   -4.0342   -5.3474 F   0  0  0  0  0  0  0  0  0  0  0  0
   -2.0559   -2.8269    0.2731 C   0  0  0  0  0  0  0  0  0  0  0  0
   -2.9595   -4.2842    0.6145 S   0  0  0  0  0  0  0  0  0  0  0  0
   -0.6046   -0.3910   -2.1528 C   0  0  0  0  0  0  0  0  0  0  0  0
    0.1328    0.7184   -1.8589 C   0  0  0  0  0  0  0  0  0  0  0  0
    0.3615    0.9262   -0.1370 S   0  0  0  0  0  0  0  0  0  0  0  0
    0.7028    1.6248   -2.8057 C   0  0  0  0  0  0  0  0  0  0  0  0
    0.8984    1.3803   -4.1331 C   0  0  0  0  0  0  0  0  0  0  0  0
    1.4962    2.4603   -4.8268 C   0  0  0  0  0  0  0  0  0  0  0  0
    1.8067    2.5307   -6.1947 C   0  0  0  0  0  0  0  0  0  0  0  0
    1.6078    1.3669   -7.0682 C   0  0  0  0  0  0  0  0  0  0  0  0
    2.1531    0.1300   -6.7264 C   0  0  0  0  0  0  0  0  0  0  0  0
    1.9384   -0.9766   -7.5207 C   0  0  0  0  0  0  0  0  0  0  0  0
    1.1736   -0.8900   -8.6796 C   0  0  0  0  0  0  0  0  0  0  0  0
    0.9378   -2.3556   -9.6494 S   0  0  0  0  0  0  0  0  0  0  0  0
   -0.8870   -2.4050   -9.7969 C   0  0  0  0  0  0  0  0  0  0  0  0
   -1.5554   -2.4925   -8.4399 C   0  0  0  0  0  0  0  0  0  0  0  0
    0.6689    0.3579   -9.0303 C   0  0  0  0  0  0  0  0  0  0  0  0
   -0.0506    0.5105  -10.1624 F   0  0  0  0  0  0  0  0  0  0  0  0
    0.8703    1.4736   -8.2423 C   0  0  0  0  0  0  0  0  0  0  0  0
    2.3169    3.7335   -6.6527 C   0  0  0  0  0  0  0  0  0  0  0  0
    2.5425    4.8509   -5.8090 C   0  0  0  0  0  0  0  0  0  0  0  0
    2.2395    4.7764   -4.4388 C   0  0  0  0  0  0  0  0  0  0  0  0
    2.4243    5.9275   -3.5481 C   0  0  0  0  0  0  0  0  0  0  0  0
    1.9212    7.1832   -3.8888 C   0  0  0  0  0  0  0  0  0  0  0  0
    2.0676    8.2539   -3.0347 C   0  0  0  0  0  0  0  0  0  0  0  0
    2.7296    8.1233   -1.8143 C   0  0  0  0  0  0  0  0  0  0  0  0
    2.8864    9.5692   -0.8150 S   0  0  0  0  0  0  0  0  0  0  0  0
    2.8008    8.9204    0.9031 C   0  0  0  0  0  0  0  0  0  0  0  0
    2.2846   10.0154    1.8153 C   0  0  0  0  0  0  0  0  0  0  0  0
    3.2505    6.8714   -1.4997 C   0  0  0  0  0  0  0  0  0  0  0  0
    3.0904    5.7851   -2.3355 C   0  0  0  0  0  0  0  0  0  0  0  0
    3.9518    6.6806   -0.3604 F   0  0  0  0  0  0  0  0  0  0  0  0
    1.7344    3.5690   -3.9782 C   0  0  0  0  0  0  0  0  0  0  0  0
    1.2500    3.2202   -2.3382 S   0  0  0  0  0  0  0  0  0  0  0  0
    3.1278    5.9315   -6.5165 C   0  0  0  0  0  0  0  0  0  0  0  0
    3.3338    5.6731   -7.8385 C   0  0  0  0  0  0  0  0  0  0  0  0
    2.8143    4.0608   -8.2919 S   0  0  0  0  0  0  0  0  0  0  0  0
    3.8984    6.5412   -8.8189 C   0  0  0  0  0  0  0  0  0  0  0  0
    4.1662    6.2608  -10.1245 C   0  0  0  0  0  0  0  0  0  0  0  0
    4.7398    7.3479  -10.8335 C   0  0  0  0  0  0  0  0  0  0  0  0
    5.1025    7.3984  -12.1881 C   0  0  0  0  0  0  0  0  0  0  0  0
    4.9974    6.2154  -13.0506 C   0  0  0  0  0  0  0  0  0  0  0  0
    5.5658    5.0017  -12.6661 C   0  0  0  0  0  0  0  0  0  0  0  0
    5.4636    3.8913  -13.4758 C   0  0  0  0  0  0  0  0  0  0  0  0
    4.7964    3.9445  -14.6979 C   0  0  0  0  0  0  0  0  0  0  0  0
    4.7607    2.4674  -15.6714 S   0  0  0  0  0  0  0  0  0  0  0  0
    3.0472    2.4148  -16.3165 C   0  0  0  0  0  0  0  0  0  0  0  0
    2.0221    2.4149  -15.2005 C   0  0  0  0  0  0  0  0  0  0  0  0
    4.2605    5.1698  -15.0823 C   0  0  0  0  0  0  0  0  0  0  0  0
    3.6299    5.3071  -16.2689 F   0  0  0  0  0  0  0  0  0  0  0  0
    4.3453    6.2873  -14.2766 C   0  0  0  0  0  0  0  0  0  0  0  0
    5.5833    8.6125  -12.6581 C   0  0  0  0  0  0  0  0  0  0  0  0
    5.7253    9.7590  -11.8399 C   0  0  0  0  0  0  0  0  0  0  0  0
    5.3578    9.7105  -10.4866 C   0  0  0  0  0  0  0  0  0  0  0  0
    5.4419   10.8924   -9.6200 C   0  0  0  0  0  0  0  0  0  0  0  0
    6.0567   10.8315   -8.3738 C   0  0  0  0  0  0  0  0  0  0  0  0
    6.1169   11.9384   -7.5487 C   0  0  0  0  0  0  0  0  0  0  0  0
    5.5619   13.1506   -7.9418 C   0  0  0  0  0  0  0  0  0  0  0  0
    5.5388   14.6341   -6.9937 S   0  0  0  0  0  0  0  0  0  0  0  0
    6.5986   14.2735   -5.5519 C   0  0  0  0  0  0  0  0  0  0  0  0
    8.0742   14.2686   -5.9047 C   0  0  0  0  0  0  0  0  0  0  0  0
    4.9420   13.1949   -9.1929 C   0  0  0  0  0  0  0  0  0  0  0  0
    4.8761   12.1008  -10.0242 C   0  0  0  0  0  0  0  0  0  0  0  0
    4.3814   14.3511   -9.6037 F   0  0  0  0  0  0  0  0  0  0  0  0
    4.8847    8.4948  -10.0148 C   0  0  0  0  0  0  0  0  0  0  0  0
    4.3360    8.1841   -8.3872 S   0  0  0  0  0  0  0  0  0  0  0  0
    6.3052   10.8466  -12.5590 C   0  0  0  0  0  0  0  0  0  0  0  0
    6.5735   10.5425  -13.8447 C   0  0  0  0  0  0  0  0  0  0  0  0
    6.1461    8.9236  -14.2803 S   0  0  0  0  0  0  0  0  0  0  0  0
   -0.7778  -11.6468   18.6149 H   0  0  0  0  0  0  0  0  0  0  0  0
   -0.7617   -7.3661   18.2091 H   0  0  0  0  0  0  0  0  0  0  0  0
    1.0093  -10.3403   21.5754 H   0  0  0  0  0  0  0  0  0  0  0  0
   -2.1607   -7.3689   15.8070 H   0  0  0  0  0  0  0  0  0  0  0  0
   -2.8208  -10.2548   15.0162 H   0  0  0  0  0  0  0  0  0  0  0  0
   -4.7853   -7.1209   11.1953 H   0  0  0  0  0  0  0  0  0  0  0  0
   -3.0124   -4.9261   14.8344 H   0  0  0  0  0  0  0  0  0  0  0  0
   -5.4315  -11.0605   11.4703 H   0  0  0  0  0  0  0  0  0  0  0  0
   -5.9186  -10.9374    9.2032 H   0  0  0  0  0  0  0  0  0  0  0  0
   -6.0343   -9.9147    6.9406 H   0  0  0  0  0  0  0  0  0  0  0  0
   -4.4626   -9.1329    2.8050 H   0  0  0  0  0  0  0  0  0  0  0  0
   -6.0419  -10.4243    1.4347 H   0  0  0  0  0  0  0  0  0  0  0  0
  -10.7489  -10.4305    2.7633 H   0  0  0  0  0  0  0  0  0  0  0  0
  -10.9351  -10.9532    1.0797 H   0  0  0  0  0  0  0  0  0  0  0  0
   -9.6361   -8.3203    1.9714 H   0  0  0  0  0  0  0  0  0  0  0  0
   -9.8020   -8.8637    0.2990 H   0  0  0  0  0  0  0  0  0  0  0  0
  -11.2413   -8.4801    1.2541 H   0  0  0  0  0  0  0  0  0  0  0  0
   -7.5665   -8.4678    5.6813 H   0  0  0  0  0  0  0  0  0  0  0  0
   -3.8049   -5.1809    9.1815 H   0  0  0  0  0  0  0  0  0  0  0  0
   -2.4209   -3.8052   10.5791 H   0  0  0  0  0  0  0  0  0  0  0  0
    0.0203   -1.5015   12.0874 H   0  0  0  0  0  0  0  0  0  0  0  0
   -1.1894   -2.7878   11.9433 H   0  0  0  0  0  0  0  0  0  0  0  0
   -1.1738   -0.1347   10.3903 H   0  0  0  0  0  0  0  0  0  0  0  0
   -2.2639   -0.5253   11.7257 H   0  0  0  0  0  0  0  0  0  0  0  0
   -2.3910   -1.3976   10.1945 H   0  0  0  0  0  0  0  0  0  0  0  0
   -0.6854   -5.3955    6.2479 H   0  0  0  0  0  0  0  0  0  0  0  0
   -2.2505   -4.1782    5.0596 H   0  0  0  0  0  0  0  0  0  0  0  0
   -1.8621   -2.5664    3.6146 H   0  0  0  0  0  0  0  0  0  0  0  0
    0.5058   -2.3900    3.3510 H   0  0  0  0  0  0  0  0  0  0  0  0
    1.2564   -1.5867    5.5088 H   0  0  0  0  0  0  0  0  0  0  0  0
    1.0512   -1.0924    7.5767 H   0  0  0  0  0  0  0  0  0  0  0  0
    1.6265    0.1035    8.7415 H   0  0  0  0  0  0  0  0  0  0  0  0
    3.2794   -0.8479    6.3432 H   0  0  0  0  0  0  0  0  0  0  0  0
    3.4713   -1.4278    8.0011 H   0  0  0  0  0  0  0  0  0  0  0  0
    3.8047    0.2654    7.6052 H   0  0  0  0  0  0  0  0  0  0  0  0
   -0.8729    1.5380    2.3387 H   0  0  0  0  0  0  0  0  0  0  0  0
   -4.1795   -3.2855   -1.6796 H   0  0  0  0  0  0  0  0  0  0  0  0
   -4.8091   -4.3941   -3.7423 H   0  0  0  0  0  0  0  0  0  0  0  0
   -4.9865   -6.3679   -6.8713 H   0  0  0  0  0  0  0  0  0  0  0  0
   -5.4982   -5.3156   -5.5446 H   0  0  0  0  0  0  0  0  0  0  0  0
   -5.4349   -7.7167   -4.8037 H   0  0  0  0  0  0  0  0  0  0  0  0
   -4.2013   -6.7941   -3.9366 H   0  0  0  0  0  0  0  0  0  0  0  0
   -3.7400   -7.8226   -5.2944 H   0  0  0  0  0  0  0  0  0  0  0  0
   -0.1507   -2.9270   -3.0914 H   0  0  0  0  0  0  0  0  0  0  0  0
   -0.8868   -0.6545   -3.1552 H   0  0  0  0  0  0  0  0  0  0  0  0
    0.6256    0.4564   -4.6086 H   0  0  0  0  0  0  0  0  0  0  0  0
    2.7555    0.0427   -5.8348 H   0  0  0  0  0  0  0  0  0  0  0  0
    2.3518   -1.9356   -7.2506 H   0  0  0  0  0  0  0  0  0  0  0  0
   -1.0725   -3.3028  -10.3856 H   0  0  0  0  0  0  0  0  0  0  0  0
   -1.2153   -1.5344  -10.3616 H   0  0  0  0  0  0  0  0  0  0  0  0
   -2.6302   -2.6074   -8.5651 H   0  0  0  0  0  0  0  0  0  0  0  0
   -1.3699   -1.5908   -7.8579 H   0  0  0  0  0  0  0  0  0  0  0  0
   -1.1798   -3.3467   -7.8816 H   0  0  0  0  0  0  0  0  0  0  0  0
    0.4400    2.4147   -8.5476 H   0  0  0  0  0  0  0  0  0  0  0  0
    1.3810    7.3087   -4.8147 H   0  0  0  0  0  0  0  0  0  0  0  0
    1.6644    9.2200   -3.2956 H   0  0  0  0  0  0  0  0  0  0  0  0
    2.1242    8.0675    0.8903 H   0  0  0  0  0  0  0  0  0  0  0  0
    3.7975    8.5969    1.1993 H   0  0  0  0  0  0  0  0  0  0  0  0
    2.2226    9.6421    2.8353 H   0  0  0  0  0  0  0  0  0  0  0  0
    1.2956   10.3408    1.5005 H   0  0  0  0  0  0  0  0  0  0  0  0
    2.9519   10.8742    1.7976 H   0  0  0  0  0  0  0  0  0  0  0  0
    3.5215    4.8410   -2.0414 H   0  0  0  0  0  0  0  0  0  0  0  0
    3.4108    6.8627   -6.0591 H   0  0  0  0  0  0  0  0  0  0  0  0
    3.9444    5.3077  -10.5707 H   0  0  0  0  0  0  0  0  0  0  0  0
    6.1025    4.9362  -11.7318 H   0  0  0  0  0  0  0  0  0  0  0  0
    5.9021    2.9526  -13.1747 H   0  0  0  0  0  0  0  0  0  0  0  0
    2.9023    3.2441  -17.0053 H   0  0  0  0  0  0  0  0  0  0  0  0
    3.0205    1.4795  -16.8755 H   0  0  0  0  0  0  0  0  0  0  0  0
    2.0573    3.3480  -14.6409 H   0  0  0  0  0  0  0  0  0  0  0  0
    1.0244    2.3040  -15.6202 H   0  0  0  0  0  0  0  0  0  0  0  0
    2.2049    1.5927  -14.5120 H   0  0  0  0  0  0  0  0  0  0  0  0
    3.8936    7.2063  -14.6160 H   0  0  0  0  0  0  0  0  0  0  0  0
    6.5116    9.9090   -8.0468 H   0  0  0  0  0  0  0  0  0  0  0  0
    6.5985   11.8417   -6.5897 H   0  0  0  0  0  0  0  0  0  0  0  0
    6.2701   13.3360   -5.1055 H   0  0  0  0  0  0  0  0  0  0  0  0
    6.3706   15.0844   -4.8601 H   0  0  0  0  0  0  0  0  0  0  0  0
    8.3636   15.2324   -6.3167 H   0  0  0  0  0  0  0  0  0  0  0  0
    8.6673   14.0795   -5.0118 H   0  0  0  0  0  0  0  0  0  0  0  0
    8.3001   13.5008   -6.6415 H   0  0  0  0  0  0  0  0  0  0  0  0
    4.3635   12.1878  -10.9695 H   0  0  0  0  0  0  0  0  0  0  0  0
    6.5236   11.8002  -12.1140 H   0  0  0  0  0  0  0  0  0  0  0  0
    7.0073   11.1751  -14.5944 H   0  0  0  0  0  0  0  0  0  0  0  0
  1  2  1  0  0  0  0
  2  3  1  0  0  0  0
  3  4  2  0  0  0  0
  4  5  1  0  0  0  0
  5  6  1  0  0  0  0
  6  7  2  0  0  0  0
  6  8  1  0  0  0  0
  3  9  1  0  0  0  0
  9 10  2  0  0  0  0
 10 11  1  0  0  0  0
 11 12  1  0  0  0  0
 12 13  1  0  0  0  0
 13 14  2  0  0  0  0
 14 15  1  0  0  0  0
 15 16  1  0  0  0  0
 16 17  2  0  0  0  0
 16 18  1  0  0  0  0
 13 19  1  0  0  0  0
 19 20  2  0  0  0  0
 20 21  1  0  0  0  0
 21 22  2  0  0  0  0
 22 23  1  0  0  0  0
 23 24  2  0  0  0  0
 24 25  1  0  0  0  0
 25 26  2  0  0  0  0
 26 27  1  0  0  0  0
 27 28  2  0  0  0  0
 28 29  1  0  0  0  0
 29 30  1  0  0  0  0
 30 31  1  0  0  0  0
 28 32  1  0  0  0  0
 32 33  1  0  0  0  0
 32 34  2  0  0  0  0
 24 35  1  0  0  0  0
 35 36  2  0  0  0  0
 36 37  1  0  0  0  0
 37 38  1  0  0  0  0
 38 39  2  0  0  0  0
 39 40  1  0  0  0  0
 40 41  2  0  0  0  0
 41 42  1  0  0  0  0
 42 43  1  0  0  0  0
 43 44  1  0  0  0  0
 41 45  1  0  0  0  0
 45 46  2  0  0  0  0
 45 47  1  0  0  0  0
 37 48  2  0  0  0  0
 48 49  1  0  0  0  0
 36 50  1  0  0  0  0
 50 51  2  0  0  0  0
 51 52  1  0  0  0  0
 51 53  1  0  0  0  0
 53 54  2  0  0  0  0
 54 55  1  0  0  0  0
 55 56  2  0  0  0  0
 56 57  1  0  0  0  0
 57 58  2  0  0  0  0
 58 59  1  0  0  0  0
 59 60  2  0  0  0  0
 60 61  1  0  0  0  0
 61 62  1  0  0  0  0
 62 63  1  0  0  0  0
 60 64  1  0  0  0  0
 64 65  1  0  0  0  0
 64 66  2  0  0  0  0
 56 67  1  0  0  0  0
 67 68  2  0  0  0  0
 68 69  1  0  0  0  0
 69 70  1  0  0  0  0
 70 71  2  0  0  0  0
 71 72  1  0  0  0  0
 72 73  2  0  0  0  0
 73 74  1  0  0  0  0
 74 75  1  0  0  0  0
 75 76  1  0  0  0  0
 73 77  1  0  0  0  0
 77 78  2  0  0  0  0
 77 79  1  0  0  0  0
 69 80  2  0  0  0  0
 80 81  1  0  0  0  0
 68 82  1  0  0  0  0
 82 83  2  0  0  0  0
 83 84  1  0  0  0  0
 83 85  1  0  0  0  0
 85 86  2  0  0  0  0
 86 87  1  0  0  0  0
 87 88  2  0  0  0  0
 88 89  1  0  0  0  0
 89 90  2  0  0  0  0
 90 91  1  0  0  0  0
 91 92  2  0  0  0  0
 92 93  1  0  0  0  0
 93 94  1  0  0  0  0
 94 95  1  0  0  0  0
 92 96  1  0  0  0  0
 96 97  1  0  0  0  0
 96 98  2  0  0  0  0
 88 99  1  0  0  0  0
 99100  2  0  0  0  0
100101  1  0  0  0  0
101102  1  0  0  0  0
102103  2  0  0  0  0
103104  1  0  0  0  0
104105  2  0  0  0  0
105106  1  0  0  0  0
106107  1  0  0  0  0
107108  1  0  0  0  0
105109  1  0  0  0  0
109110  2  0  0  0  0
109111  1  0  0  0  0
101112  2  0  0  0  0
112113  1  0  0  0  0
100114  1  0  0  0  0
114115  2  0  0  0  0
115116  1  0  0  0  0
115117  1  0  0  0  0
117118  2  0  0  0  0
118119  1  0  0  0  0
119120  2  0  0  0  0
120121  1  0  0  0  0
121122  2  0  0  0  0
122123  1  0  0  0  0
123124  2  0  0  0  0
124125  1  0  0  0  0
125126  1  0  0  0  0
126127  1  0  0  0  0
124128  1  0  0  0  0
128129  1  0  0  0  0
128130  2  0  0  0  0
120131  1  0  0  0  0
131132  2  0  0  0  0
132133  1  0  0  0  0
133134  1  0  0  0  0
134135  2  0  0  0  0
135136  1  0  0  0  0
136137  2  0  0  0  0
137138  1  0  0  0  0
138139  1  0  0  0  0
139140  1  0  0  0  0
137141  1  0  0  0  0
141142  2  0  0  0  0
141143  1  0  0  0  0
133144  2  0  0  0  0
144145  1  0  0  0  0
132146  1  0  0  0  0
146147  2  0  0  0  0
147148  1  0  0  0  0
  5  1  2  0  0  0  0
 15 11  2  0  0  0  0
 49 21  1  0  0  0  0
 81 53  1  0  0  0  0
113 85  1  0  0  0  0
145117  1  0  0  0  0
 48 23  1  0  0  0  0
 80 55  1  0  0  0  0
112 87  1  0  0  0  0
144119  1  0  0  0  0
 34 25  1  0  0  0  0
 52 35  1  0  0  0  0
 66 57  1  0  0  0  0
 84 67  1  0  0  0  0
 98 89  1  0  0  0  0
116 99  1  0  0  0  0
130121  1  0  0  0  0
148131  1  0  0  0  0
 46 38  1  0  0  0  0
 78 70  1  0  0  0  0
110102  1  0  0  0  0
142134  1  0  0  0  0
  1149  1  0  0  0  0
  4150  1  0  0  0  0
  8151  1  0  0  0  0
  9152  1  0  0  0  0
 10153  1  0  0  0  0
 14154  1  0  0  0  0
 18155  1  0  0  0  0
 19156  1  0  0  0  0
 20157  1  0  0  0  0
 22158  1  0  0  0  0
 26159  1  0  0  0  0
 27160  1  0  0  0  0
 30161  1  0  0  0  0
 30162  1  0  0  0  0
 31163  1  0  0  0  0
 31164  1  0  0  0  0
 31165  1  0  0  0  0
 34166  1  0  0  0  0
 39167  1  0  0  0  0
 40168  1  0  0  0  0
 43169  1  0  0  0  0
 43170  1  0  0  0  0
 44171  1  0  0  0  0
 44172  1  0  0  0  0
 44173  1  0  0  0  0
 46174  1  0  0  0  0
 50175  1  0  0  0  0
 54176  1  0  0  0  0
 58177  1  0  0  0  0
 59178  1  0  0  0  0
 62179  1  0  0  0  0
 62180  1  0  0  0  0
 63181  1  0  0  0  0
 63182  1  0  0  0  0
 63183  1  0  0  0  0
 66184  1  0  0  0  0
 71185  1  0  0  0  0
 72186  1  0  0  0  0
 75187  1  0  0  0  0
 75188  1  0  0  0  0
 76189  1  0  0  0  0
 76190  1  0  0  0  0
 76191  1  0  0  0  0
 78192  1  0  0  0  0
 82193  1  0  0  0  0
 86194  1  0  0  0  0
 90195  1  0  0  0  0
 91196  1  0  0  0  0
 94197  1  0  0  0  0
 94198  1  0  0  0  0
 95199  1  0  0  0  0
 95200  1  0  0  0  0
 95201  1  0  0  0  0
 98202  1  0  0  0  0
103203  1  0  0  0  0
104204  1  0  0  0  0
107205  1  0  0  0  0
107206  1  0  0  0  0
108207  1  0  0  0  0
108208  1  0  0  0  0
108209  1  0  0  0  0
110210  1  0  0  0  0
114211  1  0  0  0  0
118212  1  0  0  0  0
122213  1  0  0  0  0
123214  1  0  0  0  0
126215  1  0  0  0  0
126216  1  0  0  0  0
127217  1  0  0  0  0
127218  1  0  0  0  0
127219  1  0  0  0  0
130220  1  0  0  0  0
135221  1  0  0  0  0
136222  1  0  0  0  0
139223  1  0  0  0  0
139224  1  0  0  0  0
140225  1  0  0  0  0
140226  1  0  0  0  0
140227  1  0  0  0  0
142228  1  0  0  0  0
146229  1  0  0  0  0
147230  1  0  0  0  0
M  END
