
  xtb     03012217023D
 energy: -469.993145080949 gnorm: 0.000951423301 xtb: 6.4.1 (unknown)
234260  0     0  0            999 V2000
    4.0714   -5.7105   19.7504 C   0  0  0  0  0  0  0  0  0  0  0  0
    4.6509   -4.5603   19.3515 C   0  0  0  0  0  0  0  0  0  0  0  0
    4.1111   -4.0615   18.1295 C   0  0  0  0  0  0  0  0  0  0  0  0
    4.4472   -2.8792   17.4492 C   0  0  0  0  0  0  0  0  0  0  0  0
    5.4900   -1.9883   17.9333 C   0  0  0  0  0  0  0  0  0  0  0  0
    7.1005   -2.5663   18.2457 S   0  0  0  0  0  0  0  0  0  0  0  0
    7.6634   -0.9933   18.6977 C   0  0  0  0  0  0  0  0  0  0  0  0
    9.0873   -0.7578   19.0629 C   0  0  0  0  0  0  0  0  0  0  0  0
    9.9423   -0.5332   17.8134 C   0  0  0  0  0  0  0  0  0  0  0  0
    6.6530   -0.0844   18.6008 C   0  0  0  0  0  0  0  0  0  0  0  0
    6.8268    1.5819   18.9713 Cl  0  0  0  0  0  0  0  0  0  0  0  0
    5.4196   -0.6438   18.1697 C   0  0  0  0  0  0  0  0  0  0  0  0
    3.9830    0.2824   18.0480 Cl  0  0  0  0  0  0  0  0  0  0  0  0
    3.7524   -2.6057   16.2767 C   0  0  0  0  0  0  0  0  0  0  0  0
    2.7435   -3.4635   15.7772 C   0  0  0  0  0  0  0  0  0  0  0  0
    2.3734   -4.6223   16.4791 C   0  0  0  0  0  0  0  0  0  0  0  0
    1.2960   -5.4559   15.9738 C   0  0  0  0  0  0  0  0  0  0  0  0
    1.5030   -7.1581   15.6901 S   0  0  0  0  0  0  0  0  0  0  0  0
   -0.0896   -7.3222   15.0339 C   0  0  0  0  0  0  0  0  0  0  0  0
   -0.5696   -8.6157   14.4749 C   0  0  0  0  0  0  0  0  0  0  0  0
   -0.2433   -8.7111   12.9820 C   0  0  0  0  0  0  0  0  0  0  0  0
   -0.7343   -6.1210   15.0459 C   0  0  0  0  0  0  0  0  0  0  0  0
    0.0445   -5.0625   15.5820 C   0  0  0  0  0  0  0  0  0  0  0  0
   -0.5765   -3.4723   15.7747 Cl  0  0  0  0  0  0  0  0  0  0  0  0
   -2.3310   -5.8867   14.4666 Cl  0  0  0  0  0  0  0  0  0  0  0  0
    3.0856   -4.9043   17.6364 C   0  0  0  0  0  0  0  0  0  0  0  0
    2.8297   -6.2704   18.6840 S   0  0  0  0  0  0  0  0  0  0  0  0
    2.2479   -3.0248   14.5291 C   0  0  0  0  0  0  0  0  0  0  0  0
    2.8130   -1.8622   14.0938 C   0  0  0  0  0  0  0  0  0  0  0  0
    4.0271   -1.2634   15.1993 S   0  0  0  0  0  0  0  0  0  0  0  0
    2.4570   -1.2097   12.8739 C   0  0  0  0  0  0  0  0  0  0  0  0
    1.3280   -1.4847   12.1583 C   0  0  0  0  0  0  0  0  0  0  0  0
    1.2586   -0.7979   10.9268 C   0  0  0  0  0  0  0  0  0  0  0  0
    0.2937   -0.9533    9.9179 C   0  0  0  0  0  0  0  0  0  0  0  0
   -0.7591   -1.9465   10.0538 C   0  0  0  0  0  0  0  0  0  0  0  0
   -2.4371   -1.5421    9.8471 S   0  0  0  0  0  0  0  0  0  0  0  0
   -2.9514   -3.1557   10.2021 C   0  0  0  0  0  0  0  0  0  0  0  0
   -4.3943   -3.5164   10.2703 C   0  0  0  0  0  0  0  0  0  0  0  0
   -4.9230   -3.3705   11.6996 C   0  0  0  0  0  0  0  0  0  0  0  0
   -1.8744   -3.9502   10.4611 C   0  0  0  0  0  0  0  0  0  0  0  0
   -1.9883   -5.6140   10.8563 Cl  0  0  0  0  0  0  0  0  0  0  0  0
   -0.6308   -3.2718   10.3717 C   0  0  0  0  0  0  0  0  0  0  0  0
    0.8692   -4.0870   10.5660 Cl  0  0  0  0  0  0  0  0  0  0  0  0
    0.4363   -0.1577    8.7917 C   0  0  0  0  0  0  0  0  0  0  0  0
    1.5082    0.7543    8.6223 C   0  0  0  0  0  0  0  0  0  0  0  0
    2.4851    0.8922    9.6259 C   0  0  0  0  0  0  0  0  0  0  0  0
    3.6063    1.8047    9.4765 C   0  0  0  0  0  0  0  0  0  0  0  0
    4.6380    1.7559    8.0765 S   0  0  0  0  0  0  0  0  0  0  0  0
    5.6467    3.0283    8.6757 C   0  0  0  0  0  0  0  0  0  0  0  0
    6.8457    3.4811    7.9188 C   0  0  0  0  0  0  0  0  0  0  0  0
    8.0123    2.5088    8.1071 C   0  0  0  0  0  0  0  0  0  0  0  0
    5.1998    3.4524    9.8910 C   0  0  0  0  0  0  0  0  0  0  0  0
    4.0429    2.7646   10.3475 C   0  0  0  0  0  0  0  0  0  0  0  0
    3.2463    3.1822   11.8058 Cl  0  0  0  0  0  0  0  0  0  0  0  0
    5.9399    4.7043   10.8013 Cl  0  0  0  0  0  0  0  0  0  0  0  0
    2.3431    0.0975   10.7571 C   0  0  0  0  0  0  0  0  0  0  0  0
    3.4579   -0.0097   12.0919 S   0  0  0  0  0  0  0  0  0  0  0  0
    1.4381    1.4161    7.3713 C   0  0  0  0  0  0  0  0  0  0  0  0
    0.3857    1.0176    6.6023 C   0  0  0  0  0  0  0  0  0  0  0  0
   -0.6050   -0.1888    7.3997 S   0  0  0  0  0  0  0  0  0  0  0  0
    0.0590    1.4235    5.2765 C   0  0  0  0  0  0  0  0  0  0  0  0
   -0.9874    0.9826    4.5216 C   0  0  0  0  0  0  0  0  0  0  0  0
   -1.0036    1.5158    3.2117 C   0  0  0  0  0  0  0  0  0  0  0  0
   -1.8843    1.1973    2.1633 C   0  0  0  0  0  0  0  0  0  0  0  0
   -3.0108    0.3036    2.3760 C   0  0  0  0  0  0  0  0  0  0  0  0
   -4.1378    0.5948    3.6698 S   0  0  0  0  0  0  0  0  0  0  0  0
   -5.0896   -0.7920    3.2635 C   0  0  0  0  0  0  0  0  0  0  0  0
   -6.2647   -1.1846    4.0886 C   0  0  0  0  0  0  0  0  0  0  0  0
   -5.8163   -1.8451    5.3947 C   0  0  0  0  0  0  0  0  0  0  0  0
   -4.5520   -1.4328    2.1880 C   0  0  0  0  0  0  0  0  0  0  0  0
   -5.2110   -2.8543    1.4903 Cl  0  0  0  0  0  0  0  0  0  0  0  0
   -3.3769   -0.8154    1.6798 C   0  0  0  0  0  0  0  0  0  0  0  0
   -2.4814   -1.5006    0.3896 Cl  0  0  0  0  0  0  0  0  0  0  0  0
   -1.6129    1.7634    0.9255 C   0  0  0  0  0  0  0  0  0  0  0  0
   -0.5169    2.6330    0.6914 C   0  0  0  0  0  0  0  0  0  0  0  0
    0.3399    2.9799    1.7509 C   0  0  0  0  0  0  0  0  0  0  0  0
    1.4673    3.8778    1.5627 C   0  0  0  0  0  0  0  0  0  0  0  0
    2.6610    3.5955    0.3294 S   0  0  0  0  0  0  0  0  0  0  0  0
    3.5896    4.9776    0.7981 C   0  0  0  0  0  0  0  0  0  0  0  0
    4.8759    5.3107    0.1268 C   0  0  0  0  0  0  0  0  0  0  0  0
    6.0477    4.6046    0.8135 C   0  0  0  0  0  0  0  0  0  0  0  0
    2.9993    5.6080    1.8524 C   0  0  0  0  0  0  0  0  0  0  0  0
    1.7961    4.9905    2.2873 C   0  0  0  0  0  0  0  0  0  0  0  0
    0.8296    5.6471    3.5405 Cl  0  0  0  0  0  0  0  0  0  0  0  0
    3.6286    7.0214    2.5941 Cl  0  0  0  0  0  0  0  0  0  0  0  0
    0.0808    2.3993    2.9869 C   0  0  0  0  0  0  0  0  0  0  0  0
    1.0746    2.5534    4.4083 S   0  0  0  0  0  0  0  0  0  0  0  0
   -0.4484    3.0399   -0.6644 C   0  0  0  0  0  0  0  0  0  0  0  0
   -1.4345    2.5069   -1.4403 C   0  0  0  0  0  0  0  0  0  0  0  0
   -2.5437    1.5143   -0.5184 S   0  0  0  0  0  0  0  0  0  0  0  0
   -1.5890    2.5563   -2.8556 C   0  0  0  0  0  0  0  0  0  0  0  0
   -2.4958    1.8412   -3.5800 C   0  0  0  0  0  0  0  0  0  0  0  0
   -2.3196    1.9498   -4.9781 C   0  0  0  0  0  0  0  0  0  0  0  0
   -2.9970    1.2345   -5.9823 C   0  0  0  0  0  0  0  0  0  0  0  0
   -4.0189    0.2586   -5.6439 C   0  0  0  0  0  0  0  0  0  0  0  0
   -3.7196   -0.9778   -4.4556 S   0  0  0  0  0  0  0  0  0  0  0  0
   -5.3091   -1.6410   -4.6239 C   0  0  0  0  0  0  0  0  0  0  0  0
   -5.7478   -2.7923   -3.7877 C   0  0  0  0  0  0  0  0  0  0  0  0
   -5.5847   -2.4967   -2.2971 C   0  0  0  0  0  0  0  0  0  0  0  0
   -6.0135   -0.9417   -5.5578 C   0  0  0  0  0  0  0  0  0  0  0  0
   -7.6332   -1.2932   -6.0037 Cl  0  0  0  0  0  0  0  0  0  0  0  0
   -5.2852    0.1302   -6.1427 C   0  0  0  0  0  0  0  0  0  0  0  0
   -5.9851    1.1963   -7.2868 Cl  0  0  0  0  0  0  0  0  0  0  0  0
   -2.5947    1.4633   -7.2910 C   0  0  0  0  0  0  0  0  0  0  0  0
   -1.5807    2.3939   -7.6230 C   0  0  0  0  0  0  0  0  0  0  0  0
   -0.8876    3.0954   -6.6188 C   0  0  0  0  0  0  0  0  0  0  0  0
    0.2383    3.9473   -6.9616 C   0  0  0  0  0  0  0  0  0  0  0  0
    1.4881    3.3618   -8.0286 S   0  0  0  0  0  0  0  0  0  0  0  0
    2.3819    4.8414   -7.9390 C   0  0  0  0  0  0  0  0  0  0  0  0
    3.6344    5.0185   -8.7228 C   0  0  0  0  0  0  0  0  0  0  0  0
    4.6644    3.9344   -8.4087 C   0  0  0  0  0  0  0  0  0  0  0  0
    1.7468    5.7191   -7.1132 C   0  0  0  0  0  0  0  0  0  0  0  0
    0.5358    5.2183   -6.5574 C   0  0  0  0  0  0  0  0  0  0  0  0
   -0.4742    6.1787   -5.5616 Cl  0  0  0  0  0  0  0  0  0  0  0  0
    2.3208    7.2992   -6.7675 Cl  0  0  0  0  0  0  0  0  0  0  0  0
   -1.2716    2.8468   -5.3071 C   0  0  0  0  0  0  0  0  0  0  0  0
   -0.4996    3.4696   -3.8749 S   0  0  0  0  0  0  0  0  0  0  0  0
   -1.3362    2.4337   -9.0161 C   0  0  0  0  0  0  0  0  0  0  0  0
   -2.0423    1.5056   -9.7253 C   0  0  0  0  0  0  0  0  0  0  0  0
   -3.1461    0.6056   -8.7004 S   0  0  0  0  0  0  0  0  0  0  0  0
   -1.9085    1.1680  -11.1056 C   0  0  0  0  0  0  0  0  0  0  0  0
   -3.1414    0.2622  -11.9201 S   0  0  0  0  0  0  0  0  0  0  0  0
   -2.1962    0.1889  -13.3776 C   0  0  0  0  0  0  0  0  0  0  0  0
   -0.9935    0.8562  -13.2268 C   0  0  0  0  0  0  0  0  0  0  0  0
   -0.8269    1.3983  -11.9373 C   0  0  0  0  0  0  0  0  0  0  0  0
    0.4261    2.0925  -11.5115 C   0  0  0  0  0  0  0  0  0  0  0  0
    1.5827    1.7980  -12.4695 C   0  0  0  0  0  0  0  0  0  0  0  0
    2.7281    2.7162  -12.1682 C   0  0  0  0  0  0  0  0  0  0  0  0
    2.6576    3.8503  -11.7907 O   0  0  0  0  0  0  0  0  0  0  0  0
    4.1247    2.0613  -12.3903 C   0  0  0  0  0  0  0  0  0  0  0  0
    4.3089    1.0558  -11.5189 F   0  0  0  0  0  0  0  0  0  0  0  0
    4.2356    1.5319  -13.6192 F   0  0  0  0  0  0  0  0  0  0  0  0
    5.1266    2.9203  -12.2297 F   0  0  0  0  0  0  0  0  0  0  0  0
    1.1014    2.0493  -13.9111 C   0  0  0  0  0  0  0  0  0  0  0  0
    0.0580    0.9993  -14.2841 C   0  0  0  0  0  0  0  0  0  0  0  0
   -2.7131   -0.5390  -14.4928 C   0  0  0  0  0  0  0  0  0  0  0  0
   -2.0915   -0.9218  -15.6460 C   0  0  0  0  0  0  0  0  0  0  0  0
   -2.9158   -1.6815  -16.5134 C   0  0  0  0  0  0  0  0  0  0  0  0
   -2.5753   -2.2320  -17.7602 C   0  0  0  0  0  0  0  0  0  0  0  0
   -1.2382   -2.0762  -18.3108 C   0  0  0  0  0  0  0  0  0  0  0  0
    0.1689   -2.5613  -17.4085 S   0  0  0  0  0  0  0  0  0  0  0  0
    1.2474   -2.0849  -18.6765 C   0  0  0  0  0  0  0  0  0  0  0  0
    2.7229   -2.1904  -18.5089 C   0  0  0  0  0  0  0  0  0  0  0  0
    3.2605   -1.0356  -17.6602 C   0  0  0  0  0  0  0  0  0  0  0  0
    0.5439   -1.5757  -19.7260 C   0  0  0  0  0  0  0  0  0  0  0  0
    1.2650   -0.9847  -21.1665 Cl  0  0  0  0  0  0  0  0  0  0  0  0
   -0.8641   -1.5744  -19.5255 C   0  0  0  0  0  0  0  0  0  0  0  0
   -1.9523   -0.9167  -20.6738 Cl  0  0  0  0  0  0  0  0  0  0  0  0
   -3.5693   -2.9347  -18.4308 C   0  0  0  0  0  0  0  0  0  0  0  0
   -4.8732   -3.1106  -17.9072 C   0  0  0  0  0  0  0  0  0  0  0  0
   -5.2028   -2.5841  -16.6484 C   0  0  0  0  0  0  0  0  0  0  0  0
   -6.5044   -2.8193  -16.0452 C   0  0  0  0  0  0  0  0  0  0  0  0
   -7.4780   -1.5144  -15.4373 S   0  0  0  0  0  0  0  0  0  0  0  0
   -8.7330   -2.5874  -14.9229 C   0  0  0  0  0  0  0  0  0  0  0  0
   -9.9389   -2.0824  -14.2110 C   0  0  0  0  0  0  0  0  0  0  0  0
   -9.6991   -2.0511  -12.6995 C   0  0  0  0  0  0  0  0  0  0  0  0
   -8.3966   -3.8792  -15.1996 C   0  0  0  0  0  0  0  0  0  0  0  0
   -7.1358   -4.0149  -15.8392 C   0  0  0  0  0  0  0  0  0  0  0  0
   -6.4560   -5.5439  -16.2230 Cl  0  0  0  0  0  0  0  0  0  0  0  0
   -9.3906   -5.2272  -14.8254 Cl  0  0  0  0  0  0  0  0  0  0  0  0
   -4.2177   -1.8593  -15.9905 C   0  0  0  0  0  0  0  0  0  0  0  0
   -4.3756   -1.1041  -14.4321 S   0  0  0  0  0  0  0  0  0  0  0  0
   -5.7029   -3.8453  -18.8037 C   0  0  0  0  0  0  0  0  0  0  0  0
   -5.0500   -4.2410  -19.9152 C   0  0  0  0  0  0  0  0  0  0  0  0
   -3.3967   -3.7385  -19.9646 S   0  0  0  0  0  0  0  0  0  0  0  0
    4.2905   -6.2879   20.6272 H   0  0  0  0  0  0  0  0  0  0  0  0
    5.4336   -4.0676   19.8982 H   0  0  0  0  0  0  0  0  0  0  0  0
    9.4685   -1.6195   19.6136 H   0  0  0  0  0  0  0  0  0  0  0  0
    9.1417    0.1224   19.7061 H   0  0  0  0  0  0  0  0  0  0  0  0
    9.8986   -1.4048   17.1645 H   0  0  0  0  0  0  0  0  0  0  0  0
    9.5812    0.3301   17.2605 H   0  0  0  0  0  0  0  0  0  0  0  0
   10.9770   -0.3590   18.0957 H   0  0  0  0  0  0  0  0  0  0  0  0
   -1.6502   -8.6832   14.6161 H   0  0  0  0  0  0  0  0  0  0  0  0
   -0.0933   -9.4402   15.0075 H   0  0  0  0  0  0  0  0  0  0  0  0
   -0.7207   -7.8992   12.4394 H   0  0  0  0  0  0  0  0  0  0  0  0
   -0.6009   -9.6554   12.5805 H   0  0  0  0  0  0  0  0  0  0  0  0
    0.8309   -8.6484   12.8256 H   0  0  0  0  0  0  0  0  0  0  0  0
    1.5292   -3.5760   13.9539 H   0  0  0  0  0  0  0  0  0  0  0  0
    0.5569   -2.1428   12.5100 H   0  0  0  0  0  0  0  0  0  0  0  0
   -4.5153   -4.5512    9.9428 H   0  0  0  0  0  0  0  0  0  0  0  0
   -4.9614   -2.8679    9.6009 H   0  0  0  0  0  0  0  0  0  0  0  0
   -4.8097   -2.3444   12.0413 H   0  0  0  0  0  0  0  0  0  0  0  0
   -4.3739   -4.0233   12.3734 H   0  0  0  0  0  0  0  0  0  0  0  0
   -5.9756   -3.6375   11.7378 H   0  0  0  0  0  0  0  0  0  0  0  0
    7.1302    4.4711    8.2788 H   0  0  0  0  0  0  0  0  0  0  0  0
    6.6006    3.5513    6.8574 H   0  0  0  0  0  0  0  0  0  0  0  0
    8.8811    2.8565    7.5549 H   0  0  0  0  0  0  0  0  0  0  0  0
    8.2746    2.4346    9.1593 H   0  0  0  0  0  0  0  0  0  0  0  0
    7.7406    1.5199    7.7459 H   0  0  0  0  0  0  0  0  0  0  0  0
    2.1442    2.1564    7.0414 H   0  0  0  0  0  0  0  0  0  0  0  0
   -1.7072    0.2757    4.8923 H   0  0  0  0  0  0  0  0  0  0  0  0
   -6.8774   -1.8809    3.5139 H   0  0  0  0  0  0  0  0  0  0  0  0
   -6.8618   -0.3000    4.3180 H   0  0  0  0  0  0  0  0  0  0  0  0
   -5.2282   -2.7351    5.1850 H   0  0  0  0  0  0  0  0  0  0  0  0
   -5.2087   -1.1563    5.9771 H   0  0  0  0  0  0  0  0  0  0  0  0
   -6.6832   -2.1313    5.9841 H   0  0  0  0  0  0  0  0  0  0  0  0
    4.8282    5.0052   -0.9196 H   0  0  0  0  0  0  0  0  0  0  0  0
    5.0256    6.3912    0.1710 H   0  0  0  0  0  0  0  0  0  0  0  0
    6.1170    4.9154    1.8527 H   0  0  0  0  0  0  0  0  0  0  0  0
    6.9789    4.8536    0.3120 H   0  0  0  0  0  0  0  0  0  0  0  0
    5.9103    3.5264    0.7812 H   0  0  0  0  0  0  0  0  0  0  0  0
    0.3163    3.6814   -1.0632 H   0  0  0  0  0  0  0  0  0  0  0  0
   -3.2501    1.2349   -3.1134 H   0  0  0  0  0  0  0  0  0  0  0  0
   -6.7933   -3.0043   -4.0170 H   0  0  0  0  0  0  0  0  0  0  0  0
   -5.1561   -3.6749   -4.0450 H   0  0  0  0  0  0  0  0  0  0  0  0
   -5.9277   -3.3432   -1.7084 H   0  0  0  0  0  0  0  0  0  0  0  0
   -4.5404   -2.3088   -2.0597 H   0  0  0  0  0  0  0  0  0  0  0  0
   -6.1655   -1.6215   -2.0164 H   0  0  0  0  0  0  0  0  0  0  0  0
    3.3932    4.9802   -9.7892 H   0  0  0  0  0  0  0  0  0  0  0  0
    4.0452    6.0041   -8.4996 H   0  0  0  0  0  0  0  0  0  0  0  0
    4.9461    3.9684   -7.3590 H   0  0  0  0  0  0  0  0  0  0  0  0
    5.5540    4.0810   -9.0148 H   0  0  0  0  0  0  0  0  0  0  0  0
    4.2555    2.9496   -8.6253 H   0  0  0  0  0  0  0  0  0  0  0  0
   -0.6901    3.1588   -9.4661 H   0  0  0  0  0  0  0  0  0  0  0  0
    0.2700    3.1753  -11.4949 H   0  0  0  0  0  0  0  0  0  0  0  0
    0.6957    1.7776  -10.5005 H   0  0  0  0  0  0  0  0  0  0  0  0
    1.9062    0.7568  -12.3813 H   0  0  0  0  0  0  0  0  0  0  0  0
    0.6669    3.0488  -13.9636 H   0  0  0  0  0  0  0  0  0  0  0  0
    1.9340    1.9971  -14.6137 H   0  0  0  0  0  0  0  0  0  0  0  0
    0.5528    0.0337  -14.4297 H   0  0  0  0  0  0  0  0  0  0  0  0
   -0.4075    1.2841  -15.2299 H   0  0  0  0  0  0  0  0  0  0  0  0
   -1.0697   -0.7026  -15.8799 H   0  0  0  0  0  0  0  0  0  0  0  0
    3.1883   -2.1693  -19.4955 H   0  0  0  0  0  0  0  0  0  0  0  0
    2.9680   -3.1383  -18.0263 H   0  0  0  0  0  0  0  0  0  0  0  0
    4.3365   -1.1272  -17.5424 H   0  0  0  0  0  0  0  0  0  0  0  0
    2.8009   -1.0459  -16.6747 H   0  0  0  0  0  0  0  0  0  0  0  0
    3.0424   -0.0836  -18.1373 H   0  0  0  0  0  0  0  0  0  0  0  0
  -10.1742   -1.0772  -14.5644 H   0  0  0  0  0  0  0  0  0  0  0  0
  -10.7820   -2.7399  -14.4332 H   0  0  0  0  0  0  0  0  0  0  0  0
   -8.8472   -1.4181  -12.4656 H   0  0  0  0  0  0  0  0  0  0  0  0
  -10.5758   -1.6607  -12.1901 H   0  0  0  0  0  0  0  0  0  0  0  0
   -9.4991   -3.0529  -12.3300 H   0  0  0  0  0  0  0  0  0  0  0  0
   -6.7407   -4.0502  -18.6176 H   0  0  0  0  0  0  0  0  0  0  0  0
   -5.4376   -4.8053  -20.7408 H   0  0  0  0  0  0  0  0  0  0  0  0
  1  2  2  0  0  0  0
  2  3  1  0  0  0  0
  3  4  2  0  0  0  0
  4  5  1  0  0  0  0
  5  6  1  0  0  0  0
  6  7  1  0  0  0  0
  7  8  1  0  0  0  0
  8  9  1  0  0  0  0
  7 10  2  0  0  0  0
 10 11  1  0  0  0  0
 10 12  1  0  0  0  0
 12 13  1  0  0  0  0
  4 14  1  0  0  0  0
 14 15  2  0  0  0  0
 15 16  1  0  0  0  0
 16 17  1  0  0  0  0
 17 18  1  0  0  0  0
 18 19  1  0  0  0  0
 19 20  1  0  0  0  0
 20 21  1  0  0  0  0
 19 22  2  0  0  0  0
 22 23  1  0  0  0  0
 23 24  1  0  0  0  0
 22 25  1  0  0  0  0
 16 26  2  0  0  0  0
 26 27  1  0  0  0  0
 15 28  1  0  0  0  0
 28 29  2  0  0  0  0
 29 30  1  0  0  0  0
 29 31  1  0  0  0  0
 31 32  2  0  0  0  0
 32 33  1  0  0  0  0
 33 34  2  0  0  0  0
 34 35  1  0  0  0  0
 35 36  1  0  0  0  0
 36 37  1  0  0  0  0
 37 38  1  0  0  0  0
 38 39  1  0  0  0  0
 37 40  2  0  0  0  0
 40 41  1  0  0  0  0
 40 42  1  0  0  0  0
 42 43  1  0  0  0  0
 34 44  1  0  0  0  0
 44 45  2  0  0  0  0
 45 46  1  0  0  0  0
 46 47  1  0  0  0  0
 47 48  1  0  0  0  0
 48 49  1  0  0  0  0
 49 50  1  0  0  0  0
 50 51  1  0  0  0  0
 49 52  2  0  0  0  0
 52 53  1  0  0  0  0
 53 54  1  0  0  0  0
 52 55  1  0  0  0  0
 46 56  2  0  0  0  0
 56 57  1  0  0  0  0
 45 58  1  0  0  0  0
 58 59  2  0  0  0  0
 59 60  1  0  0  0  0
 59 61  1  0  0  0  0
 61 62  2  0  0  0  0
 62 63  1  0  0  0  0
 63 64  2  0  0  0  0
 64 65  1  0  0  0  0
 65 66  1  0  0  0  0
 66 67  1  0  0  0  0
 67 68  1  0  0  0  0
 68 69  1  0  0  0  0
 67 70  2  0  0  0  0
 70 71  1  0  0  0  0
 70 72  1  0  0  0  0
 72 73  1  0  0  0  0
 64 74  1  0  0  0  0
 74 75  2  0  0  0  0
 75 76  1  0  0  0  0
 76 77  1  0  0  0  0
 77 78  1  0  0  0  0
 78 79  1  0  0  0  0
 79 80  1  0  0  0  0
 80 81  1  0  0  0  0
 79 82  2  0  0  0  0
 82 83  1  0  0  0  0
 83 84  1  0  0  0  0
 82 85  1  0  0  0  0
 76 86  2  0  0  0  0
 86 87  1  0  0  0  0
 75 88  1  0  0  0  0
 88 89  2  0  0  0  0
 89 90  1  0  0  0  0
 89 91  1  0  0  0  0
 91 92  2  0  0  0  0
 92 93  1  0  0  0  0
 93 94  2  0  0  0  0
 94 95  1  0  0  0  0
 95 96  1  0  0  0  0
 96 97  1  0  0  0  0
 97 98  1  0  0  0  0
 98 99  1  0  0  0  0
 97100  2  0  0  0  0
100101  1  0  0  0  0
100102  1  0  0  0  0
102103  1  0  0  0  0
 94104  1  0  0  0  0
104105  2  0  0  0  0
105106  1  0  0  0  0
106107  1  0  0  0  0
107108  1  0  0  0  0
108109  1  0  0  0  0
109110  1  0  0  0  0
110111  1  0  0  0  0
109112  2  0  0  0  0
112113  1  0  0  0  0
113114  1  0  0  0  0
112115  1  0  0  0  0
106116  2  0  0  0  0
116117  1  0  0  0  0
105118  1  0  0  0  0
118119  2  0  0  0  0
119120  1  0  0  0  0
119121  1  0  0  0  0
121122  1  0  0  0  0
122123  1  0  0  0  0
123124  2  0  0  0  0
124125  1  0  0  0  0
125126  1  0  0  0  0
126127  1  0  0  0  0
127128  1  0  0  0  0
128129  2  0  0  0  0
128130  1  0  0  0  0
130131  1  0  0  0  0
130132  1  0  0  0  0
130133  1  0  0  0  0
127134  1  0  0  0  0
134135  1  0  0  0  0
123136  1  0  0  0  0
136137  2  0  0  0  0
137138  1  0  0  0  0
138139  2  0  0  0  0
139140  1  0  0  0  0
140141  1  0  0  0  0
141142  1  0  0  0  0
142143  1  0  0  0  0
143144  1  0  0  0  0
142145  2  0  0  0  0
145146  1  0  0  0  0
145147  1  0  0  0  0
147148  1  0  0  0  0
139149  1  0  0  0  0
149150  2  0  0  0  0
150151  1  0  0  0  0
151152  1  0  0  0  0
152153  1  0  0  0  0
153154  1  0  0  0  0
154155  1  0  0  0  0
155156  1  0  0  0  0
154157  2  0  0  0  0
157158  1  0  0  0  0
158159  1  0  0  0  0
157160  1  0  0  0  0
151161  2  0  0  0  0
161162  1  0  0  0  0
150163  1  0  0  0  0
163164  2  0  0  0  0
164165  1  0  0  0  0
 27  1  1  0  0  0  0
 57 31  1  0  0  0  0
 87 61  1  0  0  0  0
117 91  1  0  0  0  0
125121  2  0  0  0  0
162136  1  0  0  0  0
 26  3  1  0  0  0  0
 56 33  1  0  0  0  0
 86 63  1  0  0  0  0
116 93  1  0  0  0  0
135124  1  0  0  0  0
161138  1  0  0  0  0
 12  5  2  0  0  0  0
 30 14  1  0  0  0  0
 42 35  2  0  0  0  0
 60 44  1  0  0  0  0
 72 65  2  0  0  0  0
 90 74  1  0  0  0  0
102 95  2  0  0  0  0
120104  1  0  0  0  0
147140  2  0  0  0  0
165149  1  0  0  0  0
 23 17  2  0  0  0  0
 53 47  2  0  0  0  0
 83 77  2  0  0  0  0
113107  2  0  0  0  0
158152  2  0  0  0  0
  1166  1  0  0  0  0
  2167  1  0  0  0  0
  8168  1  0  0  0  0
  8169  1  0  0  0  0
  9170  1  0  0  0  0
  9171  1  0  0  0  0
  9172  1  0  0  0  0
 20173  1  0  0  0  0
 20174  1  0  0  0  0
 21175  1  0  0  0  0
 21176  1  0  0  0  0
 21177  1  0  0  0  0
 28178  1  0  0  0  0
 32179  1  0  0  0  0
 38180  1  0  0  0  0
 38181  1  0  0  0  0
 39182  1  0  0  0  0
 39183  1  0  0  0  0
 39184  1  0  0  0  0
 50185  1  0  0  0  0
 50186  1  0  0  0  0
 51187  1  0  0  0  0
 51188  1  0  0  0  0
 51189  1  0  0  0  0
 58190  1  0  0  0  0
 62191  1  0  0  0  0
 68192  1  0  0  0  0
 68193  1  0  0  0  0
 69194  1  0  0  0  0
 69195  1  0  0  0  0
 69196  1  0  0  0  0
 80197  1  0  0  0  0
 80198  1  0  0  0  0
 81199  1  0  0  0  0
 81200  1  0  0  0  0
 81201  1  0  0  0  0
 88202  1  0  0  0  0
 92203  1  0  0  0  0
 98204  1  0  0  0  0
 98205  1  0  0  0  0
 99206  1  0  0  0  0
 99207  1  0  0  0  0
 99208  1  0  0  0  0
110209  1  0  0  0  0
110210  1  0  0  0  0
111211  1  0  0  0  0
111212  1  0  0  0  0
111213  1  0  0  0  0
118214  1  0  0  0  0
126215  1  0  0  0  0
126216  1  0  0  0  0
127217  1  0  0  0  0
134218  1  0  0  0  0
134219  1  0  0  0  0
135220  1  0  0  0  0
135221  1  0  0  0  0
137222  1  0  0  0  0
143223  1  0  0  0  0
143224  1  0  0  0  0
144225  1  0  0  0  0
144226  1  0  0  0  0
144227  1  0  0  0  0
155228  1  0  0  0  0
155229  1  0  0  0  0
156230  1  0  0  0  0
156231  1  0  0  0  0
156232  1  0  0  0  0
163233  1  0  0  0  0
164234  1  0  0  0  0
M  END
