234

C          4.07140       -5.71050       19.75040
C          4.65090       -4.56030       19.35150
C          4.11110       -4.06150       18.12950
C          4.44720       -2.87920       17.44920
C          5.49000       -1.98830       17.93330
S          7.10050       -2.56630       18.24570
C          7.66340       -0.99330       18.69770
C          9.08730       -0.75780       19.06290
C          9.94230       -0.53320       17.81340
C          6.65300       -0.08440       18.60080
Cl         6.82680        1.58190       18.97130
C          5.41960       -0.64380       18.16970
Cl         3.98300        0.28240       18.04800
C          3.75240       -2.60570       16.27670
C          2.74350       -3.46350       15.77720
C          2.37340       -4.62230       16.47910
C          1.29600       -5.45590       15.97380
S          1.50300       -7.15810       15.69010
C         -0.08960       -7.32220       15.03390
C         -0.56960       -8.61570       14.47490
C         -0.24330       -8.71110       12.98200
C         -0.73430       -6.12100       15.04590
C          0.04450       -5.06250       15.58200
Cl        -0.57650       -3.47230       15.77470
Cl        -2.33100       -5.88670       14.46660
C          3.08560       -4.90430       17.63640
S          2.82970       -6.27040       18.68400
C          2.24790       -3.02480       14.52910
C          2.81300       -1.86220       14.09380
S          4.02710       -1.26340       15.19930
C          2.45700       -1.20970       12.87390
C          1.32800       -1.48470       12.15830
C          1.25860       -0.79790       10.92680
C          0.29370       -0.95330        9.91790
C         -0.75910       -1.94650       10.05380
S         -2.43710       -1.54210        9.84710
C         -2.95140       -3.15570       10.20210
C         -4.39430       -3.51640       10.27030
C         -4.92300       -3.37050       11.69960
C         -1.87440       -3.95020       10.46110
Cl        -1.98830       -5.61400       10.85630
C         -0.63080       -3.27180       10.37170
Cl         0.86920       -4.08700       10.56600
C          0.43630       -0.15770        8.79170
C          1.50820        0.75430        8.62230
C          2.48510        0.89220        9.62590
C          3.60630        1.80470        9.47650
S          4.63800        1.75590        8.07650
C          5.64670        3.02830        8.67570
C          6.84570        3.48110        7.91880
C          8.01230        2.50880        8.10710
C          5.19980        3.45240        9.89100
C          4.04290        2.76460       10.34750
Cl         3.24630        3.18220       11.80580
Cl         5.93990        4.70430       10.80130
C          2.34310        0.09750       10.75710
S          3.45790       -0.00970       12.09190
C          1.43810        1.41610        7.37130
C          0.38570        1.01760        6.60230
S         -0.60500       -0.18880        7.39970
C          0.05900        1.42350        5.27650
C         -0.98740        0.98260        4.52160
C         -1.00360        1.51580        3.21170
C         -1.88430        1.19730        2.16330
C         -3.01080        0.30360        2.37600
S         -4.13780        0.59480        3.66980
C         -5.08960       -0.79200        3.26350
C         -6.26470       -1.18460        4.08860
C         -5.81630       -1.84510        5.39470
C         -4.55200       -1.43280        2.18800
Cl        -5.21100       -2.85430        1.49030
C         -3.37690       -0.81540        1.67980
Cl        -2.48140       -1.50060        0.38960
C         -1.61290        1.76340        0.92550
C         -0.51690        2.63300        0.69140
C          0.33990        2.97990        1.75090
C          1.46730        3.87780        1.56270
S          2.66100        3.59550        0.32940
C          3.58960        4.97760        0.79810
C          4.87590        5.31070        0.12680
C          6.04770        4.60460        0.81350
C          2.99930        5.60800        1.85240
C          1.79610        4.99050        2.28730
Cl         0.82960        5.64710        3.54050
Cl         3.62860        7.02140        2.59410
C          0.08080        2.39930        2.98690
S          1.07460        2.55340        4.40830
C         -0.44840        3.03990       -0.66440
C         -1.43450        2.50690       -1.44030
S         -2.54370        1.51430       -0.51840
C         -1.58900        2.55630       -2.85560
C         -2.49580        1.84120       -3.58000
C         -2.31960        1.94980       -4.97810
C         -2.99700        1.23450       -5.98230
C         -4.01890        0.25860       -5.64390
S         -3.71960       -0.97780       -4.45560
C         -5.30910       -1.64100       -4.62390
C         -5.74780       -2.79230       -3.78770
C         -5.58470       -2.49670       -2.29710
C         -6.01350       -0.94170       -5.55780
Cl        -7.63320       -1.29320       -6.00370
C         -5.28520        0.13020       -6.14270
Cl        -5.98510        1.19630       -7.28680
C         -2.59470        1.46330       -7.29100
C         -1.58070        2.39390       -7.62300
C         -0.88760        3.09540       -6.61880
C          0.23830        3.94730       -6.96160
S          1.48810        3.36180       -8.02860
C          2.38190        4.84140       -7.93900
C          3.63440        5.01850       -8.72280
C          4.66440        3.93440       -8.40870
C          1.74680        5.71910       -7.11320
C          0.53580        5.21830       -6.55740
Cl        -0.47420        6.17870       -5.56160
Cl         2.32080        7.29920       -6.76750
C         -1.27160        2.84680       -5.30710
S         -0.49960        3.46960       -3.87490
C         -1.33620        2.43370       -9.01610
C         -2.04230        1.50560       -9.72530
S         -3.14610        0.60560       -8.70040
C         -1.90850        1.16800      -11.10560
S         -3.14140        0.26220      -11.92010
C         -2.19620        0.18890      -13.37760
C         -0.99350        0.85620      -13.22680
C         -0.82690        1.39830      -11.93730
C          0.42610        2.09250      -11.51150
C          1.58270        1.79800      -12.46950
C          2.72810        2.71620      -12.16820
O          2.65760        3.85030      -11.79070
C          4.12470        2.06130      -12.39030
F          4.30890        1.05580      -11.51890
F          4.23560        1.53190      -13.61920
F          5.12660        2.92030      -12.22970
C          1.10140        2.04930      -13.91110
C          0.05800        0.99930      -14.28410
C         -2.71310       -0.53900      -14.49280
C         -2.09150       -0.92180      -15.64600
C         -2.91580       -1.68150      -16.51340
C         -2.57530       -2.23200      -17.76020
C         -1.23820       -2.07620      -18.31080
S          0.16890       -2.56130      -17.40850
C          1.24740       -2.08490      -18.67650
C          2.72290       -2.19040      -18.50890
C          3.26050       -1.03560      -17.66020
C          0.54390       -1.57570      -19.72600
Cl         1.26500       -0.98470      -21.16650
C         -0.86410       -1.57440      -19.52550
Cl        -1.95230       -0.91670      -20.67380
C         -3.56930       -2.93470      -18.43080
C         -4.87320       -3.11060      -17.90720
C         -5.20280       -2.58410      -16.64840
C         -6.50440       -2.81930      -16.04520
S         -7.47800       -1.51440      -15.43730
C         -8.73300       -2.58740      -14.92290
C         -9.93890       -2.08240      -14.21100
C         -9.69910       -2.05110      -12.69950
C         -8.39660       -3.87920      -15.19960
C         -7.13580       -4.01490      -15.83920
Cl        -6.45600       -5.54390      -16.22300
Cl        -9.39060       -5.22720      -14.82540
C         -4.21770       -1.85930      -15.99050
S         -4.37560       -1.10410      -14.43210
C         -5.70290       -3.84530      -18.80370
C         -5.05000       -4.24100      -19.91520
S         -3.39670       -3.73850      -19.96460
H          4.29050       -6.28790       20.62720
H          5.43360       -4.06760       19.89820
H          9.46850       -1.61950       19.61360
H          9.14170        0.12240       19.70610
H          9.89860       -1.40480       17.16450
H          9.58120        0.33010       17.26050
H         10.97700       -0.35900       18.09570
H         -1.65020       -8.68320       14.61610
H         -0.09330       -9.44020       15.00750
H         -0.72070       -7.89920       12.43940
H         -0.60090       -9.65540       12.58050
H          0.83090       -8.64840       12.82560
H          1.52920       -3.57600       13.95390
H          0.55690       -2.14280       12.51000
H         -4.51530       -4.55120        9.94280
H         -4.96140       -2.86790        9.60090
H         -4.80970       -2.34440       12.04130
H         -4.37390       -4.02330       12.37340
H         -5.97560       -3.63750       11.73780
H          7.13020        4.47110        8.27880
H          6.60060        3.55130        6.85740
H          8.88110        2.85650        7.55490
H          8.27460        2.43460        9.15930
H          7.74060        1.51990        7.74590
H          2.14420        2.15640        7.04140
H         -1.70720        0.27570        4.89230
H         -6.87740       -1.88090        3.51390
H         -6.86180       -0.30000        4.31800
H         -5.22820       -2.73510        5.18500
H         -5.20870       -1.15630        5.97710
H         -6.68320       -2.13130        5.98410
H          4.82820        5.00520       -0.91960
H          5.02560        6.39120        0.17100
H          6.11700        4.91540        1.85270
H          6.97890        4.85360        0.31200
H          5.91030        3.52640        0.78120
H          0.31630        3.68140       -1.06320
H         -3.25010        1.23490       -3.11340
H         -6.79330       -3.00430       -4.01700
H         -5.15610       -3.67490       -4.04500
H         -5.92770       -3.34320       -1.70840
H         -4.54040       -2.30880       -2.05970
H         -6.16550       -1.62150       -2.01640
H          3.39320        4.98020       -9.78920
H          4.04520        6.00410       -8.49960
H          4.94610        3.96840       -7.35900
H          5.55400        4.08100       -9.01480
H          4.25550        2.94960       -8.62530
H         -0.69010        3.15880       -9.46610
H          0.27000        3.17530      -11.49490
H          0.69570        1.77760      -10.50050
H          1.90620        0.75680      -12.38130
H          0.66690        3.04880      -13.96360
H          1.93400        1.99710      -14.61370
H          0.55280        0.03370      -14.42970
H         -0.40750        1.28410      -15.22990
H         -1.06970       -0.70260      -15.87990
H          3.18830       -2.16930      -19.49550
H          2.96800       -3.13830      -18.02630
H          4.33650       -1.12720      -17.54240
H          2.80090       -1.04590      -16.67470
H          3.04240       -0.08360      -18.13730
H        -10.17420       -1.07720      -14.56440
H        -10.78200       -2.73990      -14.43320
H         -8.84720       -1.41810      -12.46560
H        -10.57580       -1.66070      -12.19010
H         -9.49910       -3.05290      -12.33000
H         -6.74070       -4.05020      -18.61760
H         -5.43760       -4.80530      -20.74080
