
  xtb     03052205473D
 energy: -443.404374806719 gnorm: 0.000316582084 xtb: 6.4.1 (unknown)
246269  0     0  0            999 V2000
    9.4309   -1.6050    0.7833 C   0  0  0  0  0  0  0  0  0  0  0  0
    8.7323   -3.0376    0.1518 S   0  0  0  0  0  0  0  0  0  0  0  0
    7.1513   -2.3147    0.1688 C   0  0  0  0  0  0  0  0  0  0  0  0
    7.1974   -1.0297    0.6480 C   0  0  0  0  0  0  0  0  0  0  0  0
    8.5107   -0.6223    0.9873 C   0  0  0  0  0  0  0  0  0  0  0  0
    8.8622    0.7710    1.4175 C   0  0  0  0  0  0  0  0  0  0  0  0
    7.6214    1.6493    1.6742 C   0  0  0  0  0  0  0  0  0  0  0  0
    7.1154    1.5919    3.0859 C   0  0  0  0  0  0  0  0  0  0  0  0
    5.9959    1.3670    3.4489 O   0  0  0  0  0  0  0  0  0  0  0  0
    8.1708    2.0016    4.1655 C   0  0  0  0  0  0  0  0  0  0  0  0
    9.0459    2.9110    3.7055 F   0  0  0  0  0  0  0  0  0  0  0  0
    7.5777    2.5369    5.2334 F   0  0  0  0  0  0  0  0  0  0  0  0
    8.8989    0.9629    4.6022 F   0  0  0  0  0  0  0  0  0  0  0  0
    6.5023    1.3427    0.6755 C   0  0  0  0  0  0  0  0  0  0  0  0
    6.0350   -0.1069    0.7813 C   0  0  0  0  0  0  0  0  0  0  0  0
    6.0038   -3.0183   -0.3307 C   0  0  0  0  0  0  0  0  0  0  0  0
    4.7428   -3.0218    0.1730 C   0  0  0  0  0  0  0  0  0  0  0  0
    3.8124   -3.7462   -0.6196 C   0  0  0  0  0  0  0  0  0  0  0  0
    2.4288   -3.8640   -0.4174 C   0  0  0  0  0  0  0  0  0  0  0  0
    1.7686   -3.2375    0.7380 C   0  0  0  0  0  0  0  0  0  0  0  0
    0.7514   -2.3097    0.5377 C   0  0  0  0  0  0  0  0  0  0  0  0
    0.1484   -1.6646    1.5992 C   0  0  0  0  0  0  0  0  0  0  0  0
    0.5155   -1.9610    2.9057 C   0  0  0  0  0  0  0  0  0  0  0  0
   -0.1611   -1.1884    4.3439 S   0  0  0  0  0  0  0  0  0  0  0  0
   -1.7649   -0.5273    3.7790 C   0  0  0  0  0  0  0  0  0  0  0  0
   -2.7481   -1.6274    3.4308 C   0  0  0  0  0  0  0  0  0  0  0  0
    1.5172   -2.9146    3.0941 C   0  0  0  0  0  0  0  0  0  0  0  0
    1.8792   -3.2397    4.3512 F   0  0  0  0  0  0  0  0  0  0  0  0
    2.1528   -3.5361    2.0418 C   0  0  0  0  0  0  0  0  0  0  0  0
    1.7090   -4.5135   -1.4067 C   0  0  0  0  0  0  0  0  0  0  0  0
    2.2995   -5.0192   -2.5911 C   0  0  0  0  0  0  0  0  0  0  0  0
    3.6818   -4.8831   -2.8042 C   0  0  0  0  0  0  0  0  0  0  0  0
    4.2919   -5.2208   -4.0958 C   0  0  0  0  0  0  0  0  0  0  0  0
    3.7064   -4.7816   -5.2851 C   0  0  0  0  0  0  0  0  0  0  0  0
    4.3167   -5.0110   -6.4979 C   0  0  0  0  0  0  0  0  0  0  0  0
    5.5270   -5.6952   -6.5820 C   0  0  0  0  0  0  0  0  0  0  0  0
    6.2149   -5.9284   -8.1955 S   0  0  0  0  0  0  0  0  0  0  0  0
    8.0058   -5.6426   -7.9461 C   0  0  0  0  0  0  0  0  0  0  0  0
    8.2853   -4.2796   -7.3452 C   0  0  0  0  0  0  0  0  0  0  0  0
    6.0786   -6.1653   -5.3942 C   0  0  0  0  0  0  0  0  0  0  0  0
    5.4909   -5.9211   -4.1690 C   0  0  0  0  0  0  0  0  0  0  0  0
    7.2221   -6.8833   -5.4028 F   0  0  0  0  0  0  0  0  0  0  0  0
    4.4119   -4.2822   -1.7864 C   0  0  0  0  0  0  0  0  0  0  0  0
    6.1212   -3.9351   -1.8227 S   0  0  0  0  0  0  0  0  0  0  0  0
    1.3273   -5.5344   -3.4854 C   0  0  0  0  0  0  0  0  0  0  0  0
    0.0461   -5.4011   -3.0419 C   0  0  0  0  0  0  0  0  0  0  0  0
   -0.0222   -4.7310   -1.4175 S   0  0  0  0  0  0  0  0  0  0  0  0
   -1.1372   -5.3609   -3.8440 C   0  0  0  0  0  0  0  0  0  0  0  0
   -2.4249   -5.1731   -3.4402 C   0  0  0  0  0  0  0  0  0  0  0  0
   -3.2337   -4.5301   -4.4150 C   0  0  0  0  0  0  0  0  0  0  0  0
   -4.5004   -3.9524   -4.2305 C   0  0  0  0  0  0  0  0  0  0  0  0
   -5.3196   -4.1793   -3.0305 C   0  0  0  0  0  0  0  0  0  0  0  0
   -4.8353   -3.9142   -1.7510 C   0  0  0  0  0  0  0  0  0  0  0  0
   -5.6421   -4.0901   -0.6484 C   0  0  0  0  0  0  0  0  0  0  0  0
   -6.9558   -4.5444   -0.7701 C   0  0  0  0  0  0  0  0  0  0  0  0
   -7.8574   -4.7672    0.7298 S   0  0  0  0  0  0  0  0  0  0  0  0
   -9.6140   -4.5057    0.2581 C   0  0  0  0  0  0  0  0  0  0  0  0
  -10.4008   -4.1431    1.5023 C   0  0  0  0  0  0  0  0  0  0  0  0
   -7.4203   -4.8152   -2.0536 C   0  0  0  0  0  0  0  0  0  0  0  0
   -8.6701   -5.2892   -2.2580 F   0  0  0  0  0  0  0  0  0  0  0  0
   -6.6302   -4.6192   -3.1689 C   0  0  0  0  0  0  0  0  0  0  0  0
   -4.8728   -2.9870   -5.1513 C   0  0  0  0  0  0  0  0  0  0  0  0
   -4.0824   -2.6270   -6.2685 C   0  0  0  0  0  0  0  0  0  0  0  0
   -2.9258   -3.3611   -6.5713 C   0  0  0  0  0  0  0  0  0  0  0  0
   -2.1026   -3.0627   -7.7515 C   0  0  0  0  0  0  0  0  0  0  0  0
   -0.7611   -2.7140   -7.6238 C   0  0  0  0  0  0  0  0  0  0  0  0
    0.0331   -2.5221   -8.7359 C   0  0  0  0  0  0  0  0  0  0  0  0
   -0.4828   -2.6831  -10.0169 C   0  0  0  0  0  0  0  0  0  0  0  0
    0.4549   -2.5252  -11.5002 S   0  0  0  0  0  0  0  0  0  0  0  0
    2.1745   -2.8202  -10.9522 C   0  0  0  0  0  0  0  0  0  0  0  0
    2.3858   -4.2296  -10.4330 C   0  0  0  0  0  0  0  0  0  0  0  0
   -1.8442   -2.9701  -10.1298 C   0  0  0  0  0  0  0  0  0  0  0  0
   -2.6512   -3.1536   -9.0280 C   0  0  0  0  0  0  0  0  0  0  0  0
   -2.3906   -3.0900  -11.3552 F   0  0  0  0  0  0  0  0  0  0  0  0
   -2.5113   -4.2660   -5.6067 C   0  0  0  0  0  0  0  0  0  0  0  0
   -0.9214   -4.9832   -5.5501 S   0  0  0  0  0  0  0  0  0  0  0  0
   -4.3533   -1.2986   -6.7024 C   0  0  0  0  0  0  0  0  0  0  0  0
   -5.2872   -0.6609   -5.9469 C   0  0  0  0  0  0  0  0  0  0  0  0
   -6.0983   -1.7777   -4.8305 S   0  0  0  0  0  0  0  0  0  0  0  0
   -5.2314    0.7106   -5.5042 C   0  0  0  0  0  0  0  0  0  0  0  0
   -3.6319    1.1501   -4.9495 S   0  0  0  0  0  0  0  0  0  0  0  0
   -4.2602    2.4108   -3.9177 C   0  0  0  0  0  0  0  0  0  0  0  0
   -5.6134    2.5559   -4.1220 C   0  0  0  0  0  0  0  0  0  0  0  0
   -6.1577    1.5744   -4.9871 C   0  0  0  0  0  0  0  0  0  0  0  0
   -7.6307    1.5693   -5.1912 C   0  0  0  0  0  0  0  0  0  0  0  0
   -8.0908    3.0014   -5.5837 C   0  0  0  0  0  0  0  0  0  0  0  0
   -7.6725    3.1651   -7.0185 C   0  0  0  0  0  0  0  0  0  0  0  0
   -6.5962    3.5079   -7.4111 O   0  0  0  0  0  0  0  0  0  0  0  0
   -8.7987    2.8159   -8.0379 C   0  0  0  0  0  0  0  0  0  0  0  0
   -8.3804    2.8487   -9.2982 F   0  0  0  0  0  0  0  0  0  0  0  0
   -9.8107    3.6936   -7.9211 F   0  0  0  0  0  0  0  0  0  0  0  0
   -9.3226    1.5991   -7.8168 F   0  0  0  0  0  0  0  0  0  0  0  0
   -7.4417    4.0935   -4.7065 C   0  0  0  0  0  0  0  0  0  0  0  0
   -6.5689    3.5547   -3.5633 C   0  0  0  0  0  0  0  0  0  0  0  0
   -3.4021    2.8367   -2.8537 C   0  0  0  0  0  0  0  0  0  0  0  0
   -3.7229    3.3997   -1.6527 C   0  0  0  0  0  0  0  0  0  0  0  0
   -2.6942    3.2927   -0.6783 C   0  0  0  0  0  0  0  0  0  0  0  0
   -2.7539    3.6626    0.6750 C   0  0  0  0  0  0  0  0  0  0  0  0
   -3.8815    4.4348    1.2082 C   0  0  0  0  0  0  0  0  0  0  0  0
   -4.3106    5.5974    0.5678 C   0  0  0  0  0  0  0  0  0  0  0  0
   -5.3365    6.3516    1.0940 C   0  0  0  0  0  0  0  0  0  0  0  0
   -5.9905    5.9733    2.2663 C   0  0  0  0  0  0  0  0  0  0  0  0
   -7.3136    7.0072    2.8176 S   0  0  0  0  0  0  0  0  0  0  0  0
   -7.2066    6.9644    4.6449 C   0  0  0  0  0  0  0  0  0  0  0  0
   -5.8509    7.4149    5.1503 C   0  0  0  0  0  0  0  0  0  0  0  0
   -5.5795    4.7892    2.8706 C   0  0  0  0  0  0  0  0  0  0  0  0
   -6.1991    4.3236    3.9776 F   0  0  0  0  0  0  0  0  0  0  0  0
   -4.5364    4.0378    2.3692 C   0  0  0  0  0  0  0  0  0  0  0  0
   -1.7006    3.2501    1.4792 C   0  0  0  0  0  0  0  0  0  0  0  0
   -0.5733    2.5419    0.9918 C   0  0  0  0  0  0  0  0  0  0  0  0
   -0.4829    2.2323   -0.3778 C   0  0  0  0  0  0  0  0  0  0  0  0
    0.6793    1.5164   -0.9195 C   0  0  0  0  0  0  0  0  0  0  0  0
    1.9752    1.9501   -0.6419 C   0  0  0  0  0  0  0  0  0  0  0  0
    3.0642    1.2843   -1.1579 C   0  0  0  0  0  0  0  0  0  0  0  0
    2.9167    0.1451   -1.9501 C   0  0  0  0  0  0  0  0  0  0  0  0
    4.3997   -0.6447   -2.4900 S   0  0  0  0  0  0  0  0  0  0  0  0
    3.9594   -1.4195   -4.0919 C   0  0  0  0  0  0  0  0  0  0  0  0
    5.2376   -1.7139   -4.8515 C   0  0  0  0  0  0  0  0  0  0  0  0
    1.6197   -0.2861   -2.2050 C   0  0  0  0  0  0  0  0  0  0  0  0
    0.5178    0.3894   -1.7183 C   0  0  0  0  0  0  0  0  0  0  0  0
    1.3873   -1.4043   -2.9328 F   0  0  0  0  0  0  0  0  0  0  0  0
   -1.5594    2.6014   -1.1704 C   0  0  0  0  0  0  0  0  0  0  0  0
   -1.7488    2.2356   -2.8648 S   0  0  0  0  0  0  0  0  0  0  0  0
    0.3077    2.1594    2.0392 C   0  0  0  0  0  0  0  0  0  0  0  0
   -0.1026    2.5711    3.2736 C   0  0  0  0  0  0  0  0  0  0  0  0
   -1.5924    3.4916    3.2014 S   0  0  0  0  0  0  0  0  0  0  0  0
    0.4407    2.2611    4.5596 C   0  0  0  0  0  0  0  0  0  0  0  0
    1.6230    1.6648    4.8851 C   0  0  0  0  0  0  0  0  0  0  0  0
    1.7592    1.3942    6.2741 C   0  0  0  0  0  0  0  0  0  0  0  0
    2.8203    0.7669    6.9533 C   0  0  0  0  0  0  0  0  0  0  0  0
    3.9389    0.1538    6.2328 C   0  0  0  0  0  0  0  0  0  0  0  0
    5.2561    0.2742    6.6694 C   0  0  0  0  0  0  0  0  0  0  0  0
    6.2890   -0.3590    6.0077 C   0  0  0  0  0  0  0  0  0  0  0  0
    6.0441   -1.1223    4.8726 C   0  0  0  0  0  0  0  0  0  0  0  0
    7.2883   -1.9172    3.9036 S   0  0  0  0  0  0  0  0  0  0  0  0
    8.5856   -2.3214    5.1223 C   0  0  0  0  0  0  0  0  0  0  0  0
    8.0923   -3.2922    6.1768 C   0  0  0  0  0  0  0  0  0  0  0  0
    4.7242   -1.2194    4.4387 C   0  0  0  0  0  0  0  0  0  0  0  0
    4.4521   -1.9386    3.3285 F   0  0  0  0  0  0  0  0  0  0  0  0
    3.6820   -0.6146    5.0991 C   0  0  0  0  0  0  0  0  0  0  0  0
    2.7126    0.6875    8.3375 C   0  0  0  0  0  0  0  0  0  0  0  0
    1.5945    1.1665    9.0626 C   0  0  0  0  0  0  0  0  0  0  0  0
    0.5213    1.7529    8.3833 C   0  0  0  0  0  0  0  0  0  0  0  0
   -0.6842    2.2462    9.0629 C   0  0  0  0  0  0  0  0  0  0  0  0
   -0.6148    3.2036   10.0719 C   0  0  0  0  0  0  0  0  0  0  0  0
   -1.7675    3.7227   10.6227 C   0  0  0  0  0  0  0  0  0  0  0  0
   -3.0278    3.2934   10.2099 C   0  0  0  0  0  0  0  0  0  0  0  0
   -4.4327    4.0376   10.9844 S   0  0  0  0  0  0  0  0  0  0  0  0
   -5.6649    4.1823    9.6363 C   0  0  0  0  0  0  0  0  0  0  0  0
   -5.1343    4.9622    8.4502 C   0  0  0  0  0  0  0  0  0  0  0  0
   -3.0782    2.2901    9.2471 C   0  0  0  0  0  0  0  0  0  0  0  0
   -1.9343    1.7874    8.6626 C   0  0  0  0  0  0  0  0  0  0  0  0
   -4.2586    1.7696    8.8454 F   0  0  0  0  0  0  0  0  0  0  0  0
    0.6358    1.8488    7.0059 C   0  0  0  0  0  0  0  0  0  0  0  0
   -0.5623    2.5599    5.9657 S   0  0  0  0  0  0  0  0  0  0  0  0
    1.7060    0.8963   10.4587 C   0  0  0  0  0  0  0  0  0  0  0  0
    2.8445    0.2484   10.7753 C   0  0  0  0  0  0  0  0  0  0  0  0
    3.8583   -0.0764    9.4115 S   0  0  0  0  0  0  0  0  0  0  0  0
   10.4876   -1.5666    0.9595 H   0  0  0  0  0  0  0  0  0  0  0  0
    9.4402    1.2355    0.6128 H   0  0  0  0  0  0  0  0  0  0  0  0
    9.5139    0.7347    2.2912 H   0  0  0  0  0  0  0  0  0  0  0  0
    7.9360    2.6954    1.5456 H   0  0  0  0  0  0  0  0  0  0  0  0
    6.8770    1.5304   -0.3324 H   0  0  0  0  0  0  0  0  0  0  0  0
    5.6624    2.0126    0.8671 H   0  0  0  0  0  0  0  0  0  0  0  0
    5.5546   -0.2659    1.7478 H   0  0  0  0  0  0  0  0  0  0  0  0
    5.2975   -0.3253    0.0076 H   0  0  0  0  0  0  0  0  0  0  0  0
    4.4786   -2.5334    1.0896 H   0  0  0  0  0  0  0  0  0  0  0  0
    0.4408   -2.0697   -0.4659 H   0  0  0  0  0  0  0  0  0  0  0  0
   -0.6067   -0.9216    1.3976 H   0  0  0  0  0  0  0  0  0  0  0  0
   -2.1138    0.0555    4.6317 H   0  0  0  0  0  0  0  0  0  0  0  0
   -1.5888    0.1518    2.9454 H   0  0  0  0  0  0  0  0  0  0  0  0
   -2.9088   -2.2748    4.2898 H   0  0  0  0  0  0  0  0  0  0  0  0
   -2.3767   -2.2345    2.6073 H   0  0  0  0  0  0  0  0  0  0  0  0
   -3.7021   -1.1918    3.1396 H   0  0  0  0  0  0  0  0  0  0  0  0
    2.9288   -4.2561    2.2462 H   0  0  0  0  0  0  0  0  0  0  0  0
    2.7859   -4.2191   -5.2571 H   0  0  0  0  0  0  0  0  0  0  0  0
    3.8670   -4.6536   -7.4114 H   0  0  0  0  0  0  0  0  0  0  0  0
    8.4135   -5.7203   -8.9540 H   0  0  0  0  0  0  0  0  0  0  0  0
    8.4106   -6.4475   -7.3367 H   0  0  0  0  0  0  0  0  0  0  0  0
    7.8758   -4.2053   -6.3393 H   0  0  0  0  0  0  0  0  0  0  0  0
    9.3600   -4.1190   -7.2898 H   0  0  0  0  0  0  0  0  0  0  0  0
    7.8452   -3.4941   -7.9564 H   0  0  0  0  0  0  0  0  0  0  0  0
    5.9676   -6.3063   -3.2814 H   0  0  0  0  0  0  0  0  0  0  0  0
    1.5592   -5.9583   -4.4458 H   0  0  0  0  0  0  0  0  0  0  0  0
   -2.7552   -5.3911   -2.4409 H   0  0  0  0  0  0  0  0  0  0  0  0
   -3.8338   -3.5328   -1.6241 H   0  0  0  0  0  0  0  0  0  0  0  0
   -5.2688   -3.8740    0.3407 H   0  0  0  0  0  0  0  0  0  0  0  0
   -9.6358   -3.6979   -0.4718 H   0  0  0  0  0  0  0  0  0  0  0  0
   -9.9910   -5.4224   -0.1925 H   0  0  0  0  0  0  0  0  0  0  0  0
  -10.0069   -3.2350    1.9531 H   0  0  0  0  0  0  0  0  0  0  0  0
  -10.3446   -4.9441    2.2359 H   0  0  0  0  0  0  0  0  0  0  0  0
  -11.4445   -3.9817    1.2416 H   0  0  0  0  0  0  0  0  0  0  0  0
   -7.0427   -4.8375   -4.1419 H   0  0  0  0  0  0  0  0  0  0  0  0
   -0.3356   -2.5724   -6.6427 H   0  0  0  0  0  0  0  0  0  0  0  0
    1.0649   -2.2424   -8.5975 H   0  0  0  0  0  0  0  0  0  0  0  0
    2.7565   -2.6493  -11.8576 H   0  0  0  0  0  0  0  0  0  0  0  0
    2.4455   -2.0610  -10.2193 H   0  0  0  0  0  0  0  0  0  0  0  0
    1.7816   -4.4161   -9.5471 H   0  0  0  0  0  0  0  0  0  0  0  0
    2.1088   -4.9549  -11.1941 H   0  0  0  0  0  0  0  0  0  0  0  0
    3.4341   -4.3790  -10.1796 H   0  0  0  0  0  0  0  0  0  0  0  0
   -3.6929   -3.3964   -9.1696 H   0  0  0  0  0  0  0  0  0  0  0  0
   -3.7528   -0.7957   -7.4401 H   0  0  0  0  0  0  0  0  0  0  0  0
   -8.1280    1.3043   -4.2546 H   0  0  0  0  0  0  0  0  0  0  0  0
   -7.9262    0.8400   -5.9455 H   0  0  0  0  0  0  0  0  0  0  0  0
   -9.1805    3.0403   -5.5162 H   0  0  0  0  0  0  0  0  0  0  0  0
   -8.2199    4.7339   -4.2914 H   0  0  0  0  0  0  0  0  0  0  0  0
   -6.8038    4.7095   -5.3436 H   0  0  0  0  0  0  0  0  0  0  0  0
   -6.0462    4.3887   -3.0970 H   0  0  0  0  0  0  0  0  0  0  0  0
   -7.1988    3.0773   -2.8065 H   0  0  0  0  0  0  0  0  0  0  0  0
   -4.6932    3.7976   -1.4211 H   0  0  0  0  0  0  0  0  0  0  0  0
   -3.8086    5.9267   -0.3293 H   0  0  0  0  0  0  0  0  0  0  0  0
   -5.6515    7.2613    0.6068 H   0  0  0  0  0  0  0  0  0  0  0  0
   -7.9903    7.6576    4.9512 H   0  0  0  0  0  0  0  0  0  0  0  0
   -7.4623    5.9655    4.9916 H   0  0  0  0  0  0  0  0  0  0  0  0
   -5.0724    6.7113    4.8620 H   0  0  0  0  0  0  0  0  0  0  0  0
   -5.8686    7.4786    6.2363 H   0  0  0  0  0  0  0  0  0  0  0  0
   -5.5996    8.3939    4.7474 H   0  0  0  0  0  0  0  0  0  0  0  0
   -4.2687    3.1267    2.8804 H   0  0  0  0  0  0  0  0  0  0  0  0
    2.1238    2.8364   -0.0441 H   0  0  0  0  0  0  0  0  0  0  0  0
    4.0630    1.6398   -0.9619 H   0  0  0  0  0  0  0  0  0  0  0  0
    3.3284   -0.7130   -4.6298 H   0  0  0  0  0  0  0  0  0  0  0  0
    3.4066   -2.3336   -3.8853 H   0  0  0  0  0  0  0  0  0  0  0  0
    5.8666   -2.3967   -4.2841 H   0  0  0  0  0  0  0  0  0  0  0  0
    4.9991   -2.1781   -5.8058 H   0  0  0  0  0  0  0  0  0  0  0  0
    5.7952   -0.7976   -5.0324 H   0  0  0  0  0  0  0  0  0  0  0  0
   -0.4635    0.0038   -1.9478 H   0  0  0  0  0  0  0  0  0  0  0  0
    1.1836    1.5558    1.8831 H   0  0  0  0  0  0  0  0  0  0  0  0
    2.3851    1.4429    4.1610 H   0  0  0  0  0  0  0  0  0  0  0  0
    5.4870    0.8933    7.5219 H   0  0  0  0  0  0  0  0  0  0  0  0
    7.2965   -0.2417    6.3738 H   0  0  0  0  0  0  0  0  0  0  0  0
    8.9638   -1.3967    5.5539 H   0  0  0  0  0  0  0  0  0  0  0  0
    9.3706   -2.7683    4.5121 H   0  0  0  0  0  0  0  0  0  0  0  0
    7.7251   -4.2029    5.7090 H   0  0  0  0  0  0  0  0  0  0  0  0
    8.9071   -3.5497    6.8505 H   0  0  0  0  0  0  0  0  0  0  0  0
    7.2845   -2.8541    6.7602 H   0  0  0  0  0  0  0  0  0  0  0  0
    2.6728   -0.7734    4.7565 H   0  0  0  0  0  0  0  0  0  0  0  0
    0.3480    3.5692   10.3955 H   0  0  0  0  0  0  0  0  0  0  0  0
   -1.7138    4.4857   11.3837 H   0  0  0  0  0  0  0  0  0  0  0  0
   -5.9973    3.1865    9.3520 H   0  0  0  0  0  0  0  0  0  0  0  0
   -6.4911    4.7085   10.1149 H   0  0  0  0  0  0  0  0  0  0  0  0
   -4.2978    4.4449    7.9843 H   0  0  0  0  0  0  0  0  0  0  0  0
   -5.9214    5.0724    7.7068 H   0  0  0  0  0  0  0  0  0  0  0  0
   -4.7995    5.9502    8.7603 H   0  0  0  0  0  0  0  0  0  0  0  0
   -2.0292    1.0164    7.9139 H   0  0  0  0  0  0  0  0  0  0  0  0
    0.9502    1.1693   11.1727 H   0  0  0  0  0  0  0  0  0  0  0  0
    3.1742   -0.0719   11.7444 H   0  0  0  0  0  0  0  0  0  0  0  0
  1  2  1  0  0  0  0
  2  3  1  0  0  0  0
  3  4  2  0  0  0  0
  4  5  1  0  0  0  0
  5  6  1  0  0  0  0
  6  7  1  0  0  0  0
  7  8  1  0  0  0  0
  8  9  2  0  0  0  0
  8 10  1  0  0  0  0
 10 11  1  0  0  0  0
 10 12  1  0  0  0  0
 10 13  1  0  0  0  0
  7 14  1  0  0  0  0
 14 15  1  0  0  0  0
  3 16  1  0  0  0  0
 16 17  2  0  0  0  0
 17 18  1  0  0  0  0
 18 19  2  0  0  0  0
 19 20  1  0  0  0  0
 20 21  2  0  0  0  0
 21 22  1  0  0  0  0
 22 23  2  0  0  0  0
 23 24  1  0  0  0  0
 24 25  1  0  0  0  0
 25 26  1  0  0  0  0
 23 27  1  0  0  0  0
 27 28  1  0  0  0  0
 27 29  2  0  0  0  0
 19 30  1  0  0  0  0
 30 31  2  0  0  0  0
 31 32  1  0  0  0  0
 32 33  1  0  0  0  0
 33 34  2  0  0  0  0
 34 35  1  0  0  0  0
 35 36  2  0  0  0  0
 36 37  1  0  0  0  0
 37 38  1  0  0  0  0
 38 39  1  0  0  0  0
 36 40  1  0  0  0  0
 40 41  2  0  0  0  0
 40 42  1  0  0  0  0
 32 43  2  0  0  0  0
 43 44  1  0  0  0  0
 31 45  1  0  0  0  0
 45 46  2  0  0  0  0
 46 47  1  0  0  0  0
 46 48  1  0  0  0  0
 48 49  2  0  0  0  0
 49 50  1  0  0  0  0
 50 51  2  0  0  0  0
 51 52  1  0  0  0  0
 52 53  2  0  0  0  0
 53 54  1  0  0  0  0
 54 55  2  0  0  0  0
 55 56  1  0  0  0  0
 56 57  1  0  0  0  0
 57 58  1  0  0  0  0
 55 59  1  0  0  0  0
 59 60  1  0  0  0  0
 59 61  2  0  0  0  0
 51 62  1  0  0  0  0
 62 63  2  0  0  0  0
 63 64  1  0  0  0  0
 64 65  1  0  0  0  0
 65 66  2  0  0  0  0
 66 67  1  0  0  0  0
 67 68  2  0  0  0  0
 68 69  1  0  0  0  0
 69 70  1  0  0  0  0
 70 71  1  0  0  0  0
 68 72  1  0  0  0  0
 72 73  2  0  0  0  0
 72 74  1  0  0  0  0
 64 75  2  0  0  0  0
 75 76  1  0  0  0  0
 63 77  1  0  0  0  0
 77 78  2  0  0  0  0
 78 79  1  0  0  0  0
 78 80  1  0  0  0  0
 80 81  1  0  0  0  0
 81 82  1  0  0  0  0
 82 83  2  0  0  0  0
 83 84  1  0  0  0  0
 84 85  1  0  0  0  0
 85 86  1  0  0  0  0
 86 87  1  0  0  0  0
 87 88  2  0  0  0  0
 87 89  1  0  0  0  0
 89 90  1  0  0  0  0
 89 91  1  0  0  0  0
 89 92  1  0  0  0  0
 86 93  1  0  0  0  0
 93 94  1  0  0  0  0
 82 95  1  0  0  0  0
 95 96  2  0  0  0  0
 96 97  1  0  0  0  0
 97 98  2  0  0  0  0
 98 99  1  0  0  0  0
 99100  2  0  0  0  0
100101  1  0  0  0  0
101102  2  0  0  0  0
102103  1  0  0  0  0
103104  1  0  0  0  0
104105  1  0  0  0  0
102106  1  0  0  0  0
106107  1  0  0  0  0
106108  2  0  0  0  0
 98109  1  0  0  0  0
109110  2  0  0  0  0
110111  1  0  0  0  0
111112  1  0  0  0  0
112113  2  0  0  0  0
113114  1  0  0  0  0
114115  2  0  0  0  0
115116  1  0  0  0  0
116117  1  0  0  0  0
117118  1  0  0  0  0
115119  1  0  0  0  0
119120  2  0  0  0  0
119121  1  0  0  0  0
111122  2  0  0  0  0
122123  1  0  0  0  0
110124  1  0  0  0  0
124125  2  0  0  0  0
125126  1  0  0  0  0
125127  1  0  0  0  0
127128  2  0  0  0  0
128129  1  0  0  0  0
129130  2  0  0  0  0
130131  1  0  0  0  0
131132  2  0  0  0  0
132133  1  0  0  0  0
133134  2  0  0  0  0
134135  1  0  0  0  0
135136  1  0  0  0  0
136137  1  0  0  0  0
134138  1  0  0  0  0
138139  1  0  0  0  0
138140  2  0  0  0  0
130141  1  0  0  0  0
141142  2  0  0  0  0
142143  1  0  0  0  0
143144  1  0  0  0  0
144145  2  0  0  0  0
145146  1  0  0  0  0
146147  2  0  0  0  0
147148  1  0  0  0  0
148149  1  0  0  0  0
149150  1  0  0  0  0
147151  1  0  0  0  0
151152  2  0  0  0  0
151153  1  0  0  0  0
143154  2  0  0  0  0
154155  1  0  0  0  0
142156  1  0  0  0  0
156157  2  0  0  0  0
157158  1  0  0  0  0
  5  1  2  0  0  0  0
 44 16  1  0  0  0  0
 76 48  1  0  0  0  0
 84 80  2  0  0  0  0
123 95  1  0  0  0  0
155127  1  0  0  0  0
 15  4  1  0  0  0  0
 43 18  1  0  0  0  0
 75 50  1  0  0  0  0
 94 83  1  0  0  0  0
122 97  1  0  0  0  0
154129  1  0  0  0  0
 29 20  1  0  0  0  0
 47 30  1  0  0  0  0
 61 52  1  0  0  0  0
 79 62  1  0  0  0  0
108 99  1  0  0  0  0
126109  1  0  0  0  0
140131  1  0  0  0  0
158141  1  0  0  0  0
 41 33  1  0  0  0  0
 73 65  1  0  0  0  0
120112  1  0  0  0  0
152144  1  0  0  0  0
  1159  1  0  0  0  0
  6160  1  0  0  0  0
  6161  1  0  0  0  0
  7162  1  0  0  0  0
 14163  1  0  0  0  0
 14164  1  0  0  0  0
 15165  1  0  0  0  0
 15166  1  0  0  0  0
 17167  1  0  0  0  0
 21168  1  0  0  0  0
 22169  1  0  0  0  0
 25170  1  0  0  0  0
 25171  1  0  0  0  0
 26172  1  0  0  0  0
 26173  1  0  0  0  0
 26174  1  0  0  0  0
 29175  1  0  0  0  0
 34176  1  0  0  0  0
 35177  1  0  0  0  0
 38178  1  0  0  0  0
 38179  1  0  0  0  0
 39180  1  0  0  0  0
 39181  1  0  0  0  0
 39182  1  0  0  0  0
 41183  1  0  0  0  0
 45184  1  0  0  0  0
 49185  1  0  0  0  0
 53186  1  0  0  0  0
 54187  1  0  0  0  0
 57188  1  0  0  0  0
 57189  1  0  0  0  0
 58190  1  0  0  0  0
 58191  1  0  0  0  0
 58192  1  0  0  0  0
 61193  1  0  0  0  0
 66194  1  0  0  0  0
 67195  1  0  0  0  0
 70196  1  0  0  0  0
 70197  1  0  0  0  0
 71198  1  0  0  0  0
 71199  1  0  0  0  0
 71200  1  0  0  0  0
 73201  1  0  0  0  0
 77202  1  0  0  0  0
 85203  1  0  0  0  0
 85204  1  0  0  0  0
 86205  1  0  0  0  0
 93206  1  0  0  0  0
 93207  1  0  0  0  0
 94208  1  0  0  0  0
 94209  1  0  0  0  0
 96210  1  0  0  0  0
100211  1  0  0  0  0
101212  1  0  0  0  0
104213  1  0  0  0  0
104214  1  0  0  0  0
105215  1  0  0  0  0
105216  1  0  0  0  0
105217  1  0  0  0  0
108218  1  0  0  0  0
113219  1  0  0  0  0
114220  1  0  0  0  0
117221  1  0  0  0  0
117222  1  0  0  0  0
118223  1  0  0  0  0
118224  1  0  0  0  0
118225  1  0  0  0  0
120226  1  0  0  0  0
124227  1  0  0  0  0
128228  1  0  0  0  0
132229  1  0  0  0  0
133230  1  0  0  0  0
136231  1  0  0  0  0
136232  1  0  0  0  0
137233  1  0  0  0  0
137234  1  0  0  0  0
137235  1  0  0  0  0
140236  1  0  0  0  0
145237  1  0  0  0  0
146238  1  0  0  0  0
149239  1  0  0  0  0
149240  1  0  0  0  0
150241  1  0  0  0  0
150242  1  0  0  0  0
150243  1  0  0  0  0
152244  1  0  0  0  0
156245  1  0  0  0  0
157246  1  0  0  0  0
M  END
