218

C          7.40440       -1.33950        6.68110
S          6.03450       -0.83690        5.79160
C          6.72430       -1.41890        4.29390
C          7.96140       -1.99160        4.52920
C          8.34130       -1.93310        5.89220
C          9.64110       -2.46900        6.39860
C         10.69440       -2.47440        5.27200
C         11.04500       -1.04740        4.96240
O         10.43750       -0.26770        4.29040
C         12.35920       -0.59280        5.67340
F         12.62610        0.69580        5.49080
F         13.41040       -1.29540        5.21890
F         12.29830       -0.80930        6.99930
C         10.11250       -3.22690        4.07010
C          8.86490       -2.56420        3.48540
C          6.02010       -1.26000        3.06030
S          6.73070       -1.83160        1.57200
C          5.36110       -1.30950        0.64160
C          4.41010       -0.73060        1.45400
C          4.78080       -0.68960        2.81460
C          3.89970       -0.08970        3.87150
C          2.67300        0.59980        3.26910
C          1.58850        1.02900        4.23290
O          0.42810        1.17030        3.92820
C          2.08340        1.73840        5.52700
F          1.06560        2.08980        6.31030
F          2.72050        2.87520        5.17110
F          2.94680        1.05810        6.29130
C          2.08590       -0.24640        2.14320
C          3.06980       -0.26110        0.98120
C          5.31300       -1.47640       -0.78120
S          4.55930       -0.25080       -1.75730
C          4.79740       -1.18630       -3.20990
C          5.45460       -2.35850       -2.93920
C          5.77310       -2.50860       -1.56900
C          6.51270       -3.69890       -1.04460
C          6.42490       -4.85920       -2.05930
C          7.22840       -5.99830       -1.50750
O          6.79890       -6.86380       -0.80000
C          8.75000       -6.02120       -1.86280
F          9.41450       -6.86890       -1.07930
F          8.94730       -6.40950       -3.13100
F          9.33870       -4.82200       -1.72650
C          6.84080       -4.36310       -3.44550
C          5.77520       -3.40000       -3.96400
C          4.09570       -0.69430       -4.36120
C          3.89000        0.62310       -4.63190
C          2.75270        0.86930       -5.44220
C          2.11200        2.10000       -5.64320
C          2.70350        3.38540       -5.24270
C          3.10810        3.63350       -3.93250
C          3.64680        4.85320       -3.58820
C          3.80040        5.87750       -4.52470
S          4.48860        7.38410       -3.92320
C          5.20390        8.21080       -5.39940
C          6.19390        9.25920       -4.93090
C          3.35350        5.62630       -5.81860
F          3.41950        6.57440       -6.78070
C          2.81880        4.40520       -6.17880
C          0.80060        2.04210       -6.08060
C          0.13480        0.83490       -6.41020
C          0.83650       -0.38310       -6.36340
C          0.20040       -1.67150       -6.67800
C         -0.95560       -2.09300       -6.02760
C         -1.55190       -3.29920       -6.34000
C         -1.01250       -4.12980       -7.31590
S         -1.67600       -5.68960       -7.79870
C         -3.43120       -5.59400       -7.29840
C         -4.20740       -4.58390       -8.12070
C          0.17130       -3.71410       -7.92830
C          0.77670       -2.51480       -7.62430
F          0.74250       -4.50640       -8.85560
C          2.11990       -0.33350       -5.84100
S          3.01000       -1.73320       -5.28070
C         -1.27210        1.01300       -6.45570
C         -1.67270        2.25710       -6.05000
S         -0.32140        3.36930       -5.91260
C         -2.86480        2.50610       -5.29260
C         -3.96160        1.70310       -5.16430
C         -4.59170        1.80570       -3.89420
C         -5.54210        0.93430       -3.33470
C         -6.10590       -0.18980       -4.09620
C         -5.26320       -1.11550       -4.71020
C         -5.78380       -2.18540       -5.40360
C         -7.15920       -2.38480       -5.50490
S         -7.69620       -3.82150       -6.38810
C         -9.19240       -3.27280       -7.28660
C         -8.90590       -2.10020       -8.20220
C         -7.98650       -1.47730       -4.85120
F         -9.32800       -1.62980       -4.86440
C         -7.47840       -0.39090       -4.16540
C         -5.78850        1.06310       -1.97520
C         -5.09930        1.98970       -1.15620
C         -4.17590        2.88370       -1.71420
C         -3.31600        3.72280       -0.86760
C         -2.57280        3.14040        0.15630
C         -1.73340        3.89370        0.95320
C         -1.60500        5.26330        0.75090
S         -0.60870        6.35210        1.70870
C          0.34590        5.26070        2.81850
C          1.48560        4.55780        2.10530
C         -2.34540        5.83070       -0.28990
C         -3.18170        5.08950       -1.09490
F         -2.24460        7.15560       -0.51390
C         -3.96900        2.78570       -3.07950
S         -2.68650        3.60150       -3.92650
C         -5.32450        1.74720        0.22150
C         -6.11650        0.67100        0.46710
S         -6.73900       -0.04580       -1.01020
C         -6.22030        0.02070        1.74350
C         -7.23070       -0.63740        2.36440
C         -6.84410       -1.22110        3.60580
C         -7.63750       -1.91840        4.52880
C         -9.05490       -2.19690        4.26690
C         -9.45560       -2.79410        3.07210
C        -10.78640       -3.05730        2.83190
C        -11.77130       -2.74400        3.76820
S        -13.43370       -3.17820        3.35330
C        -14.45450       -1.82800        4.05090
C        -14.05900       -0.47280        3.49990
C        -11.35260       -2.17510        4.96710
F        -12.23920       -1.87370        5.94100
C        -10.02430       -1.89290        5.21570
C         -7.00910       -2.35330        5.68930
C         -5.62610       -2.17730        5.94170
C         -4.82840       -1.49590        5.01300
C         -3.37190       -1.36230        5.16810
C         -2.52780       -1.79490        4.14520
C         -1.15930       -1.74130        4.29040
C         -0.57620       -1.24480        5.45340
S          1.19260       -1.30390        5.53970
C          1.53820       -1.48440        7.33720
C          2.92880       -2.05340        7.52800
C         -1.42470       -0.75880        6.44210
C         -2.79980       -0.83020        6.31690
F         -0.93670       -0.21540        7.57590
C         -5.47170       -1.01040        3.88380
S         -4.71340       -0.05290        2.64790
C         -5.22970       -2.80650        7.15930
C         -6.25420       -3.40760        7.79670
S         -7.76670       -3.26440        6.97060
H          7.44300       -1.16600        7.73780
H          9.51030       -3.50200        6.73370
H          9.98170       -1.88510        7.25580
H         11.58970       -2.99230        5.62890
H          9.86540       -4.23380        4.41270
H         10.86870       -3.31680        3.28900
H          8.32620       -3.30730        2.89120
H          9.15700       -1.75920        2.80500
H          4.48480        0.62860        4.45050
H          3.57870       -0.88100        4.55530
H          3.00590        1.55490        2.83150
H          1.12800        0.16700        1.82780
H          1.92020       -1.26000        2.51170
H          3.15680        0.74540        0.56080
H          2.70800       -0.91520        0.18560
H          7.55800       -3.42280       -0.87950
H          6.09670       -4.00920       -0.08330
H          5.38350       -5.19960       -2.09130
H          7.79890       -3.84460       -3.38820
H          6.94050       -5.19890       -4.13920
H          4.86030       -3.95150       -4.20470
H          6.11400       -2.92380       -4.88590
H          4.48480        1.40250       -4.19160
H          2.97990        2.87250       -3.17780
H          3.96170        5.04340       -2.57380
H          4.39330        8.66270       -5.96870
H          5.69510        7.44440       -5.99680
H          6.62690        9.76450       -5.79140
H          6.99390        8.80010       -4.35440
H          5.69890        9.99840       -4.30510
H          2.49510        4.26230       -7.19840
H         -1.37610       -1.48480       -5.24070
H         -2.43860       -3.59680       -5.80330
H         -3.80010       -6.60360       -7.47710
H         -3.48550       -5.39310       -6.22920
H         -4.15090       -4.83850       -9.17640
H         -5.25270       -4.58630       -7.81610
H         -3.80340       -3.58130       -7.99010
H          1.68330       -2.23610       -8.13830
H         -1.96310        0.21000       -6.63270
H         -4.26620        1.00130       -5.91910
H         -4.19340       -1.00100       -4.62340
H         -5.13120       -2.89810       -5.88210
H         -9.97480       -3.04770       -6.56540
H         -9.47810       -4.15720       -7.85640
H         -8.61610       -1.22120       -7.62930
H         -9.79900       -1.85700       -8.77390
H         -8.10210       -2.34220       -8.89470
H         -8.16540        0.28920       -3.68630
H         -2.63270        2.07510        0.32160
H         -1.18680        3.39780        1.73880
H         -0.33530        4.56280        3.30300
H          0.73360        5.94600        3.57230
H          2.08380        4.01220        2.83240
H          2.12270        5.28630        1.60890
H          1.11270        3.86020        1.35820
H         -3.73340        5.58330       -1.87940
H         -4.88380        2.33280        1.00770
H         -8.22920       -0.68570        1.96910
H         -8.71450       -3.06650        2.33630
H        -11.09310       -3.51810        1.90570
H        -15.46430       -2.09810        3.74150
H        -14.39590       -1.86140        5.13640
H        -14.74240        0.28710        3.87350
H        -14.09880       -0.47580        2.41260
H        -13.04970       -0.20700        3.80850
H         -9.76230       -1.43100        6.15480
H         -2.95010       -2.20870        3.24290
H         -0.51370       -2.10270        3.50560
H          0.77800       -2.16050        7.72630
H          1.44530       -0.50870        7.80940
H          3.09920       -2.23420        8.58660
H          3.03870       -2.99300        6.99090
H          3.67990       -1.35390        7.17110
H         -3.41150       -0.44230        7.11690
H         -4.21770       -2.80750        7.52100
H         -6.22900       -3.94240        8.72620
