238

C          7.57610        5.04550       -6.33820
C          7.87090        4.36100       -5.21530
C          6.79620        4.34630       -4.27700
C          6.76830        3.76700       -3.00000
C          7.86560        2.93640       -2.48820
C          8.36450        1.87150       -3.23840
C          9.33400        1.04140       -2.71880
C          9.85530        1.24460       -1.44150
S         11.10870        0.13270       -0.88530
C         10.78920       -0.00070        0.92070
C         11.30330       -1.33830        1.41570
C          9.37380        2.33300       -0.72040
F          9.86670        2.62390        0.50670
C          8.38590        3.15780       -1.21760
C          5.60940        3.95100       -2.26030
C          4.46930        4.63370       -2.75080
C          4.50140        5.22230       -4.02480
C          3.36200        5.98660       -4.54260
C          2.85450        5.75630       -5.81760
C          1.79690        6.49540       -6.31060
C          1.21630        7.50420       -5.55020
S         -0.13280        8.51690       -6.05610
C         -0.16310        8.33650       -7.87280
C          1.04690        8.96880       -8.53380
C          1.72730        7.71570       -4.26790
C          2.77400        6.98050       -3.76120
F          1.18510        8.67970       -3.49730
C          5.67160        5.06080       -4.75610
S          5.98040        5.71630       -6.34430
C          3.37020        4.53990       -1.85380
C          3.65370        3.84700       -0.71680
S          5.31660        3.28320       -0.67790
C          2.79820        3.47230        0.36120
C          3.19680        2.85730        1.50880
C          2.13000        2.46990        2.35390
C          2.20620        1.75390        3.56100
C          3.50640        1.36090        4.11410
C          4.49710        0.79940        3.31090
C          5.74700        0.50630        3.81550
C          6.05820        0.76450        5.14460
S          7.62600        0.43370        5.88300
C          8.77900        0.55560        4.47080
C          8.79610        1.94660        3.86850
C          5.04560        1.28580        5.94970
F          5.29580        1.51990        7.25600
C          3.79430        1.58500        5.45930
C          1.00020        1.48520        4.18940
C         -0.25580        1.93060        3.70520
C         -0.32560        2.64010        2.49200
C         -1.60560        3.09780        1.93870
C         -1.75570        4.41440        1.50690
C         -2.95740        4.85330        0.99230
C         -4.04660        3.99650        0.89090
S         -5.56480        4.61840        0.21120
C         -6.70410        4.29830        1.60720
C         -6.29520        5.05940        2.85230
C         -3.87950        2.67790        1.29980
C         -2.68560        2.22620        1.82370
F         -4.89620        1.79580        1.18520
C          0.87530        2.88040        1.83990
S          1.05730        3.67220        0.28960
C         -1.31420        1.56890        4.57600
C         -0.92970        0.80540        5.64380
S          0.80640        0.55010        5.64090
C         -1.75150        0.19250        6.64070
C         -3.13450        0.16620        6.69330
C         -3.54070       -0.54830        7.90250
C         -2.35820       -0.96550        8.54130
C         -2.32180       -1.69450        9.72760
C         -1.03300       -2.00580       10.21700
C          0.07530       -1.58240        9.52670
C          0.00310       -0.84290        8.32870
C         -1.23150       -0.53140        7.81320
C         -3.57700       -2.02260       10.28920
C         -4.73670       -1.62690        9.66580
C         -4.74660       -0.89010        8.46700
C         -4.20410        0.74460        5.89880
C         -4.76090        0.37520        4.68740
C         -6.01700        1.12280        4.50270
C         -6.16520        1.92370        5.65550
C         -7.23380        2.77900        5.91330
C         -7.18000        3.48440        7.13750
C         -6.11980        3.30280        7.99360
C         -5.05580        2.42480        7.71530
C         -5.08400        1.72170        6.53510
C         -8.24350        2.81370        4.92450
C         -8.11290        2.04570        3.79440
C         -7.00630        1.20490        3.55350
C         -4.24220       -0.57970        3.76010
C         -4.84420       -1.15770        2.67690
C         -3.97750       -1.96010        1.89360
C         -4.24840       -2.61670        0.67910
C         -5.62000       -2.72490        0.17290
C         -6.64770       -3.14800        1.01750
C         -7.93850       -3.26150        0.55300
C         -8.26570       -2.96510       -0.77140
S         -9.95150       -3.20110       -1.23380
C        -10.22220       -2.05380       -2.64280
C        -11.71210       -1.81720       -2.79380
C         -7.22780       -2.56390       -1.60690
F         -7.45020       -2.28890       -2.91280
C         -5.93170       -2.43260       -1.14990
C         -3.15600       -3.14900        0.00840
C         -1.82520       -3.08240        0.49880
C         -1.57250       -2.52020        1.75920
C         -0.24890       -2.46520        2.38920
C         -0.10860       -2.84840        3.72140
C          1.10510       -2.76820        4.37190
C          2.23920       -2.31350        3.70790
S          3.84320       -2.21790        4.42210
C          3.51870       -2.45770        6.20800
C          4.81550       -2.29680        6.97700
C          2.08660       -1.94140        2.37100
C          0.87650       -1.99650        1.71600
F          3.16220       -1.50540        1.67950
C         -2.66470       -1.97680        2.41830
S         -2.57210       -1.10120        3.91500
C         -0.89690       -3.63990       -0.41790
C         -1.47210       -4.13570       -1.54580
S         -3.21690       -3.97660       -1.52960
C         -0.80060       -4.63040       -2.71230
C         -1.18260       -5.59580       -3.58860
C         -0.27570       -5.77060       -4.67130
C         -0.34340       -6.68690       -5.73220
C         -1.41070       -7.69130       -5.81230
C         -2.15370       -7.86030       -6.97980
C         -3.15860       -8.80000       -7.04260
C         -3.45700       -9.62100       -5.95490
S         -4.73880      -10.81220       -6.17910
C         -5.46660      -11.01250       -4.50330
C         -6.88150      -11.53750       -4.64700
C         -2.68680       -9.46190       -4.80660
F         -2.87810      -10.25160       -3.72420
C         -1.69310       -8.50790       -4.72230
C          0.65320       -6.59980       -6.69630
C          1.69060       -5.63660       -6.66000
C          1.75230       -4.71620       -5.60710
C          2.72440       -3.61420       -5.56510
C          2.24460       -2.30960       -5.48540
C          3.10420       -1.23280       -5.42800
C          4.48130       -1.42240       -5.42660
S          5.66190       -0.11590       -5.32290
C          4.68900        1.26270       -4.62500
C          4.22710        0.97590       -3.21020
C          4.94900       -2.73270       -5.53100
C          4.09990       -3.81740       -5.60510
F          6.27860       -2.95460       -5.55600
C          0.78010       -4.82900       -4.62470
S          0.69690       -3.84720       -3.18710
C          2.55850       -5.75110       -7.78660
C          2.21750       -6.76350       -8.60820
S          0.81530       -7.63720       -8.09060
H          8.20170        5.21110       -7.19330
H          8.81940        3.89010       -5.03190
H          7.96200        1.66510       -4.21850
H          9.69850        0.20520       -3.29450
H         11.29560        0.82370        1.42130
H          9.71250        0.08330        1.06080
H         12.37270       -1.42480        1.23760
H         10.80150       -2.15450        0.90080
H         11.11960       -1.43080        2.48420
H          8.05170        3.98720       -0.61400
H          3.27880        4.97410       -6.42830
H          1.42210        6.27230       -7.29620
H         -0.27030        7.28120       -8.12030
H         -1.07790        8.85390       -8.16180
H          1.10440       10.02420       -8.27830
H          0.96830        8.87600       -9.61520
H          1.96690        8.48690       -8.20930
H          3.14640        7.20610       -2.77410
H          2.39440        4.94300       -2.05900
H          4.23380        2.69450        1.73790
H          4.28050        0.54660        2.28630
H          6.47640        0.05370        3.16420
H          9.74470        0.30770        4.91130
H          8.52190       -0.21170        3.74130
H          9.05690        2.68100        4.62710
H          9.52930        2.00010        3.06710
H          7.82110        2.20520        3.46000
H          3.06570        2.02120        6.12410
H         -0.93240        5.10550        1.59940
H         -3.07330        5.87460        0.66510
H         -7.67400        4.63230        1.24030
H         -6.73770        3.22580        1.78540
H         -6.23320        6.12530        2.64470
H         -7.02710        4.89530        3.64090
H         -5.32520        4.71850        3.21130
H         -2.59460        1.18870        2.10450
H         -2.33400        1.87440        4.42580
H         -0.92630       -2.56960       11.13230
H          1.05680       -1.81890        9.91260
H          0.92500       -0.53800        7.85960
H         -3.61930       -2.58600       11.21010
H         -5.68680       -1.88920       10.10920
H         -5.68830       -0.60530        8.02040
H         -7.97870        4.16410        7.39720
H         -6.09720        3.85130        8.92440
H         -4.24910        2.31340        8.42520
H         -9.11360        3.43890        5.06430
H         -8.89030        2.08140        3.04410
H         -6.97380        0.66010        2.62360
H         -5.87170       -1.00280        2.41330
H         -6.42390       -3.40480        2.04180
H         -8.72890       -3.59010        1.21010
H         -9.80300       -2.50510       -3.54070
H         -9.69690       -1.12800       -2.41390
H        -12.12400       -1.37820       -1.88790
H        -12.22930       -2.75410       -2.98830
H        -11.89280       -1.13980       -3.62560
H         -5.17740       -2.09170       -1.84120
H         -0.95970       -3.23940        4.25770
H          1.16080       -3.07280        5.40350
H          3.11520       -3.46100        6.34680
H          2.78500       -1.70850        6.50570
H          5.21950       -1.29640        6.85330
H          5.55710       -3.01150        6.62830
H          4.63710       -2.46860        8.03620
H          0.81790       -1.65260        0.69510
H          0.16310       -3.68270       -0.24450
H         -2.08780       -6.16390       -3.47010
H         -1.95960       -7.23040       -7.83370
H         -3.74020       -8.91760       -7.94350
H         -4.84540      -11.70490       -3.93730
H         -5.45670      -10.03280       -4.02800
H         -6.88160      -12.50000       -5.15340
H         -7.32820      -11.66080       -3.66270
H         -7.48990      -10.84450       -5.22390
H         -1.11890       -8.43790       -3.81110
H          1.17970       -2.13360       -5.48610
H          2.68800       -0.23980       -5.38850
H          3.86060        1.48430       -5.29710
H          5.37920        2.10530       -4.64580
H          5.08500        0.84860       -2.55380
H          3.62640        0.06960       -3.16860
H          3.62290        1.80420       -2.84520
H          4.51720       -4.81070       -5.66280
H          3.39270       -5.09490       -7.95650
H          2.70170       -7.06860       -9.51540
