
  xtb     03032202003D
 energy: -461.026560263581 gnorm: 0.000343456189 xtb: 6.4.1 (unknown)
236263  0     0  0            999 V2000
   -1.6916   -4.3448   15.7110 C   0  0  0  0  0  0  0  0  0  0  0  0
   -0.6814   -3.8045   15.0002 C   0  0  0  0  0  0  0  0  0  0  0  0
   -1.0815   -3.3943   13.6948 C   0  0  0  0  0  0  0  0  0  0  0  0
   -0.3084   -2.7755   12.7002 C   0  0  0  0  0  0  0  0  0  0  0  0
    1.1165   -2.5405   12.8685 C   0  0  0  0  0  0  0  0  0  0  0  0
    1.8035   -0.9645   12.6140 S   0  0  0  0  0  0  0  0  0  0  0  0
    3.4072   -1.5246   12.9446 C   0  0  0  0  0  0  0  0  0  0  0  0
    4.5725   -0.6045   12.8381 C   0  0  0  0  0  0  0  0  0  0  0  0
    4.8999   -0.3073   11.3729 C   0  0  0  0  0  0  0  0  0  0  0  0
    3.3947   -2.8579   13.2271 C   0  0  0  0  0  0  0  0  0  0  0  0
    4.7976   -3.7757   13.5971 Cl  0  0  0  0  0  0  0  0  0  0  0  0
    2.0971   -3.4367   13.1902 C   0  0  0  0  0  0  0  0  0  0  0  0
    1.8250   -5.1127   13.4431 Cl  0  0  0  0  0  0  0  0  0  0  0  0
   -0.9638   -2.3998   11.5350 C   0  0  0  0  0  0  0  0  0  0  0  0
   -2.3417   -2.6367   11.3137 C   0  0  0  0  0  0  0  0  0  0  0  0
   -3.1150   -3.2612   12.3067 C   0  0  0  0  0  0  0  0  0  0  0  0
   -4.5370   -3.4863   12.1109 C   0  0  0  0  0  0  0  0  0  0  0  0
   -5.2436   -5.0608   12.3202 S   0  0  0  0  0  0  0  0  0  0  0  0
   -6.8218   -4.4953   11.8938 C   0  0  0  0  0  0  0  0  0  0  0  0
   -7.9810   -5.4258   11.8107 C   0  0  0  0  0  0  0  0  0  0  0  0
   -8.0659   -6.0701   10.4248 C   0  0  0  0  0  0  0  0  0  0  0  0
   -6.7867   -3.1632   11.6065 C   0  0  0  0  0  0  0  0  0  0  0  0
   -5.4957   -2.5854   11.7348 C   0  0  0  0  0  0  0  0  0  0  0  0
   -5.2140   -0.9054   11.5165 Cl  0  0  0  0  0  0  0  0  0  0  0  0
   -8.1608   -2.2494   11.1347 Cl  0  0  0  0  0  0  0  0  0  0  0  0
   -2.4577   -3.6382   13.4714 C   0  0  0  0  0  0  0  0  0  0  0  0
   -3.1966   -4.3871   14.8588 S   0  0  0  0  0  0  0  0  0  0  0  0
   -2.7498   -2.2047   10.0276 C   0  0  0  0  0  0  0  0  0  0  0  0
   -1.7451   -1.6430    9.2992 C   0  0  0  0  0  0  0  0  0  0  0  0
   -0.2181   -1.6407   10.1569 S   0  0  0  0  0  0  0  0  0  0  0  0
   -1.8409   -1.0615    8.0012 C   0  0  0  0  0  0  0  0  0  0  0  0
   -0.8271   -0.6419    7.1934 C   0  0  0  0  0  0  0  0  0  0  0  0
   -1.2751   -0.0647    5.9799 C   0  0  0  0  0  0  0  0  0  0  0  0
   -0.5034    0.4786    4.9369 C   0  0  0  0  0  0  0  0  0  0  0  0
    0.9411    0.5823    5.0460 C   0  0  0  0  0  0  0  0  0  0  0  0
    1.9922   -0.0008    3.7887 S   0  0  0  0  0  0  0  0  0  0  0  0
    3.4154    0.4796    4.6473 C   0  0  0  0  0  0  0  0  0  0  0  0
    4.7739    0.2067    4.1036 C   0  0  0  0  0  0  0  0  0  0  0  0
    5.2410   -1.2021    4.4757 C   0  0  0  0  0  0  0  0  0  0  0  0
    3.0800    1.0502    5.8388 C   0  0  0  0  0  0  0  0  0  0  0  0
    4.2238    1.6467    6.9700 Cl  0  0  0  0  0  0  0  0  0  0  0  0
    1.6793    1.1176    6.0664 C   0  0  0  0  0  0  0  0  0  0  0  0
    1.0117    1.8846    7.4499 Cl  0  0  0  0  0  0  0  0  0  0  0  0
   -1.1886    0.9099    3.8088 C   0  0  0  0  0  0  0  0  0  0  0  0
   -2.6013    0.8852    3.7061 C   0  0  0  0  0  0  0  0  0  0  0  0
   -3.3752    0.4012    4.7743 C   0  0  0  0  0  0  0  0  0  0  0  0
   -4.8268    0.4212    4.7330 C   0  0  0  0  0  0  0  0  0  0  0  0
   -5.7601   -0.9977    5.1059 S   0  0  0  0  0  0  0  0  0  0  0  0
   -7.2609   -0.1625    4.8954 C   0  0  0  0  0  0  0  0  0  0  0  0
   -8.5571   -0.8480    5.1507 C   0  0  0  0  0  0  0  0  0  0  0  0
   -8.8066   -0.9927    6.6539 C   0  0  0  0  0  0  0  0  0  0  0  0
   -7.0353    1.1388    4.5585 C   0  0  0  0  0  0  0  0  0  0  0  0
   -5.6574    1.4728    4.4588 C   0  0  0  0  0  0  0  0  0  0  0  0
   -5.1189    3.0665    4.1185 Cl  0  0  0  0  0  0  0  0  0  0  0  0
   -8.2793    2.2869    4.2773 Cl  0  0  0  0  0  0  0  0  0  0  0  0
   -2.6873   -0.0904    5.8754 C   0  0  0  0  0  0  0  0  0  0  0  0
   -3.4187   -0.7787    7.2956 S   0  0  0  0  0  0  0  0  0  0  0  0
   -3.0479    1.3458    2.4441 C   0  0  0  0  0  0  0  0  0  0  0  0
   -2.0354    1.7241    1.6141 C   0  0  0  0  0  0  0  0  0  0  0  0
   -0.4585    1.5482    2.3611 S   0  0  0  0  0  0  0  0  0  0  0  0
   -2.1406    2.1380    0.2554 C   0  0  0  0  0  0  0  0  0  0  0  0
   -1.1294    2.3763   -0.6266 C   0  0  0  0  0  0  0  0  0  0  0  0
   -1.5831    2.6609   -1.9374 C   0  0  0  0  0  0  0  0  0  0  0  0
   -0.8156    2.9208   -3.0827 C   0  0  0  0  0  0  0  0  0  0  0  0
    0.6387    2.9300   -3.0500 C   0  0  0  0  0  0  0  0  0  0  0  0
    1.5724    1.5608   -2.5279 S   0  0  0  0  0  0  0  0  0  0  0  0
    3.0756    2.3799   -2.7918 C   0  0  0  0  0  0  0  0  0  0  0  0
    4.3766    1.7033   -2.5215 C   0  0  0  0  0  0  0  0  0  0  0  0
    5.2430    1.5973   -3.7775 C   0  0  0  0  0  0  0  0  0  0  0  0
    2.8478    3.6430   -3.2523 C   0  0  0  0  0  0  0  0  0  0  0  0
    4.0773    4.7925   -3.5813 Cl  0  0  0  0  0  0  0  0  0  0  0  0
    1.4708    3.9530   -3.4098 C   0  0  0  0  0  0  0  0  0  0  0  0
    0.9261    5.4929   -3.9251 Cl  0  0  0  0  0  0  0  0  0  0  0  0
   -1.5068    3.1816   -4.2575 C   0  0  0  0  0  0  0  0  0  0  0  0
   -2.9189    3.2303   -4.3314 C   0  0  0  0  0  0  0  0  0  0  0  0
   -3.6870    2.9308   -3.1954 C   0  0  0  0  0  0  0  0  0  0  0  0
   -5.1360    2.8390   -3.2726 C   0  0  0  0  0  0  0  0  0  0  0  0
   -6.1048    4.1460   -3.8840 S   0  0  0  0  0  0  0  0  0  0  0  0
   -7.5757    3.2553   -3.6873 C   0  0  0  0  0  0  0  0  0  0  0  0
   -8.8841    3.8177   -4.1208 C   0  0  0  0  0  0  0  0  0  0  0  0
   -9.1193    3.5517   -5.6099 C   0  0  0  0  0  0  0  0  0  0  0  0
   -7.3129    2.0168   -3.1839 C   0  0  0  0  0  0  0  0  0  0  0  0
   -5.9331    1.7781   -2.9411 C   0  0  0  0  0  0  0  0  0  0  0  0
   -5.3524    0.2655   -2.3799 Cl  0  0  0  0  0  0  0  0  0  0  0  0
   -8.5181    0.8363   -2.8696 Cl  0  0  0  0  0  0  0  0  0  0  0  0
   -2.9968    2.6522   -2.0230 C   0  0  0  0  0  0  0  0  0  0  0  0
   -3.7193    2.2880   -0.4858 S   0  0  0  0  0  0  0  0  0  0  0  0
   -3.3693    3.4654   -5.6585 C   0  0  0  0  0  0  0  0  0  0  0  0
   -2.3667    3.5170   -6.5714 C   0  0  0  0  0  0  0  0  0  0  0  0
   -0.7852    3.3887   -5.8224 S   0  0  0  0  0  0  0  0  0  0  0  0
   -2.4191    3.6590   -8.0144 C   0  0  0  0  0  0  0  0  0  0  0  0
   -1.4643    4.4913   -8.6050 C   0  0  0  0  0  0  0  0  0  0  0  0
   -1.3988    4.7210   -9.9676 C   0  0  0  0  0  0  0  0  0  0  0  0
   -2.2981    4.1031  -10.8139 C   0  0  0  0  0  0  0  0  0  0  0  0
   -3.2454    3.2545  -10.2657 C   0  0  0  0  0  0  0  0  0  0  0  0
   -3.3218    3.0059   -8.8684 C   0  0  0  0  0  0  0  0  0  0  0  0
   -4.3679    2.1216   -8.6392 N   0  0  0  0  0  0  0  0  0  0  0  0
   -4.9721    1.8376   -9.8585 C   0  0  0  0  0  0  0  0  0  0  0  0
   -4.2961    2.5065  -10.8941 C   0  0  0  0  0  0  0  0  0  0  0  0
   -4.7054    2.3559  -12.2122 C   0  0  0  0  0  0  0  0  0  0  0  0
   -5.7885    1.5409  -12.4742 C   0  0  0  0  0  0  0  0  0  0  0  0
   -6.4472    0.8737  -11.4445 C   0  0  0  0  0  0  0  0  0  0  0  0
   -6.0466    1.0020  -10.1275 C   0  0  0  0  0  0  0  0  0  0  0  0
   -4.9764    1.6326   -7.4866 C   0  0  0  0  0  0  0  0  0  0  0  0
   -4.4686    0.9544   -6.4469 C   0  0  0  0  0  0  0  0  0  0  0  0
   -3.1292    0.5180   -6.1902 C   0  0  0  0  0  0  0  0  0  0  0  0
   -2.0204    0.5015   -6.9823 C   0  0  0  0  0  0  0  0  0  0  0  0
   -0.8633    0.0101   -6.3262 C   0  0  0  0  0  0  0  0  0  0  0  0
    0.4353   -0.1385   -6.8464 C   0  0  0  0  0  0  0  0  0  0  0  0
    0.7583    0.2122   -8.2189 C   0  0  0  0  0  0  0  0  0  0  0  0
    0.3304    1.7636   -8.8799 S   0  0  0  0  0  0  0  0  0  0  0  0
    1.0558    1.4044  -10.4088 C   0  0  0  0  0  0  0  0  0  0  0  0
    1.0601    2.4100  -11.5058 C   0  0  0  0  0  0  0  0  0  0  0  0
    2.0442    3.5434  -11.2112 C   0  0  0  0  0  0  0  0  0  0  0  0
    1.6000    0.1557  -10.3910 C   0  0  0  0  0  0  0  0  0  0  0  0
    2.4138   -0.5577  -11.7225 Cl  0  0  0  0  0  0  0  0  0  0  0  0
    1.4292   -0.5259   -9.1559 C   0  0  0  0  0  0  0  0  0  0  0  0
    1.9388   -2.1479   -8.9389 Cl  0  0  0  0  0  0  0  0  0  0  0  0
    1.4057   -0.6203   -5.9763 C   0  0  0  0  0  0  0  0  0  0  0  0
    1.1285   -1.0140   -4.6449 C   0  0  0  0  0  0  0  0  0  0  0  0
   -0.1874   -0.9542   -4.1552 C   0  0  0  0  0  0  0  0  0  0  0  0
   -0.5188   -1.5008   -2.8529 C   0  0  0  0  0  0  0  0  0  0  0  0
   -1.4802   -0.6356   -1.6940 S   0  0  0  0  0  0  0  0  0  0  0  0
   -1.3855   -1.9175   -0.5339 C   0  0  0  0  0  0  0  0  0  0  0  0
   -2.0366   -1.8085    0.8005 C   0  0  0  0  0  0  0  0  0  0  0  0
   -3.5395   -1.5624    0.6839 C   0  0  0  0  0  0  0  0  0  0  0  0
   -0.6635   -2.9567   -1.0401 C   0  0  0  0  0  0  0  0  0  0  0  0
   -0.1722   -2.7272   -2.3522 C   0  0  0  0  0  0  0  0  0  0  0  0
    0.6827   -3.9302   -3.2289 Cl  0  0  0  0  0  0  0  0  0  0  0  0
   -0.3537   -4.4160   -0.1925 Cl  0  0  0  0  0  0  0  0  0  0  0  0
   -1.1393   -0.3916   -4.9953 C   0  0  0  0  0  0  0  0  0  0  0  0
   -2.8069   -0.1376   -4.5942 S   0  0  0  0  0  0  0  0  0  0  0  0
    2.3009   -1.3980   -3.9484 C   0  0  0  0  0  0  0  0  0  0  0  0
    3.4264   -1.3390   -4.7122 C   0  0  0  0  0  0  0  0  0  0  0  0
    3.0997   -0.7683   -6.3363 S   0  0  0  0  0  0  0  0  0  0  0  0
    4.7575   -1.7056   -4.3586 C   0  0  0  0  0  0  0  0  0  0  0  0
    5.8209   -1.8041   -5.2030 C   0  0  0  0  0  0  0  0  0  0  0  0
    7.0095   -2.2415   -4.5700 C   0  0  0  0  0  0  0  0  0  0  0  0
    8.2697   -2.4529   -5.1535 C   0  0  0  0  0  0  0  0  0  0  0  0
    8.4607   -2.2785   -6.5834 C   0  0  0  0  0  0  0  0  0  0  0  0
    7.4032   -3.0688   -7.7179 S   0  0  0  0  0  0  0  0  0  0  0  0
    8.2229   -2.3886   -9.0814 C   0  0  0  0  0  0  0  0  0  0  0  0
    7.7336   -2.6408  -10.4646 C   0  0  0  0  0  0  0  0  0  0  0  0
    6.3994   -1.9325  -10.7114 C   0  0  0  0  0  0  0  0  0  0  0  0
    9.2556   -1.6026   -8.6659 C   0  0  0  0  0  0  0  0  0  0  0  0
   10.3012   -0.7501   -9.7269 Cl  0  0  0  0  0  0  0  0  0  0  0  0
    9.3985   -1.5427   -7.2522 C   0  0  0  0  0  0  0  0  0  0  0  0
   10.5779   -0.5606   -6.4908 Cl  0  0  0  0  0  0  0  0  0  0  0  0
    9.2899   -2.8742   -4.3085 C   0  0  0  0  0  0  0  0  0  0  0  0
    9.1004   -3.0825   -2.9204 C   0  0  0  0  0  0  0  0  0  0  0  0
    7.8458   -2.8454   -2.3353 C   0  0  0  0  0  0  0  0  0  0  0  0
    7.6332   -3.0263   -0.9084 C   0  0  0  0  0  0  0  0  0  0  0  0
    6.3594   -4.0417   -0.3022 S   0  0  0  0  0  0  0  0  0  0  0  0
    6.7978   -3.7412    1.3453 C   0  0  0  0  0  0  0  0  0  0  0  0
    6.0809   -4.4165    2.4617 C   0  0  0  0  0  0  0  0  0  0  0  0
    6.4763   -5.8918    2.5557 C   0  0  0  0  0  0  0  0  0  0  0  0
    7.8664   -2.8975    1.4040 C   0  0  0  0  0  0  0  0  0  0  0  0
    8.3410   -2.4869    0.1292 C   0  0  0  0  0  0  0  0  0  0  0  0
    9.6290   -1.3666   -0.0626 Cl  0  0  0  0  0  0  0  0  0  0  0  0
    8.5939   -2.3628    2.8650 Cl  0  0  0  0  0  0  0  0  0  0  0  0
    6.8204   -2.4480   -3.1827 C   0  0  0  0  0  0  0  0  0  0  0  0
    5.1753   -2.1205   -2.7088 S   0  0  0  0  0  0  0  0  0  0  0  0
   10.2765   -3.6009   -2.3042 C   0  0  0  0  0  0  0  0  0  0  0  0
   11.2943   -3.7646   -3.1737 C   0  0  0  0  0  0  0  0  0  0  0  0
   10.9042   -3.3048   -4.7934 S   0  0  0  0  0  0  0  0  0  0  0  0
   -1.6598   -4.7312   16.7109 H   0  0  0  0  0  0  0  0  0  0  0  0
    0.3159   -3.6818   15.3797 H   0  0  0  0  0  0  0  0  0  0  0  0
    5.4318   -1.0705   13.3230 H   0  0  0  0  0  0  0  0  0  0  0  0
    4.3456    0.3311   13.3533 H   0  0  0  0  0  0  0  0  0  0  0  0
    5.1456   -1.2264   10.8467 H   0  0  0  0  0  0  0  0  0  0  0  0
    4.0469    0.1559   10.8826 H   0  0  0  0  0  0  0  0  0  0  0  0
    5.7487    0.3681   11.3094 H   0  0  0  0  0  0  0  0  0  0  0  0
   -7.8753   -6.2039   12.5681 H   0  0  0  0  0  0  0  0  0  0  0  0
   -8.8963   -4.8647   12.0087 H   0  0  0  0  0  0  0  0  0  0  0  0
   -8.9176   -6.7431   10.3777 H   0  0  0  0  0  0  0  0  0  0  0  0
   -7.1611   -6.6359   10.2160 H   0  0  0  0  0  0  0  0  0  0  0  0
   -8.1824   -5.3057    9.6608 H   0  0  0  0  0  0  0  0  0  0  0  0
   -3.7470   -2.3159    9.6429 H   0  0  0  0  0  0  0  0  0  0  0  0
    0.2076   -0.7622    7.4575 H   0  0  0  0  0  0  0  0  0  0  0  0
    5.4694    0.9415    4.5131 H   0  0  0  0  0  0  0  0  0  0  0  0
    4.7563    0.3066    3.0172 H   0  0  0  0  0  0  0  0  0  0  0  0
    6.2329   -1.3806    4.0708 H   0  0  0  0  0  0  0  0  0  0  0  0
    4.5561   -1.9434    4.0708 H   0  0  0  0  0  0  0  0  0  0  0  0
    5.2787   -1.3140    5.5563 H   0  0  0  0  0  0  0  0  0  0  0  0
   -9.3583   -0.2622    4.6974 H   0  0  0  0  0  0  0  0  0  0  0  0
   -8.5429   -1.8376    4.6899 H   0  0  0  0  0  0  0  0  0  0  0  0
   -8.0107   -1.5735    7.1143 H   0  0  0  0  0  0  0  0  0  0  0  0
   -9.7536   -1.4960    6.8293 H   0  0  0  0  0  0  0  0  0  0  0  0
   -8.8394   -0.0147    7.1274 H   0  0  0  0  0  0  0  0  0  0  0  0
   -4.0795    1.3681    2.1444 H   0  0  0  0  0  0  0  0  0  0  0  0
   -0.0921    2.3285   -0.3489 H   0  0  0  0  0  0  0  0  0  0  0  0
    4.9219    2.2682   -1.7602 H   0  0  0  0  0  0  0  0  0  0  0  0
    4.1757    0.7058   -2.1268 H   0  0  0  0  0  0  0  0  0  0  0  0
    5.5431    2.5821   -4.1217 H   0  0  0  0  0  0  0  0  0  0  0  0
    6.1377    1.0194   -3.5606 H   0  0  0  0  0  0  0  0  0  0  0  0
    4.6970    1.1064   -4.5785 H   0  0  0  0  0  0  0  0  0  0  0  0
   -9.6785    3.3506   -3.5361 H   0  0  0  0  0  0  0  0  0  0  0  0
   -8.8981    4.8930   -3.9366 H   0  0  0  0  0  0  0  0  0  0  0  0
   -8.3370    4.0184   -6.2042 H   0  0  0  0  0  0  0  0  0  0  0  0
   -9.1167    2.4821   -5.8051 H   0  0  0  0  0  0  0  0  0  0  0  0
  -10.0790    3.9589   -5.9158 H   0  0  0  0  0  0  0  0  0  0  0  0
   -4.4030    3.6022   -5.9126 H   0  0  0  0  0  0  0  0  0  0  0  0
   -0.7606    4.9874   -7.9537 H   0  0  0  0  0  0  0  0  0  0  0  0
   -0.6496    5.3905  -10.3607 H   0  0  0  0  0  0  0  0  0  0  0  0
   -2.2792    4.2761  -11.8791 H   0  0  0  0  0  0  0  0  0  0  0  0
   -4.1869    2.8650  -13.0101 H   0  0  0  0  0  0  0  0  0  0  0  0
   -6.1289    1.4106  -13.4903 H   0  0  0  0  0  0  0  0  0  0  0  0
   -7.2854    0.2354  -11.6804 H   0  0  0  0  0  0  0  0  0  0  0  0
   -6.5531    0.4597   -9.3442 H   0  0  0  0  0  0  0  0  0  0  0  0
   -6.0529    1.7784   -7.5017 H   0  0  0  0  0  0  0  0  0  0  0  0
   -5.1707    0.6929   -5.6660 H   0  0  0  0  0  0  0  0  0  0  0  0
   -2.0234    0.8251   -8.0062 H   0  0  0  0  0  0  0  0  0  0  0  0
    0.0552    2.8245  -11.6138 H   0  0  0  0  0  0  0  0  0  0  0  0
    1.3369    1.9103  -12.4357 H   0  0  0  0  0  0  0  0  0  0  0  0
    2.0275    4.2721  -12.0172 H   0  0  0  0  0  0  0  0  0  0  0  0
    3.0542    3.1523  -11.1167 H   0  0  0  0  0  0  0  0  0  0  0  0
    1.7754    4.0395  -10.2817 H   0  0  0  0  0  0  0  0  0  0  0  0
   -1.8510   -2.7333    1.3492 H   0  0  0  0  0  0  0  0  0  0  0  0
   -1.5774   -0.9878    1.3567 H   0  0  0  0  0  0  0  0  0  0  0  0
   -3.9817   -1.4790    1.6733 H   0  0  0  0  0  0  0  0  0  0  0  0
   -3.7306   -0.6429    0.1362 H   0  0  0  0  0  0  0  0  0  0  0  0
   -4.0177   -2.3840    0.1563 H   0  0  0  0  0  0  0  0  0  0  0  0
    2.3158   -1.6938   -2.9155 H   0  0  0  0  0  0  0  0  0  0  0  0
    5.7457   -1.5717   -6.2493 H   0  0  0  0  0  0  0  0  0  0  0  0
    8.4830   -2.2792  -11.1703 H   0  0  0  0  0  0  0  0  0  0  0  0
    7.6034   -3.7149  -10.6152 H   0  0  0  0  0  0  0  0  0  0  0  0
    6.0590   -2.1195  -11.7262 H   0  0  0  0  0  0  0  0  0  0  0  0
    5.6438   -2.2955  -10.0185 H   0  0  0  0  0  0  0  0  0  0  0  0
    6.5088   -0.8595  -10.5736 H   0  0  0  0  0  0  0  0  0  0  0  0
    6.3293   -3.9096    3.3951 H   0  0  0  0  0  0  0  0  0  0  0  0
    5.0040   -4.3422    2.2976 H   0  0  0  0  0  0  0  0  0  0  0  0
    7.5446   -5.9862    2.7341 H   0  0  0  0  0  0  0  0  0  0  0  0
    6.2310   -6.4078    1.6306 H   0  0  0  0  0  0  0  0  0  0  0  0
    5.9437   -6.3687    3.3739 H   0  0  0  0  0  0  0  0  0  0  0  0
   10.3381   -3.8526   -1.2618 H   0  0  0  0  0  0  0  0  0  0  0  0
   12.2793   -4.1370   -2.9705 H   0  0  0  0  0  0  0  0  0  0  0  0
  1  2  2  0  0  0  0
  2  3  1  0  0  0  0
  3  4  2  0  0  0  0
  4  5  1  0  0  0  0
  5  6  1  0  0  0  0
  6  7  1  0  0  0  0
  7  8  1  0  0  0  0
  8  9  1  0  0  0  0
  7 10  2  0  0  0  0
 10 11  1  0  0  0  0
 10 12  1  0  0  0  0
 12 13  1  0  0  0  0
  4 14  1  0  0  0  0
 14 15  2  0  0  0  0
 15 16  1  0  0  0  0
 16 17  1  0  0  0  0
 17 18  1  0  0  0  0
 18 19  1  0  0  0  0
 19 20  1  0  0  0  0
 20 21  1  0  0  0  0
 19 22  2  0  0  0  0
 22 23  1  0  0  0  0
 23 24  1  0  0  0  0
 22 25  1  0  0  0  0
 16 26  2  0  0  0  0
 26 27  1  0  0  0  0
 15 28  1  0  0  0  0
 28 29  2  0  0  0  0
 29 30  1  0  0  0  0
 29 31  1  0  0  0  0
 31 32  2  0  0  0  0
 32 33  1  0  0  0  0
 33 34  2  0  0  0  0
 34 35  1  0  0  0  0
 35 36  1  0  0  0  0
 36 37  1  0  0  0  0
 37 38  1  0  0  0  0
 38 39  1  0  0  0  0
 37 40  2  0  0  0  0
 40 41  1  0  0  0  0
 40 42  1  0  0  0  0
 42 43  1  0  0  0  0
 34 44  1  0  0  0  0
 44 45  2  0  0  0  0
 45 46  1  0  0  0  0
 46 47  1  0  0  0  0
 47 48  1  0  0  0  0
 48 49  1  0  0  0  0
 49 50  1  0  0  0  0
 50 51  1  0  0  0  0
 49 52  2  0  0  0  0
 52 53  1  0  0  0  0
 53 54  1  0  0  0  0
 52 55  1  0  0  0  0
 46 56  2  0  0  0  0
 56 57  1  0  0  0  0
 45 58  1  0  0  0  0
 58 59  2  0  0  0  0
 59 60  1  0  0  0  0
 59 61  1  0  0  0  0
 61 62  2  0  0  0  0
 62 63  1  0  0  0  0
 63 64  2  0  0  0  0
 64 65  1  0  0  0  0
 65 66  1  0  0  0  0
 66 67  1  0  0  0  0
 67 68  1  0  0  0  0
 68 69  1  0  0  0  0
 67 70  2  0  0  0  0
 70 71  1  0  0  0  0
 70 72  1  0  0  0  0
 72 73  1  0  0  0  0
 64 74  1  0  0  0  0
 74 75  2  0  0  0  0
 75 76  1  0  0  0  0
 76 77  1  0  0  0  0
 77 78  1  0  0  0  0
 78 79  1  0  0  0  0
 79 80  1  0  0  0  0
 80 81  1  0  0  0  0
 79 82  2  0  0  0  0
 82 83  1  0  0  0  0
 83 84  1  0  0  0  0
 82 85  1  0  0  0  0
 76 86  2  0  0  0  0
 86 87  1  0  0  0  0
 75 88  1  0  0  0  0
 88 89  2  0  0  0  0
 89 90  1  0  0  0  0
 89 91  1  0  0  0  0
 91 92  2  0  0  0  0
 92 93  1  0  0  0  0
 93 94  2  0  0  0  0
 94 95  1  0  0  0  0
 95 96  2  0  0  0  0
 96 97  1  0  0  0  0
 97 98  1  0  0  0  0
 98 99  2  0  0  0  0
 99100  1  0  0  0  0
100101  2  0  0  0  0
101102  1  0  0  0  0
102103  2  0  0  0  0
 97104  1  0  0  0  0
104105  2  0  0  0  0
105106  1  0  0  0  0
106107  2  0  0  0  0
107108  1  0  0  0  0
108109  2  0  0  0  0
109110  1  0  0  0  0
110111  1  0  0  0  0
111112  1  0  0  0  0
112113  1  0  0  0  0
113114  1  0  0  0  0
112115  2  0  0  0  0
115116  1  0  0  0  0
115117  1  0  0  0  0
117118  1  0  0  0  0
109119  1  0  0  0  0
119120  2  0  0  0  0
120121  1  0  0  0  0
121122  1  0  0  0  0
122123  1  0  0  0  0
123124  1  0  0  0  0
124125  1  0  0  0  0
125126  1  0  0  0  0
124127  2  0  0  0  0
127128  1  0  0  0  0
128129  1  0  0  0  0
127130  1  0  0  0  0
121131  2  0  0  0  0
131132  1  0  0  0  0
120133  1  0  0  0  0
133134  2  0  0  0  0
134135  1  0  0  0  0
134136  1  0  0  0  0
136137  2  0  0  0  0
137138  1  0  0  0  0
138139  2  0  0  0  0
139140  1  0  0  0  0
140141  1  0  0  0  0
141142  1  0  0  0  0
142143  1  0  0  0  0
143144  1  0  0  0  0
142145  2  0  0  0  0
145146  1  0  0  0  0
145147  1  0  0  0  0
147148  1  0  0  0  0
139149  1  0  0  0  0
149150  2  0  0  0  0
150151  1  0  0  0  0
151152  1  0  0  0  0
152153  1  0  0  0  0
153154  1  0  0  0  0
154155  1  0  0  0  0
155156  1  0  0  0  0
154157  2  0  0  0  0
157158  1  0  0  0  0
158159  1  0  0  0  0
157160  1  0  0  0  0
151161  2  0  0  0  0
161162  1  0  0  0  0
150163  1  0  0  0  0
163164  2  0  0  0  0
164165  1  0  0  0  0
 27  1  1  0  0  0  0
 57 31  1  0  0  0  0
 87 61  1  0  0  0  0
 96 91  1  0  0  0  0
103 98  1  0  0  0  0
132106  1  0  0  0  0
162136  1  0  0  0  0
 26  3  1  0  0  0  0
 56 33  1  0  0  0  0
 86 63  1  0  0  0  0
 99 95  1  0  0  0  0
131108  1  0  0  0  0
161138  1  0  0  0  0
 12  5  2  0  0  0  0
 30 14  1  0  0  0  0
 42 35  2  0  0  0  0
 60 44  1  0  0  0  0
 72 65  2  0  0  0  0
 90 74  1  0  0  0  0
117110  2  0  0  0  0
135119  1  0  0  0  0
147140  2  0  0  0  0
165149  1  0  0  0  0
 23 17  2  0  0  0  0
 53 47  2  0  0  0  0
 83 77  2  0  0  0  0
128122  2  0  0  0  0
158152  2  0  0  0  0
  1166  1  0  0  0  0
  2167  1  0  0  0  0
  8168  1  0  0  0  0
  8169  1  0  0  0  0
  9170  1  0  0  0  0
  9171  1  0  0  0  0
  9172  1  0  0  0  0
 20173  1  0  0  0  0
 20174  1  0  0  0  0
 21175  1  0  0  0  0
 21176  1  0  0  0  0
 21177  1  0  0  0  0
 28178  1  0  0  0  0
 32179  1  0  0  0  0
 38180  1  0  0  0  0
 38181  1  0  0  0  0
 39182  1  0  0  0  0
 39183  1  0  0  0  0
 39184  1  0  0  0  0
 50185  1  0  0  0  0
 50186  1  0  0  0  0
 51187  1  0  0  0  0
 51188  1  0  0  0  0
 51189  1  0  0  0  0
 58190  1  0  0  0  0
 62191  1  0  0  0  0
 68192  1  0  0  0  0
 68193  1  0  0  0  0
 69194  1  0  0  0  0
 69195  1  0  0  0  0
 69196  1  0  0  0  0
 80197  1  0  0  0  0
 80198  1  0  0  0  0
 81199  1  0  0  0  0
 81200  1  0  0  0  0
 81201  1  0  0  0  0
 88202  1  0  0  0  0
 92203  1  0  0  0  0
 93204  1  0  0  0  0
 94205  1  0  0  0  0
100206  1  0  0  0  0
101207  1  0  0  0  0
102208  1  0  0  0  0
103209  1  0  0  0  0
104210  1  0  0  0  0
105211  1  0  0  0  0
107212  1  0  0  0  0
113213  1  0  0  0  0
113214  1  0  0  0  0
114215  1  0  0  0  0
114216  1  0  0  0  0
114217  1  0  0  0  0
125218  1  0  0  0  0
125219  1  0  0  0  0
126220  1  0  0  0  0
126221  1  0  0  0  0
126222  1  0  0  0  0
133223  1  0  0  0  0
137224  1  0  0  0  0
143225  1  0  0  0  0
143226  1  0  0  0  0
144227  1  0  0  0  0
144228  1  0  0  0  0
144229  1  0  0  0  0
155230  1  0  0  0  0
155231  1  0  0  0  0
156232  1  0  0  0  0
156233  1  0  0  0  0
156234  1  0  0  0  0
163235  1  0  0  0  0
164236  1  0  0  0  0
M  END
