229

C          4.30150       -9.98410        9.52380
C          4.52860       -8.66660        9.35110
C          3.59120       -8.05430        8.46820
C          3.54420       -6.71920        8.03570
C          4.48490       -5.72870        8.53280
S          5.43850       -4.77000        7.44140
C          6.22780       -3.93970        8.74000
C          7.25650       -2.89810        8.46900
C          6.71880       -1.80810        7.54470
C          5.75810       -4.38210        9.94030
Cl         6.29350       -3.79300       11.46160
C          4.77130       -5.39860        9.82740
Cl         3.97700       -6.07230       11.19230
C          2.56730       -6.38950        7.10560
C          1.63370       -7.33020        6.60820
C          1.68990       -8.66950        7.02740
C          0.79420       -9.66280        6.46070
S         -0.16300      -10.71470        7.45850
C         -0.86810      -11.50090        6.08830
C         -1.90550      -12.55640        6.25020
C         -3.30530      -11.94060        6.32020
C         -0.38230      -10.96670        4.93170
C          0.56320       -9.92820        5.13840
Cl         1.38260       -9.15950        3.84100
Cl        -0.84760      -11.49170        3.36530
C          2.65820       -8.99400        7.96910
S          2.94960      -10.58060        8.62390
C          0.71180       -6.73430        5.71430
C          0.93680       -5.40660        5.50670
S          2.29460       -4.80490        6.43520
C          0.24260       -4.55750        4.59710
C          0.41140       -3.22070        4.39710
C         -0.36050       -2.70370        3.32880
C         -0.39870       -1.38990        2.82440
C          0.27200       -0.29950        3.50580
S          1.22930        0.85880        2.63220
C          1.65270        1.72020        4.07020
C          2.57450        2.88950        4.02870
C          2.33790        3.76820        2.80490
C          1.05550        1.14870        5.15430
Cl         1.23490        1.72500        6.75950
C          0.26760        0.00950        4.84010
Cl        -0.65970       -0.81120        6.02790
C         -1.12360       -1.19160        1.65470
C         -1.85710       -2.21950        1.01300
C         -1.89040       -3.50780        1.56860
C         -2.68960       -4.59090        1.01570
S         -2.46880       -5.17870       -0.60310
C         -3.65560       -6.42500       -0.40010
C         -3.98090       -7.37200       -1.50290
C         -2.72410       -7.96190       -2.13790
C         -4.18410       -6.37060        0.85450
C         -3.63730       -5.33550        1.66040
Cl        -4.18150       -5.02530        3.25560
Cl        -5.39660       -7.43650        1.43550
C         -1.12530       -3.71960        2.70540
S         -0.91950       -5.25600        3.49020
C         -2.55040       -1.74500       -0.12670
C         -2.37970       -0.41230       -0.34920
S         -1.32730        0.33250        0.83540
C         -2.96290        0.36780       -1.39400
C         -3.24370        1.70020       -1.40160
C         -3.86620        2.14090       -2.59770
C         -4.31570        3.43040       -2.93320
C         -4.03880        4.59760       -2.11430
S         -5.25820        5.78370       -1.75850
C         -4.12440        6.83590       -0.98260
C         -4.56140        8.11390       -0.35720
C         -5.11810        7.87340        1.04810
C         -2.87930        6.28180       -0.99790
Cl        -1.47760        7.04090       -0.36190
C         -2.82850        5.01300       -1.63160
Cl        -1.36530        4.14390       -1.82580
C         -4.95220        3.57670       -4.15900
C         -5.10640        2.52060       -5.09090
C         -4.64260        1.23490       -4.76230
C         -4.73510        0.13130       -5.70100
S         -3.33920       -0.82670       -6.10000
C         -4.23040       -1.80070       -7.21740
C         -3.56920       -2.85460       -8.03680
C         -3.23910       -2.32690       -9.43540
C         -5.53270       -1.39970       -7.26260
C         -5.82300       -0.30610       -6.40450
Cl        -7.40650        0.33280       -6.22620
Cl        -6.72550       -2.14300       -8.24710
C         -4.04270        1.08070       -3.51920
S         -3.44190       -0.42200       -2.88030
C         -5.60160        2.98500       -6.33570
C         -5.78940        4.33340       -6.37280
S         -5.46540        5.09750       -4.83060
C         -6.16300        5.13660       -7.49210
S         -7.31530        4.55880       -8.66530
C         -7.19620        5.99760       -9.60540
C         -6.30990        6.86440       -9.05410
C         -5.70500        6.39140       -7.84040
C         -4.72610        7.31420       -7.38940
C         -4.60910        8.43160       -8.20840
S         -5.71700        8.42920       -9.56530
C         -3.61510        9.32650       -7.81020
C         -2.92360        8.88130       -6.70280
S         -3.56580        7.36340       -6.11510
C         -1.89760        9.63700       -6.04840
C         -0.90740        9.27260       -5.20850
C         -0.42500        7.98220       -4.81050
C          0.30980        7.74680       -3.68260
C          0.73020        6.40420       -3.53220
C          1.47940        5.84910       -2.47830
C          2.06060        6.68430       -1.44400
S          1.87880        6.31150        0.24370
C          2.80180        7.68910        0.72870
C          3.09260        7.96470        2.16330
C          4.49370        7.47640        2.53990
C          3.23230        8.38240       -0.36400
Cl         4.18600        9.80670       -0.27590
C          2.81320        7.81810       -1.59660
Cl         3.30190        8.45990       -3.11240
C          1.60700        4.46650       -2.46500
C          1.08950        3.64280       -3.49320
C          0.45700        4.20850       -4.61820
C          0.00980        3.33870       -5.69290
S          1.07580        2.12720       -6.35420
C         -0.14020        1.51020       -7.41760
C          0.13250        0.37730       -8.34420
C          0.45060        0.87720       -9.75500
C         -1.29140        2.22460       -7.27720
C         -1.20970        3.25570       -6.30540
Cl        -2.56170        4.21270       -5.90440
Cl        -2.73080        1.91510       -8.15950
C          0.26590        5.58540       -4.59500
S         -0.57560        6.53600       -5.78400
C          1.19160        2.27070       -3.16430
C          1.78870        2.03970       -1.96190
S          2.31010        3.51680       -1.18290
C          1.92620        0.77670       -1.31880
C          2.62340        0.46200       -0.19450
C          2.48230       -0.89440        0.19840
C          3.08980       -1.55100        1.28690
C          4.11360       -0.86090        2.05490
S          5.37670       -0.01780        1.19500
C          6.09470        0.58010        2.64810
C          7.32710        1.41480        2.62370
C          8.58100        0.53720        2.63860
C          5.40190        0.12740        3.72990
Cl         5.77670        0.55260        5.35100
C          4.29280       -0.69860        3.40180
Cl         3.29040       -1.33650        4.63140
C          2.69800       -2.86660        1.51400
C          1.79450       -3.56020        0.66740
C          1.29500       -2.94510       -0.49270
C          0.58460       -3.66860       -1.53190
S         -0.74230       -2.94500       -2.39500
C         -0.86140       -4.26700       -3.50160
C         -1.86640       -4.25730       -4.60030
C         -3.29170       -4.10050       -4.07530
C          0.07620       -5.21050       -3.20640
C          0.90270       -4.87440       -2.10080
Cl         2.23700       -5.85460       -1.65090
Cl         0.29000       -6.66550       -4.09350
C          1.60970       -1.59970       -0.66130
S          1.05090       -0.59360       -1.96500
C          1.54400       -4.88080        1.14050
C          2.26550       -5.19260        2.23580
S          3.27810       -3.90490        2.78520
H          4.85300      -10.67270       10.13350
H          5.33720       -8.13590        9.81800
H          8.12960       -3.36460        8.00360
H          7.56880       -2.46590        9.42120
H          7.48480       -1.05820        7.36520
H          5.85490       -1.32300        7.99250
H          6.41790       -2.23790        6.59190
H         -1.70880      -13.11940        7.16380
H         -1.84930      -13.23750        5.39870
H         -3.37720      -11.26200        7.16670
H         -4.05130      -12.72240        6.43470
H         -3.51900      -11.38550        5.41040
H         -0.10060       -7.26060        5.24700
H          1.09770       -2.64060        4.98320
H          2.43500        3.46730        4.94460
H          3.60800        2.52690        4.02020
H          1.31950        4.14700        2.79600
H          2.49640        3.20470        1.88880
H          3.02060        4.61270        2.81290
H         -4.56290       -6.85050       -2.26960
H         -4.60630       -8.16770       -1.09390
H         -2.10600       -7.17290       -2.55950
H         -2.13970       -8.49760       -1.39400
H         -2.99380       -8.65410       -2.93090
H         -3.17920       -2.36350       -0.74090
H         -3.04490        2.33720       -0.55910
H         -3.70340        8.78640       -0.30160
H         -5.33060        8.57630       -0.97790
H         -5.97430        7.20460        1.00410
H         -5.43200        8.81430        1.49150
H         -4.35820        7.42470        1.68280
H         -2.65370       -3.17800       -7.54000
H         -4.24150       -3.71080       -8.12510
H         -2.59630       -1.45230       -9.36940
H         -2.73010       -3.09290      -10.01410
H         -4.15040       -2.04470       -9.95560
H         -5.74030        2.35930       -7.19820
H         -7.77640        6.10430      -10.49880
H         -3.38740       10.24370       -8.32180
H         -1.96690       10.69660       -6.26920
H         -0.33920       10.08040       -4.76090
H          0.49860        8.50840       -2.94790
H          3.02760        9.04050        2.33980
H          2.34770        7.46270        2.78230
H          4.58990        6.41060        2.34520
H          5.24450        8.00190        1.95600
H          4.68190        7.65880        3.59450
H          0.97230       -0.20450       -7.96220
H         -0.75100       -0.26490       -8.37440
H         -0.38450        1.44990      -10.14980
H          1.33190        1.51360       -9.74030
H          0.63950        0.03530      -10.41560
H          0.79410        1.47390       -3.76650
H          3.20120        1.19100        0.34200
H          7.32700        2.03460        1.72580
H          7.32740        2.06490        3.50090
H          8.59900       -0.07850        3.53420
H          8.59520       -0.11430        1.76820
H          9.47200        1.15890        2.62430
H         -1.77110       -5.18840       -5.16170
H         -1.64610       -3.42110       -5.27000
H         -3.39380       -3.15330       -3.55280
H         -3.53070       -4.90660       -3.38750
H         -3.99830       -4.11950       -4.90080
H          0.83360       -5.54650        0.68620
H          2.26760       -6.11520        2.78310
