
  xtb     03042207353D
 energy: -183.268479040330 gnorm: 0.000323584695 xtb: 6.4.1 (unknown)
120131  0     0  0            999 V2000
    9.5981    0.3307    0.2814 C   0  0  0  0  0  0  0  0  0  0  0  0
    8.0670    0.8409   -0.3092 S   0  0  0  0  0  0  0  0  0  0  0  0
    7.5918   -0.8115   -0.5901 C   0  0  0  0  0  0  0  0  0  0  0  0
    8.5886   -1.6809   -0.2305 C   0  0  0  0  0  0  0  0  0  0  0  0
    9.7403   -1.0213    0.2740 C   0  0  0  0  0  0  0  0  0  0  0  0
   10.9221   -1.7635    0.8138 C   0  0  0  0  0  0  0  0  0  0  0  0
   10.8932   -3.2346    0.4046 C   0  0  0  0  0  0  0  0  0  0  0  0
    9.5042   -3.8282    0.6520 C   0  0  0  0  0  0  0  0  0  0  0  0
    9.1797   -3.6322    2.0109 O   0  0  0  0  0  0  0  0  0  0  0  0
    8.4932   -3.1726   -0.2973 C   0  0  0  0  0  0  0  0  0  0  0  0
    6.2866   -1.1214   -1.1142 C   0  0  0  0  0  0  0  0  0  0  0  0
    4.8523   -0.4686   -0.3621 S   0  0  0  0  0  0  0  0  0  0  0  0
    3.8147   -1.2940   -1.5026 C   0  0  0  0  0  0  0  0  0  0  0  0
    4.5568   -2.0363   -2.3803 C   0  0  0  0  0  0  0  0  0  0  0  0
    5.9541   -1.9239   -2.1694 C   0  0  0  0  0  0  0  0  0  0  0  0
    6.8510   -2.5456   -3.1864 C   0  0  0  0  0  0  0  0  0  0  0  0
    6.2424   -2.2335   -4.5576 C   0  0  0  0  0  0  0  0  0  0  0  0
    4.8550   -2.8777   -4.7391 C   0  0  0  0  0  0  0  0  0  0  0  0
    4.9541   -4.1945   -5.2484 O   0  0  0  0  0  0  0  0  0  0  0  0
    4.0816   -3.0007   -3.4118 C   0  0  0  0  0  0  0  0  0  0  0  0
    2.3908   -1.1161   -1.4217 C   0  0  0  0  0  0  0  0  0  0  0  0
    1.5923   -1.2480    0.1159 S   0  0  0  0  0  0  0  0  0  0  0  0
    0.0382   -0.8797   -0.5910 C   0  0  0  0  0  0  0  0  0  0  0  0
    0.1706   -0.6655   -1.9511 C   0  0  0  0  0  0  0  0  0  0  0  0
    1.5000   -0.7851   -2.4122 C   0  0  0  0  0  0  0  0  0  0  0  0
    1.8634   -0.4634   -3.8240 C   0  0  0  0  0  0  0  0  0  0  0  0
    0.8941    0.5852   -4.3618 C   0  0  0  0  0  0  0  0  0  0  0  0
   -0.5230    0.0170   -4.3068 C   0  0  0  0  0  0  0  0  0  0  0  0
   -0.5369   -1.1467   -5.1101 O   0  0  0  0  0  0  0  0  0  0  0  0
   -0.9545   -0.2688   -2.8573 C   0  0  0  0  0  0  0  0  0  0  0  0
   -1.1360   -0.8364    0.2216 C   0  0  0  0  0  0  0  0  0  0  0  0
   -2.7196   -0.9444   -0.5059 S   0  0  0  0  0  0  0  0  0  0  0  0
   -3.5090   -0.8138    1.0388 C   0  0  0  0  0  0  0  0  0  0  0  0
   -2.5823   -0.6742    2.0502 C   0  0  0  0  0  0  0  0  0  0  0  0
   -1.2484   -0.7105    1.5955 C   0  0  0  0  0  0  0  0  0  0  0  0
   -0.0816   -0.5291    2.5168 C   0  0  0  0  0  0  0  0  0  0  0  0
   -0.4953   -0.3199    3.9759 C   0  0  0  0  0  0  0  0  0  0  0  0
   -1.7928    0.4834    4.0861 C   0  0  0  0  0  0  0  0  0  0  0  0
   -1.7202    1.7261    3.4174 O   0  0  0  0  0  0  0  0  0  0  0  0
   -2.9259   -0.3343    3.4659 C   0  0  0  0  0  0  0  0  0  0  0  0
   -4.9323   -0.7473    1.0841 C   0  0  0  0  0  0  0  0  0  0  0  0
   -5.7580    0.1625   -0.1362 S   0  0  0  0  0  0  0  0  0  0  0  0
   -7.3010   -0.0177    0.6299 C   0  0  0  0  0  0  0  0  0  0  0  0
   -7.1810   -0.8389    1.7609 C   0  0  0  0  0  0  0  0  0  0  0  0
   -5.8385   -1.2574    2.0146 C   0  0  0  0  0  0  0  0  0  0  0  0
   -5.5889   -2.1553    3.0717 C   0  0  0  0  0  0  0  0  0  0  0  0
   -6.5998   -2.5686    3.8939 C   0  0  0  0  0  0  0  0  0  0  0  0
   -6.3191   -3.5267    5.0109 C   0  0  0  0  0  0  0  0  0  0  0  0
   -7.9273   -2.0942    3.6861 C   0  0  0  0  0  0  0  0  0  0  0  0
   -9.0262   -2.5379    4.6022 C   0  0  0  0  0  0  0  0  0  0  0  0
   -8.1998   -1.2578    2.6378 C   0  0  0  0  0  0  0  0  0  0  0  0
   -8.4999    0.5394    0.1103 C   0  0  0  0  0  0  0  0  0  0  0  0
   -8.6528    1.5450   -0.7896 C   0  0  0  0  0  0  0  0  0  0  0  0
   -7.6541    2.4284   -1.2943 C   0  0  0  0  0  0  0  0  0  0  0  0
   -7.7501    2.9640   -2.9432 S   0  0  0  0  0  0  0  0  0  0  0  0
   -6.2592    3.8409   -2.8500 C   0  0  0  0  0  0  0  0  0  0  0  0
   -5.7261    3.7575   -1.5608 C   0  0  0  0  0  0  0  0  0  0  0  0
   -6.5419    2.9971   -0.6700 C   0  0  0  0  0  0  0  0  0  0  0  0
   -6.1801    2.9140    0.6904 C   0  0  0  0  0  0  0  0  0  0  0  0
   -5.0020    3.4453    1.1364 C   0  0  0  0  0  0  0  0  0  0  0  0
   -4.6141    3.3131    2.5745 C   0  0  0  0  0  0  0  0  0  0  0  0
   -4.1358    4.1161    0.2242 C   0  0  0  0  0  0  0  0  0  0  0  0
   -2.8193    4.6353    0.7124 C   0  0  0  0  0  0  0  0  0  0  0  0
   -4.5136    4.2936   -1.0782 C   0  0  0  0  0  0  0  0  0  0  0  0
   -5.7142    4.5194   -3.9821 C   0  0  0  0  0  0  0  0  0  0  0  0
   -6.2750    4.5747   -5.1919 C   0  0  0  0  0  0  0  0  0  0  0  0
   10.3035    1.0671    0.6119 H   0  0  0  0  0  0  0  0  0  0  0  0
   11.8508   -1.2950    0.4816 H   0  0  0  0  0  0  0  0  0  0  0  0
   10.8895   -1.7080    1.9052 H   0  0  0  0  0  0  0  0  0  0  0  0
   11.6310   -3.7863    0.9872 H   0  0  0  0  0  0  0  0  0  0  0  0
   11.1337   -3.3439   -0.6542 H   0  0  0  0  0  0  0  0  0  0  0  0
    9.5297   -4.9116    0.4359 H   0  0  0  0  0  0  0  0  0  0  0  0
    8.2496   -3.8427    2.1431 H   0  0  0  0  0  0  0  0  0  0  0  0
    7.4738   -3.4911   -0.0575 H   0  0  0  0  0  0  0  0  0  0  0  0
    8.7099   -3.5178   -1.3118 H   0  0  0  0  0  0  0  0  0  0  0  0
    7.8601   -2.1378   -3.1151 H   0  0  0  0  0  0  0  0  0  0  0  0
    6.8952   -3.6298   -3.0521 H   0  0  0  0  0  0  0  0  0  0  0  0
    6.1492   -1.1502   -4.6586 H   0  0  0  0  0  0  0  0  0  0  0  0
    6.9047   -2.5899   -5.3503 H   0  0  0  0  0  0  0  0  0  0  0  0
    4.2770   -2.2586   -5.4435 H   0  0  0  0  0  0  0  0  0  0  0  0
    5.3548   -4.1683   -6.1236 H   0  0  0  0  0  0  0  0  0  0  0  0
    3.0110   -2.9207   -3.5797 H   0  0  0  0  0  0  0  0  0  0  0  0
    4.2808   -4.0134   -3.0455 H   0  0  0  0  0  0  0  0  0  0  0  0
    2.8967   -0.1154   -3.8757 H   0  0  0  0  0  0  0  0  0  0  0  0
    1.7658   -1.3512   -4.4533 H   0  0  0  0  0  0  0  0  0  0  0  0
    0.9405    1.4967   -3.7644 H   0  0  0  0  0  0  0  0  0  0  0  0
    1.1429    0.8250   -5.3955 H   0  0  0  0  0  0  0  0  0  0  0  0
   -1.2268    0.7528   -4.7316 H   0  0  0  0  0  0  0  0  0  0  0  0
   -1.4134   -1.5430   -5.0702 H   0  0  0  0  0  0  0  0  0  0  0  0
   -1.4416    0.6206   -2.4461 H   0  0  0  0  0  0  0  0  0  0  0  0
   -1.7076   -1.0635   -2.8726 H   0  0  0  0  0  0  0  0  0  0  0  0
    0.5740   -1.4016    2.4597 H   0  0  0  0  0  0  0  0  0  0  0  0
    0.5011    0.3287    2.1667 H   0  0  0  0  0  0  0  0  0  0  0  0
   -0.6578   -1.2834    4.4614 H   0  0  0  0  0  0  0  0  0  0  0  0
    0.3121    0.1876    4.5096 H   0  0  0  0  0  0  0  0  0  0  0  0
   -2.0209    0.6571    5.1524 H   0  0  0  0  0  0  0  0  0  0  0  0
   -0.9182    2.1797    3.6982 H   0  0  0  0  0  0  0  0  0  0  0  0
   -3.0638   -1.2315    4.0732 H   0  0  0  0  0  0  0  0  0  0  0  0
   -3.8575    0.2335    3.4881 H   0  0  0  0  0  0  0  0  0  0  0  0
   -4.5893   -2.5395    3.2014 H   0  0  0  0  0  0  0  0  0  0  0  0
   -5.2713   -3.8166    5.0119 H   0  0  0  0  0  0  0  0  0  0  0  0
   -6.5533   -3.0737    5.9740 H   0  0  0  0  0  0  0  0  0  0  0  0
   -6.9263   -4.4256    4.9111 H   0  0  0  0  0  0  0  0  0  0  0  0
   -9.9681   -2.0709    4.3256 H   0  0  0  0  0  0  0  0  0  0  0  0
   -9.1513   -3.6196    4.5565 H   0  0  0  0  0  0  0  0  0  0  0  0
   -8.7986   -2.2741    5.6344 H   0  0  0  0  0  0  0  0  0  0  0  0
   -9.2123   -0.9211    2.4697 H   0  0  0  0  0  0  0  0  0  0  0  0
   -9.4042    0.0559    0.4593 H   0  0  0  0  0  0  0  0  0  0  0  0
   -9.6427    1.6873   -1.2067 H   0  0  0  0  0  0  0  0  0  0  0  0
   -6.8508    2.4241    1.3807 H   0  0  0  0  0  0  0  0  0  0  0  0
   -4.4535    4.2928    3.0236 H   0  0  0  0  0  0  0  0  0  0  0  0
   -5.3939    2.8002    3.1332 H   0  0  0  0  0  0  0  0  0  0  0  0
   -3.6866    2.7491    2.6719 H   0  0  0  0  0  0  0  0  0  0  0  0
   -2.9650    5.3931    1.4819 H   0  0  0  0  0  0  0  0  0  0  0  0
   -2.2368    3.8260    1.1511 H   0  0  0  0  0  0  0  0  0  0  0  0
   -2.2511    5.0759   -0.1033 H   0  0  0  0  0  0  0  0  0  0  0  0
   -3.8719    4.8402   -1.7540 H   0  0  0  0  0  0  0  0  0  0  0  0
   -4.7709    5.0198   -3.8058 H   0  0  0  0  0  0  0  0  0  0  0  0
   -5.8134    5.1066   -6.0044 H   0  0  0  0  0  0  0  0  0  0  0  0
   -7.2139    4.0883   -5.3984 H   0  0  0  0  0  0  0  0  0  0  0  0
  1  2  1  0  0  0  0
  2  3  1  0  0  0  0
  3  4  2  0  0  0  0
  4  5  1  0  0  0  0
  5  6  1  0  0  0  0
  6  7  1  0  0  0  0
  7  8  1  0  0  0  0
  8  9  1  0  0  0  0
  8 10  1  0  0  0  0
  3 11  1  0  0  0  0
 11 12  1  0  0  0  0
 12 13  1  0  0  0  0
 13 14  2  0  0  0  0
 14 15  1  0  0  0  0
 15 16  1  0  0  0  0
 16 17  1  0  0  0  0
 17 18  1  0  0  0  0
 18 19  1  0  0  0  0
 18 20  1  0  0  0  0
 13 21  1  0  0  0  0
 21 22  1  0  0  0  0
 22 23  1  0  0  0  0
 23 24  2  0  0  0  0
 24 25  1  0  0  0  0
 25 26  1  0  0  0  0
 26 27  1  0  0  0  0
 27 28  1  0  0  0  0
 28 29  1  0  0  0  0
 28 30  1  0  0  0  0
 23 31  1  0  0  0  0
 31 32  1  0  0  0  0
 32 33  1  0  0  0  0
 33 34  2  0  0  0  0
 34 35  1  0  0  0  0
 35 36  1  0  0  0  0
 36 37  1  0  0  0  0
 37 38  1  0  0  0  0
 38 39  1  0  0  0  0
 38 40  1  0  0  0  0
 33 41  1  0  0  0  0
 41 42  1  0  0  0  0
 42 43  1  0  0  0  0
 43 44  2  0  0  0  0
 44 45  1  0  0  0  0
 45 46  1  0  0  0  0
 46 47  2  0  0  0  0
 47 48  1  0  0  0  0
 47 49  1  0  0  0  0
 49 50  1  0  0  0  0
 49 51  2  0  0  0  0
 43 52  1  0  0  0  0
 52 53  2  0  0  0  0
 53 54  1  0  0  0  0
 54 55  1  0  0  0  0
 55 56  1  0  0  0  0
 56 57  2  0  0  0  0
 57 58  1  0  0  0  0
 58 59  1  0  0  0  0
 59 60  2  0  0  0  0
 60 61  1  0  0  0  0
 60 62  1  0  0  0  0
 62 63  1  0  0  0  0
 62 64  2  0  0  0  0
 56 65  1  0  0  0  0
 65 66  2  0  0  0  0
  5  1  2  0  0  0  0
 15 11  2  0  0  0  0
 25 21  2  0  0  0  0
 35 31  2  0  0  0  0
 45 41  2  0  0  0  0
 58 54  2  0  0  0  0
 10  4  1  0  0  0  0
 20 14  1  0  0  0  0
 30 24  1  0  0  0  0
 40 34  1  0  0  0  0
 51 44  1  0  0  0  0
 64 57  1  0  0  0  0
  1 67  1  0  0  0  0
  6 68  1  0  0  0  0
  6 69  1  0  0  0  0
  7 70  1  0  0  0  0
  7 71  1  0  0  0  0
  8 72  1  0  0  0  0
  9 73  1  0  0  0  0
 10 74  1  0  0  0  0
 10 75  1  0  0  0  0
 16 76  1  0  0  0  0
 16 77  1  0  0  0  0
 17 78  1  0  0  0  0
 17 79  1  0  0  0  0
 18 80  1  0  0  0  0
 19 81  1  0  0  0  0
 20 82  1  0  0  0  0
 20 83  1  0  0  0  0
 26 84  1  0  0  0  0
 26 85  1  0  0  0  0
 27 86  1  0  0  0  0
 27 87  1  0  0  0  0
 28 88  1  0  0  0  0
 29 89  1  0  0  0  0
 30 90  1  0  0  0  0
 30 91  1  0  0  0  0
 36 92  1  0  0  0  0
 36 93  1  0  0  0  0
 37 94  1  0  0  0  0
 37 95  1  0  0  0  0
 38 96  1  0  0  0  0
 39 97  1  0  0  0  0
 40 98  1  0  0  0  0
 40 99  1  0  0  0  0
 46100  1  0  0  0  0
 48101  1  0  0  0  0
 48102  1  0  0  0  0
 48103  1  0  0  0  0
 50104  1  0  0  0  0
 50105  1  0  0  0  0
 50106  1  0  0  0  0
 51107  1  0  0  0  0
 52108  1  0  0  0  0
 53109  1  0  0  0  0
 59110  1  0  0  0  0
 61111  1  0  0  0  0
 61112  1  0  0  0  0
 61113  1  0  0  0  0
 63114  1  0  0  0  0
 63115  1  0  0  0  0
 63116  1  0  0  0  0
 64117  1  0  0  0  0
 65118  1  0  0  0  0
 66119  1  0  0  0  0
 66120  1  0  0  0  0
M  END
