
  xtb     03042215183D
 energy: -155.290508045875 gnorm: 0.000327417483 xtb: 6.4.1 (unknown)
100107  0     0  0            999 V2000
    0.5732   -1.3140   -0.7447 C   0  0  0  0  0  0  0  0  0  0  0  0
   -0.3754   -0.1107    0.0130 S   0  0  0  0  0  0  0  0  0  0  0  0
    0.8857    0.3054    1.1345 C   0  0  0  0  0  0  0  0  0  0  0  0
    1.9854   -0.5434    0.9408 C   0  0  0  0  0  0  0  0  0  0  0  0
    1.8126   -1.4419   -0.1593 C   0  0  0  0  0  0  0  0  0  0  0  0
    2.8561   -2.3251   -0.5125 C   0  0  0  0  0  0  0  0  0  0  0  0
    4.0061   -2.3656    0.2199 C   0  0  0  0  0  0  0  0  0  0  0  0
    5.0994   -3.3216   -0.1437 C   0  0  0  0  0  0  0  0  0  0  0  0
    4.1672   -1.4983    1.3427 C   0  0  0  0  0  0  0  0  0  0  0  0
    5.4216   -1.5733    2.1577 C   0  0  0  0  0  0  0  0  0  0  0  0
    3.1870   -0.6028    1.6726 C   0  0  0  0  0  0  0  0  0  0  0  0
    0.7796    1.3029    2.1368 C   0  0  0  0  0  0  0  0  0  0  0  0
   -0.1052    2.3232    2.2943 C   0  0  0  0  0  0  0  0  0  0  0  0
   -1.1287    2.7746    1.4206 C   0  0  0  0  0  0  0  0  0  0  0  0
   -2.5895    3.3868    2.1340 S   0  0  0  0  0  0  0  0  0  0  0  0
   -3.4297    3.4418    0.6161 C   0  0  0  0  0  0  0  0  0  0  0  0
   -2.5281    3.1795   -0.4335 C   0  0  0  0  0  0  0  0  0  0  0  0
   -1.2278    2.8186    0.0249 C   0  0  0  0  0  0  0  0  0  0  0  0
   -0.2050    2.5927   -0.9161 C   0  0  0  0  0  0  0  0  0  0  0  0
   -0.4648    2.6451   -2.2602 C   0  0  0  0  0  0  0  0  0  0  0  0
    0.6254    2.3699   -3.2485 C   0  0  0  0  0  0  0  0  0  0  0  0
   -1.7741    2.9563   -2.7184 C   0  0  0  0  0  0  0  0  0  0  0  0
   -2.0459    3.0279   -4.1885 C   0  0  0  0  0  0  0  0  0  0  0  0
   -2.7724    3.2214   -1.8173 C   0  0  0  0  0  0  0  0  0  0  0  0
   -4.8007    3.7570    0.4772 C   0  0  0  0  0  0  0  0  0  0  0  0
   -5.8106    3.8166    1.3871 C   0  0  0  0  0  0  0  0  0  0  0  0
   -5.8808    3.4566    2.7667 C   0  0  0  0  0  0  0  0  0  0  0  0
   -7.0129    4.3673    3.7504 S   0  0  0  0  0  0  0  0  0  0  0  0
   -6.6051    3.4656    5.1521 C   0  0  0  0  0  0  0  0  0  0  0  0
   -5.6921    2.4997    4.8946 C   0  0  0  0  0  0  0  0  0  0  0  0
   -5.2832    2.4654    3.5343 C   0  0  0  0  0  0  0  0  0  0  0  0
   -4.4517    1.4885    3.0329 N   0  0  0  0  0  0  0  0  0  0  0  0
   -3.4504    0.8948    3.7492 C   0  0  0  0  0  0  0  0  0  0  0  0
   -2.5542    0.0237    3.2489 C   0  0  0  0  0  0  0  0  0  0  0  0
   -1.4288   -0.4400    3.9975 C   0  0  0  0  0  0  0  0  0  0  0  0
   -0.9575    0.3494    5.4809 S   0  0  0  0  0  0  0  0  0  0  0  0
    0.4249   -0.6603    5.6372 C   0  0  0  0  0  0  0  0  0  0  0  0
    0.5299   -1.5527    4.6245 C   0  0  0  0  0  0  0  0  0  0  0  0
   -0.5246   -1.4412    3.6799 C   0  0  0  0  0  0  0  0  0  0  0  0
   -0.6790   -2.2570    2.5824 N   0  0  0  0  0  0  0  0  0  0  0  0
    0.2073   -3.1763    2.1149 C   0  0  0  0  0  0  0  0  0  0  0  0
    0.0248   -3.8518    0.9640 C   0  0  0  0  0  0  0  0  0  0  0  0
    0.9676   -4.7693    0.4135 C   0  0  0  0  0  0  0  0  0  0  0  0
    2.3291   -5.3614    1.3202 S   0  0  0  0  0  0  0  0  0  0  0  0
    2.8981   -6.2640   -0.0329 C   0  0  0  0  0  0  0  0  0  0  0  0
    2.0914   -6.1339   -1.1135 C   0  0  0  0  0  0  0  0  0  0  0  0
    0.9883   -5.2780   -0.8722 C   0  0  0  0  0  0  0  0  0  0  0  0
    0.0123   -4.9790   -1.8271 N   0  0  0  0  0  0  0  0  0  0  0  0
    0.2704   -4.3821   -3.0411 C   0  0  0  0  0  0  0  0  0  0  0  0
    1.4802   -4.1780   -3.5904 C   0  0  0  0  0  0  0  0  0  0  0  0
    1.6987   -3.5500   -4.8647 C   0  0  0  0  0  0  0  0  0  0  0  0
    3.0709   -4.0282   -5.8300 S   0  0  0  0  0  0  0  0  0  0  0  0
    2.6289   -2.9383   -7.0825 C   0  0  0  0  0  0  0  0  0  0  0  0
    1.5143   -2.2302   -6.7790 C   0  0  0  0  0  0  0  0  0  0  0  0
    0.9757   -2.5639   -5.5078 C   0  0  0  0  0  0  0  0  0  0  0  0
   -0.0992   -1.9225   -4.9210 N   0  0  0  0  0  0  0  0  0  0  0  0
   -1.0671   -1.1935   -5.5549 C   0  0  0  0  0  0  0  0  0  0  0  0
   -2.0395   -0.5393   -4.9236 C   0  0  0  0  0  0  0  0  0  0  0  0
    0.1751   -1.8708   -1.5691 H   0  0  0  0  0  0  0  0  0  0  0  0
    2.7187   -2.9708   -1.3662 H   0  0  0  0  0  0  0  0  0  0  0  0
    5.2986   -4.0056    0.6806 H   0  0  0  0  0  0  0  0  0  0  0  0
    6.0228   -2.7877   -0.3656 H   0  0  0  0  0  0  0  0  0  0  0  0
    4.8191   -3.9064   -1.0162 H   0  0  0  0  0  0  0  0  0  0  0  0
    6.2963   -1.3687    1.5411 H   0  0  0  0  0  0  0  0  0  0  0  0
    5.5418   -2.5694    2.5829 H   0  0  0  0  0  0  0  0  0  0  0  0
    5.3957   -0.8513    2.9702 H   0  0  0  0  0  0  0  0  0  0  0  0
    3.3282    0.0589    2.5150 H   0  0  0  0  0  0  0  0  0  0  0  0
    1.5189    1.1976    2.9218 H   0  0  0  0  0  0  0  0  0  0  0  0
   -0.0822    2.8313    3.2516 H   0  0  0  0  0  0  0  0  0  0  0  0
    0.7985    2.4059   -0.5631 H   0  0  0  0  0  0  0  0  0  0  0  0
    0.7858    3.2286   -3.8994 H   0  0  0  0  0  0  0  0  0  0  0  0
    1.5575    2.1426   -2.7370 H   0  0  0  0  0  0  0  0  0  0  0  0
    0.3610    1.5210   -3.8794 H   0  0  0  0  0  0  0  0  0  0  0  0
   -3.0944    3.2460   -4.3760 H   0  0  0  0  0  0  0  0  0  0  0  0
   -1.4429    3.8094   -4.6506 H   0  0  0  0  0  0  0  0  0  0  0  0
   -1.7932    2.0845   -4.6709 H   0  0  0  0  0  0  0  0  0  0  0  0
   -3.7566    3.4863   -2.1754 H   0  0  0  0  0  0  0  0  0  0  0  0
   -5.0780    4.0211   -0.5364 H   0  0  0  0  0  0  0  0  0  0  0  0
   -6.7316    4.2601    1.0255 H   0  0  0  0  0  0  0  0  0  0  0  0
   -7.0777    3.6982    6.0852 H   0  0  0  0  0  0  0  0  0  0  0  0
   -5.3383    1.8081    5.6372 H   0  0  0  0  0  0  0  0  0  0  0  0
   -4.4383    1.3750    2.0290 H   0  0  0  0  0  0  0  0  0  0  0  0
   -3.3721    1.2108    4.7786 H   0  0  0  0  0  0  0  0  0  0  0  0
   -2.6362   -0.2993    2.2185 H   0  0  0  0  0  0  0  0  0  0  0  0
    1.0736   -0.5362    6.4808 H   0  0  0  0  0  0  0  0  0  0  0  0
    1.3288   -2.2673    4.5534 H   0  0  0  0  0  0  0  0  0  0  0  0
   -1.4832   -2.0689    2.0007 H   0  0  0  0  0  0  0  0  0  0  0  0
    1.0940   -3.3385    2.7061 H   0  0  0  0  0  0  0  0  0  0  0  0
   -0.8627   -3.6517    0.3764 H   0  0  0  0  0  0  0  0  0  0  0  0
    3.7903   -6.8486    0.0654 H   0  0  0  0  0  0  0  0  0  0  0  0
    2.2531   -6.6374   -2.0493 H   0  0  0  0  0  0  0  0  0  0  0  0
   -0.9060   -4.8030   -1.4477 H   0  0  0  0  0  0  0  0  0  0  0  0
   -0.6288   -4.1122   -3.5789 H   0  0  0  0  0  0  0  0  0  0  0  0
    2.3671   -4.5371   -3.0891 H   0  0  0  0  0  0  0  0  0  0  0  0
    3.2314   -2.8810   -7.9665 H   0  0  0  0  0  0  0  0  0  0  0  0
    1.0984   -1.4803   -7.4273 H   0  0  0  0  0  0  0  0  0  0  0  0
   -0.1558   -1.9830   -3.9146 H   0  0  0  0  0  0  0  0  0  0  0  0
   -1.0076   -1.2017   -6.6333 H   0  0  0  0  0  0  0  0  0  0  0  0
   -2.7984   -0.0146   -5.4714 H   0  0  0  0  0  0  0  0  0  0  0  0
   -2.1124   -0.5252   -3.8488 H   0  0  0  0  0  0  0  0  0  0  0  0
  1  2  1  0  0  0  0
  2  3  1  0  0  0  0
  3  4  2  0  0  0  0
  4  5  1  0  0  0  0
  5  6  1  0  0  0  0
  6  7  2  0  0  0  0
  7  8  1  0  0  0  0
  7  9  1  0  0  0  0
  9 10  1  0  0  0  0
  9 11  2  0  0  0  0
  3 12  1  0  0  0  0
 12 13  2  0  0  0  0
 13 14  1  0  0  0  0
 14 15  1  0  0  0  0
 15 16  1  0  0  0  0
 16 17  2  0  0  0  0
 17 18  1  0  0  0  0
 18 19  1  0  0  0  0
 19 20  2  0  0  0  0
 20 21  1  0  0  0  0
 20 22  1  0  0  0  0
 22 23  1  0  0  0  0
 22 24  2  0  0  0  0
 16 25  1  0  0  0  0
 25 26  2  0  0  0  0
 26 27  1  0  0  0  0
 27 28  1  0  0  0  0
 28 29  1  0  0  0  0
 29 30  2  0  0  0  0
 30 31  1  0  0  0  0
 31 32  1  0  0  0  0
 32 33  1  0  0  0  0
 33 34  2  0  0  0  0
 34 35  1  0  0  0  0
 35 36  1  0  0  0  0
 36 37  1  0  0  0  0
 37 38  2  0  0  0  0
 38 39  1  0  0  0  0
 39 40  1  0  0  0  0
 40 41  1  0  0  0  0
 41 42  2  0  0  0  0
 42 43  1  0  0  0  0
 43 44  1  0  0  0  0
 44 45  1  0  0  0  0
 45 46  2  0  0  0  0
 46 47  1  0  0  0  0
 47 48  1  0  0  0  0
 48 49  1  0  0  0  0
 49 50  2  0  0  0  0
 50 51  1  0  0  0  0
 51 52  1  0  0  0  0
 52 53  1  0  0  0  0
 53 54  2  0  0  0  0
 54 55  1  0  0  0  0
 55 56  1  0  0  0  0
 56 57  1  0  0  0  0
 57 58  2  0  0  0  0
  5  1  2  0  0  0  0
 18 14  2  0  0  0  0
 31 27  2  0  0  0  0
 39 35  2  0  0  0  0
 47 43  2  0  0  0  0
 55 51  2  0  0  0  0
 11  4  1  0  0  0  0
 24 17  1  0  0  0  0
  1 59  1  0  0  0  0
  6 60  1  0  0  0  0
  8 61  1  0  0  0  0
  8 62  1  0  0  0  0
  8 63  1  0  0  0  0
 10 64  1  0  0  0  0
 10 65  1  0  0  0  0
 10 66  1  0  0  0  0
 11 67  1  0  0  0  0
 12 68  1  0  0  0  0
 13 69  1  0  0  0  0
 19 70  1  0  0  0  0
 21 71  1  0  0  0  0
 21 72  1  0  0  0  0
 21 73  1  0  0  0  0
 23 74  1  0  0  0  0
 23 75  1  0  0  0  0
 23 76  1  0  0  0  0
 24 77  1  0  0  0  0
 25 78  1  0  0  0  0
 26 79  1  0  0  0  0
 29 80  1  0  0  0  0
 30 81  1  0  0  0  0
 32 82  1  0  0  0  0
 33 83  1  0  0  0  0
 34 84  1  0  0  0  0
 37 85  1  0  0  0  0
 38 86  1  0  0  0  0
 40 87  1  0  0  0  0
 41 88  1  0  0  0  0
 42 89  1  0  0  0  0
 45 90  1  0  0  0  0
 46 91  1  0  0  0  0
 48 92  1  0  0  0  0
 49 93  1  0  0  0  0
 50 94  1  0  0  0  0
 53 95  1  0  0  0  0
 54 96  1  0  0  0  0
 56 97  1  0  0  0  0
 57 98  1  0  0  0  0
 58 99  1  0  0  0  0
 58100  1  0  0  0  0
M  END
