
  xtb     03042207053D
 energy: -181.743208622426 gnorm: 0.000338897634 xtb: 6.4.1 (unknown)
116127  0     0  0            999 V2000
    2.0148   -3.2350    2.7553 C   0  0  0  0  0  0  0  0  0  0  0  0
    2.2074   -3.2018    1.3610 C   0  0  0  0  0  0  0  0  0  0  0  0
    1.7291   -2.0150    0.8051 C   0  0  0  0  0  0  0  0  0  0  0  0
    1.2074   -1.2441    1.8917 C   0  0  0  0  0  0  0  0  0  0  0  0
    1.4151   -2.0555    3.1016 C   0  0  0  0  0  0  0  0  0  0  0  0
    1.0149   -1.5345    4.2946 N   0  0  0  0  0  0  0  0  0  0  0  0
    0.4567   -0.3173    4.3368 C   0  0  0  0  0  0  0  0  0  0  0  0
    0.2559    0.4322    3.2893 N   0  0  0  0  0  0  0  0  0  0  0  0
    0.6112   -0.0281    2.0678 C   0  0  0  0  0  0  0  0  0  0  0  0
    1.8014   -1.7315   -0.5881 C   0  0  0  0  0  0  0  0  0  0  0  0
    1.3287   -0.6519   -1.2567 C   0  0  0  0  0  0  0  0  0  0  0  0
    1.4424   -0.4786   -2.6576 C   0  0  0  0  0  0  0  0  0  0  0  0
    2.2895   -1.6230   -3.6513 S   0  0  0  0  0  0  0  0  0  0  0  0
    1.8756   -0.8121   -5.1315 C   0  0  0  0  0  0  0  0  0  0  0  0
    1.1497    0.3534   -4.8467 C   0  0  0  0  0  0  0  0  0  0  0  0
    0.9015    0.5411   -3.4525 C   0  0  0  0  0  0  0  0  0  0  0  0
    0.1754    1.6705   -3.0293 C   0  0  0  0  0  0  0  0  0  0  0  0
   -0.2898    2.5869   -3.9323 C   0  0  0  0  0  0  0  0  0  0  0  0
   -1.0381    3.7965   -3.4622 C   0  0  0  0  0  0  0  0  0  0  0  0
   -0.0611    2.3911   -5.3244 C   0  0  0  0  0  0  0  0  0  0  0  0
   -0.5878    3.3899   -6.3092 C   0  0  0  0  0  0  0  0  0  0  0  0
    0.6376    1.2980   -5.7587 C   0  0  0  0  0  0  0  0  0  0  0  0
    2.3147   -1.2351   -6.4206 C   0  0  0  0  0  0  0  0  0  0  0  0
    2.8046   -2.4334   -6.8121 C   0  0  0  0  0  0  0  0  0  0  0  0
    2.8450   -3.6330   -6.0123 C   0  0  0  0  0  0  0  0  0  0  0  0
    1.8678   -4.0249   -5.0533 C   0  0  0  0  0  0  0  0  0  0  0  0
    2.2728   -5.1350   -4.3287 C   0  0  0  0  0  0  0  0  0  0  0  0
    3.5188   -5.5516   -4.8919 C   0  0  0  0  0  0  0  0  0  0  0  0
    3.8382   -4.5880   -5.9505 C   0  0  0  0  0  0  0  0  0  0  0  0
    5.0111   -4.7637   -6.6223 N   0  0  0  0  0  0  0  0  0  0  0  0
    5.7960   -5.8169   -6.3247 C   0  0  0  0  0  0  0  0  0  0  0  0
    5.5409   -6.6922   -5.4013 N   0  0  0  0  0  0  0  0  0  0  0  0
    4.4136   -6.5585   -4.6682 C   0  0  0  0  0  0  0  0  0  0  0  0
    1.6870   -5.6253   -3.1136 C   0  0  0  0  0  0  0  0  0  0  0  0
    0.7382   -4.9200   -2.4666 C   0  0  0  0  0  0  0  0  0  0  0  0
    0.2266   -5.0494   -1.1381 C   0  0  0  0  0  0  0  0  0  0  0  0
   -0.5591   -4.0158   -0.5553 C   0  0  0  0  0  0  0  0  0  0  0  0
   -0.7939   -4.2369    0.7937 C   0  0  0  0  0  0  0  0  0  0  0  0
   -0.1693   -5.4849    1.1085 C   0  0  0  0  0  0  0  0  0  0  0  0
    0.4609   -5.9636   -0.1234 C   0  0  0  0  0  0  0  0  0  0  0  0
    1.1350   -7.1438   -0.0572 N   0  0  0  0  0  0  0  0  0  0  0  0
    1.2039   -7.8084    1.1110 C   0  0  0  0  0  0  0  0  0  0  0  0
    0.6645   -7.4094    2.2232 N   0  0  0  0  0  0  0  0  0  0  0  0
   -0.0245   -6.2486    2.2319 C   0  0  0  0  0  0  0  0  0  0  0  0
   -1.4107   -3.3496    1.7194 C   0  0  0  0  0  0  0  0  0  0  0  0
   -1.8829   -2.1258    1.3768 C   0  0  0  0  0  0  0  0  0  0  0  0
   -2.3667   -1.1443    2.2645 C   0  0  0  0  0  0  0  0  0  0  0  0
   -2.3807   -1.3753    3.9870 S   0  0  0  0  0  0  0  0  0  0  0  0
   -2.8793    0.2697    4.3033 C   0  0  0  0  0  0  0  0  0  0  0  0
   -3.1782    0.9127    3.1001 C   0  0  0  0  0  0  0  0  0  0  0  0
   -2.8257    0.1419    1.9508 C   0  0  0  0  0  0  0  0  0  0  0  0
   -2.9554    0.7262    0.6755 C   0  0  0  0  0  0  0  0  0  0  0  0
   -3.4726    1.9843    0.5287 C   0  0  0  0  0  0  0  0  0  0  0  0
   -3.5711    2.6084   -0.8287 C   0  0  0  0  0  0  0  0  0  0  0  0
   -3.9564    2.6935    1.6671 C   0  0  0  0  0  0  0  0  0  0  0  0
   -4.6025    4.0330    1.4944 C   0  0  0  0  0  0  0  0  0  0  0  0
   -3.8231    2.1548    2.9156 C   0  0  0  0  0  0  0  0  0  0  0  0
   -2.8754    0.7154    5.6537 C   0  0  0  0  0  0  0  0  0  0  0  0
   -2.7329    1.9660    6.1550 C   0  0  0  0  0  0  0  0  0  0  0  0
   -2.4873    3.2240    5.5071 C   0  0  0  0  0  0  0  0  0  0  0  0
   -3.0066    4.4446    6.0339 C   0  0  0  0  0  0  0  0  0  0  0  0
   -2.7395    5.5184    5.2053 C   0  0  0  0  0  0  0  0  0  0  0  0
   -1.9856    5.0016    4.1096 C   0  0  0  0  0  0  0  0  0  0  0  0
   -1.8198    3.5666    4.3354 C   0  0  0  0  0  0  0  0  0  0  0  0
   -1.0442    2.8917    3.4490 N   0  0  0  0  0  0  0  0  0  0  0  0
   -0.5633    3.5319    2.3761 C   0  0  0  0  0  0  0  0  0  0  0  0
   -0.7513    4.7905    2.0945 N   0  0  0  0  0  0  0  0  0  0  0  0
   -1.4482    5.5361    2.9689 C   0  0  0  0  0  0  0  0  0  0  0  0
   -3.1229    6.8987    5.3573 C   0  0  0  0  0  0  0  0  0  0  0  0
   -3.8113    7.4085    6.3758 C   0  0  0  0  0  0  0  0  0  0  0  0
    2.2874   -4.0399    3.4117 H   0  0  0  0  0  0  0  0  0  0  0  0
    2.6661   -3.9917    0.7931 H   0  0  0  0  0  0  0  0  0  0  0  0
    1.1210   -2.0847    5.1376 H   0  0  0  0  0  0  0  0  0  0  0  0
    0.1560    0.0677    5.3007 H   0  0  0  0  0  0  0  0  0  0  0  0
    0.3838    0.6472    1.2570 H   0  0  0  0  0  0  0  0  0  0  0  0
    2.2944   -2.5015   -1.1716 H   0  0  0  0  0  0  0  0  0  0  0  0
    0.8066    0.1312   -0.7281 H   0  0  0  0  0  0  0  0  0  0  0  0
   -0.0050    1.8187   -1.9743 H   0  0  0  0  0  0  0  0  0  0  0  0
   -0.5709    4.7075   -3.8336 H   0  0  0  0  0  0  0  0  0  0  0  0
   -1.0539    3.8368   -2.3762 H   0  0  0  0  0  0  0  0  0  0  0  0
   -2.0663    3.7795   -3.8242 H   0  0  0  0  0  0  0  0  0  0  0  0
   -0.3640    3.0803   -7.3272 H   0  0  0  0  0  0  0  0  0  0  0  0
   -0.1396    4.3689   -6.1405 H   0  0  0  0  0  0  0  0  0  0  0  0
   -1.6672    3.4980   -6.2091 H   0  0  0  0  0  0  0  0  0  0  0  0
    0.8037    1.1555   -6.8166 H   0  0  0  0  0  0  0  0  0  0  0  0
    2.2717   -0.4543   -7.1710 H   0  0  0  0  0  0  0  0  0  0  0  0
    3.2083   -2.5074   -7.8164 H   0  0  0  0  0  0  0  0  0  0  0  0
    0.9199   -3.5306   -4.9593 H   0  0  0  0  0  0  0  0  0  0  0  0
    5.2721   -4.1034   -7.3439 H   0  0  0  0  0  0  0  0  0  0  0  0
    6.7044   -5.9352   -6.8979 H   0  0  0  0  0  0  0  0  0  0  0  0
    4.2805   -7.3124   -3.9042 H   0  0  0  0  0  0  0  0  0  0  0  0
    2.1364   -6.5129   -2.6855 H   0  0  0  0  0  0  0  0  0  0  0  0
    0.3639   -4.0360   -2.9638 H   0  0  0  0  0  0  0  0  0  0  0  0
   -0.8856   -3.1584   -1.1138 H   0  0  0  0  0  0  0  0  0  0  0  0
    1.5764   -7.5065   -0.8933 H   0  0  0  0  0  0  0  0  0  0  0  0
    1.7503   -8.7407    1.1194 H   0  0  0  0  0  0  0  0  0  0  0  0
   -0.4473   -5.9760    3.1889 H   0  0  0  0  0  0  0  0  0  0  0  0
   -1.4499   -3.6605    2.7558 H   0  0  0  0  0  0  0  0  0  0  0  0
   -1.8569   -1.8304    0.3384 H   0  0  0  0  0  0  0  0  0  0  0  0
   -2.6460    0.1674   -0.1960 H   0  0  0  0  0  0  0  0  0  0  0  0
   -3.1182    1.9677   -1.5818 H   0  0  0  0  0  0  0  0  0  0  0  0
   -3.0665    3.5738   -0.8396 H   0  0  0  0  0  0  0  0  0  0  0  0
   -4.6131    2.7774   -1.1004 H   0  0  0  0  0  0  0  0  0  0  0  0
   -3.8941    4.7428    1.0669 H   0  0  0  0  0  0  0  0  0  0  0  0
   -4.9365    4.4206    2.4538 H   0  0  0  0  0  0  0  0  0  0  0  0
   -5.4591    3.9706    0.8241 H   0  0  0  0  0  0  0  0  0  0  0  0
   -4.2258    2.6682    3.7736 H   0  0  0  0  0  0  0  0  0  0  0  0
   -2.9676   -0.0880    6.3771 H   0  0  0  0  0  0  0  0  0  0  0  0
   -2.8681    2.0605    7.2273 H   0  0  0  0  0  0  0  0  0  0  0  0
   -3.5695    4.4900    6.9490 H   0  0  0  0  0  0  0  0  0  0  0  0
   -0.7897    1.8993    3.5631 H   0  0  0  0  0  0  0  0  0  0  0  0
    0.0393    2.9522    1.6934 H   0  0  0  0  0  0  0  0  0  0  0  0
   -1.5477    6.5805    2.7045 H   0  0  0  0  0  0  0  0  0  0  0  0
   -2.8061    7.5525    4.5540 H   0  0  0  0  0  0  0  0  0  0  0  0
   -4.0604    8.4547    6.4207 H   0  0  0  0  0  0  0  0  0  0  0  0
   -4.1479    6.8021    7.1988 H   0  0  0  0  0  0  0  0  0  0  0  0
  1  2  1  0  0  0  0
  2  3  2  0  0  0  0
  3  4  1  0  0  0  0
  4  5  1  0  0  0  0
  5  6  1  0  0  0  0
  6  7  1  0  0  0  0
  7  8  2  0  0  0  0
  8  9  1  0  0  0  0
  3 10  1  0  0  0  0
 10 11  2  0  0  0  0
 11 12  1  0  0  0  0
 12 13  1  0  0  0  0
 13 14  1  0  0  0  0
 14 15  2  0  0  0  0
 15 16  1  0  0  0  0
 16 17  1  0  0  0  0
 17 18  2  0  0  0  0
 18 19  1  0  0  0  0
 18 20  1  0  0  0  0
 20 21  1  0  0  0  0
 20 22  2  0  0  0  0
 14 23  1  0  0  0  0
 23 24  2  0  0  0  0
 24 25  1  0  0  0  0
 25 26  1  0  0  0  0
 26 27  2  0  0  0  0
 27 28  1  0  0  0  0
 28 29  1  0  0  0  0
 29 30  1  0  0  0  0
 30 31  1  0  0  0  0
 31 32  2  0  0  0  0
 32 33  1  0  0  0  0
 27 34  1  0  0  0  0
 34 35  2  0  0  0  0
 35 36  1  0  0  0  0
 36 37  1  0  0  0  0
 37 38  2  0  0  0  0
 38 39  1  0  0  0  0
 39 40  1  0  0  0  0
 40 41  1  0  0  0  0
 41 42  1  0  0  0  0
 42 43  2  0  0  0  0
 43 44  1  0  0  0  0
 38 45  1  0  0  0  0
 45 46  2  0  0  0  0
 46 47  1  0  0  0  0
 47 48  1  0  0  0  0
 48 49  1  0  0  0  0
 49 50  2  0  0  0  0
 50 51  1  0  0  0  0
 51 52  1  0  0  0  0
 52 53  2  0  0  0  0
 53 54  1  0  0  0  0
 53 55  1  0  0  0  0
 55 56  1  0  0  0  0
 55 57  2  0  0  0  0
 49 58  1  0  0  0  0
 58 59  2  0  0  0  0
 59 60  1  0  0  0  0
 60 61  1  0  0  0  0
 61 62  2  0  0  0  0
 62 63  1  0  0  0  0
 63 64  1  0  0  0  0
 64 65  1  0  0  0  0
 65 66  1  0  0  0  0
 66 67  2  0  0  0  0
 67 68  1  0  0  0  0
 62 69  1  0  0  0  0
 69 70  2  0  0  0  0
  5  1  2  0  0  0  0
 16 12  2  0  0  0  0
 29 25  2  0  0  0  0
 40 36  2  0  0  0  0
 51 47  2  0  0  0  0
 64 60  2  0  0  0  0
  9  4  2  0  0  0  0
 22 15  1  0  0  0  0
 33 28  2  0  0  0  0
 44 39  2  0  0  0  0
 57 50  1  0  0  0  0
 68 63  2  0  0  0  0
  1 71  1  0  0  0  0
  2 72  1  0  0  0  0
  6 73  1  0  0  0  0
  7 74  1  0  0  0  0
  9 75  1  0  0  0  0
 10 76  1  0  0  0  0
 11 77  1  0  0  0  0
 17 78  1  0  0  0  0
 19 79  1  0  0  0  0
 19 80  1  0  0  0  0
 19 81  1  0  0  0  0
 21 82  1  0  0  0  0
 21 83  1  0  0  0  0
 21 84  1  0  0  0  0
 22 85  1  0  0  0  0
 23 86  1  0  0  0  0
 24 87  1  0  0  0  0
 26 88  1  0  0  0  0
 30 89  1  0  0  0  0
 31 90  1  0  0  0  0
 33 91  1  0  0  0  0
 34 92  1  0  0  0  0
 35 93  1  0  0  0  0
 37 94  1  0  0  0  0
 41 95  1  0  0  0  0
 42 96  1  0  0  0  0
 44 97  1  0  0  0  0
 45 98  1  0  0  0  0
 46 99  1  0  0  0  0
 52100  1  0  0  0  0
 54101  1  0  0  0  0
 54102  1  0  0  0  0
 54103  1  0  0  0  0
 56104  1  0  0  0  0
 56105  1  0  0  0  0
 56106  1  0  0  0  0
 57107  1  0  0  0  0
 58108  1  0  0  0  0
 59109  1  0  0  0  0
 61110  1  0  0  0  0
 65111  1  0  0  0  0
 66112  1  0  0  0  0
 68113  1  0  0  0  0
 69114  1  0  0  0  0
 70115  1  0  0  0  0
 70116  1  0  0  0  0
M  END
