
  xtb     03042221523D
 energy: -244.844858917148 gnorm: 0.000305203988 xtb: 6.4.1 (unknown)
152163  0     0  0            999 V2000
    0.2108   -4.3732    3.4265 C   0  0  0  0  0  0  0  0  0  0  0  0
   -0.4900   -5.4799    2.9387 C   0  0  0  0  0  0  0  0  0  0  0  0
   -0.0480   -6.6742    2.5164 N   0  0  0  0  0  0  0  0  0  0  0  0
   -1.1366   -7.3005    2.1453 N   0  0  0  0  0  0  0  0  0  0  0  0
   -1.0946   -8.6290    1.6020 C   0  0  0  0  0  0  0  0  0  0  0  0
   -2.0289   -9.5524    2.3729 C   0  0  0  0  0  0  0  0  0  0  0  0
   -2.2614   -6.6528    2.2803 N   0  0  0  0  0  0  0  0  0  0  0  0
   -1.9091   -5.4682    2.7979 C   0  0  0  0  0  0  0  0  0  0  0  0
   -2.6663   -4.3111    3.1012 C   0  0  0  0  0  0  0  0  0  0  0  0
   -1.9262   -3.1831    3.4714 C   0  0  0  0  0  0  0  0  0  0  0  0
   -0.5165   -3.2360    3.6913 C   0  0  0  0  0  0  0  0  0  0  0  0
    0.0369   -2.0888    4.1914 O   0  0  0  0  0  0  0  0  0  0  0  0
    1.4019   -2.0894    4.5207 C   0  0  0  0  0  0  0  0  0  0  0  0
   -2.6442   -2.0441    3.6990 O   0  0  0  0  0  0  0  0  0  0  0  0
   -2.1616   -0.8051    3.2088 C   0  0  0  0  0  0  0  0  0  0  0  0
   -4.0955   -4.2484    2.9692 C   0  0  0  0  0  0  0  0  0  0  0  0
   -4.8391   -2.7312    2.6137 S   0  0  0  0  0  0  0  0  0  0  0  0
   -6.4201   -3.4097    2.4387 C   0  0  0  0  0  0  0  0  0  0  0  0
   -6.3754   -4.7903    2.7349 C   0  0  0  0  0  0  0  0  0  0  0  0
   -5.0634   -5.2591    3.0467 C   0  0  0  0  0  0  0  0  0  0  0  0
   -4.9033   -6.5933    3.4673 C   0  0  0  0  0  0  0  0  0  0  0  0
   -5.9684   -7.4509    3.5206 C   0  0  0  0  0  0  0  0  0  0  0  0
   -5.7771   -8.8616    3.9906 C   0  0  0  0  0  0  0  0  0  0  0  0
   -7.2619   -7.0035    3.1397 C   0  0  0  0  0  0  0  0  0  0  0  0
   -8.4211   -7.9524    3.1707 C   0  0  0  0  0  0  0  0  0  0  0  0
   -7.4471   -5.6985    2.7660 C   0  0  0  0  0  0  0  0  0  0  0  0
   -7.6066   -2.6852    2.1956 C   0  0  0  0  0  0  0  0  0  0  0  0
   -7.8715   -1.3811    1.8767 C   0  0  0  0  0  0  0  0  0  0  0  0
   -7.0609   -0.2961    1.4848 C   0  0  0  0  0  0  0  0  0  0  0  0
   -5.4335   -0.4329    0.9147 S   0  0  0  0  0  0  0  0  0  0  0  0
   -5.2777    1.2658    0.5957 C   0  0  0  0  0  0  0  0  0  0  0  0
   -6.4767    1.9268    0.9031 C   0  0  0  0  0  0  0  0  0  0  0  0
   -7.4848    1.0488    1.3967 C   0  0  0  0  0  0  0  0  0  0  0  0
   -8.7294    1.5878    1.7643 C   0  0  0  0  0  0  0  0  0  0  0  0
   -8.9799    2.9305    1.6485 C   0  0  0  0  0  0  0  0  0  0  0  0
  -10.3137    3.4840    2.0476 C   0  0  0  0  0  0  0  0  0  0  0  0
   -7.9723    3.8039    1.1551 C   0  0  0  0  0  0  0  0  0  0  0  0
   -8.2505    5.2712    1.0363 C   0  0  0  0  0  0  0  0  0  0  0  0
   -6.7506    3.3016    0.7934 C   0  0  0  0  0  0  0  0  0  0  0  0
   -4.0486    1.8045    0.1531 C   0  0  0  0  0  0  0  0  0  0  0  0
   -2.9441    1.0369   -0.0111 C   0  0  0  0  0  0  0  0  0  0  0  0
   -1.6210    1.4305   -0.3875 C   0  0  0  0  0  0  0  0  0  0  0  0
   -0.5970    0.4617   -0.2561 C   0  0  0  0  0  0  0  0  0  0  0  0
   -0.6597   -0.8105    0.1600 N   0  0  0  0  0  0  0  0  0  0  0  0
    0.5638   -1.2503    0.0349 N   0  0  0  0  0  0  0  0  0  0  0  0
    0.9282   -2.5924    0.3933 C   0  0  0  0  0  0  0  0  0  0  0  0
   -0.0832   -3.5961   -0.1404 C   0  0  0  0  0  0  0  0  0  0  0  0
    1.4512   -0.3991   -0.4141 N   0  0  0  0  0  0  0  0  0  0  0  0
    0.7506    0.7299   -0.6120 C   0  0  0  0  0  0  0  0  0  0  0  0
    1.1523    1.9928   -1.0867 C   0  0  0  0  0  0  0  0  0  0  0  0
    0.1614    2.9530   -1.1844 C   0  0  0  0  0  0  0  0  0  0  0  0
   -1.2064    2.6675   -0.8715 C   0  0  0  0  0  0  0  0  0  0  0  0
   -2.1357    3.6753   -1.0052 O   0  0  0  0  0  0  0  0  0  0  0  0
   -2.3941    4.0930   -2.3319 C   0  0  0  0  0  0  0  0  0  0  0  0
    0.3693    4.2521   -1.5596 O   0  0  0  0  0  0  0  0  0  0  0  0
    1.6018    4.8710   -1.2720 C   0  0  0  0  0  0  0  0  0  0  0  0
    2.5623    2.1668   -1.4762 C   0  0  0  0  0  0  0  0  0  0  0  0
    2.9315    2.3019   -2.8252 C   0  0  0  0  0  0  0  0  0  0  0  0
    2.2018    2.3331   -3.9496 N   0  0  0  0  0  0  0  0  0  0  0  0
    3.0892    2.4405   -4.9009 N   0  0  0  0  0  0  0  0  0  0  0  0
    2.7075    2.4647   -6.2836 C   0  0  0  0  0  0  0  0  0  0  0  0
    2.9373    1.1001   -6.9259 C   0  0  0  0  0  0  0  0  0  0  0  0
    4.3461    2.4840   -4.5371 N   0  0  0  0  0  0  0  0  0  0  0  0
    4.3021    2.4025   -3.1981 C   0  0  0  0  0  0  0  0  0  0  0  0
    5.3392    2.4043   -2.2453 C   0  0  0  0  0  0  0  0  0  0  0  0
    4.9609    2.3055   -0.9217 C   0  0  0  0  0  0  0  0  0  0  0  0
    3.5820    2.1514   -0.5512 C   0  0  0  0  0  0  0  0  0  0  0  0
    3.2315    2.1141    0.7786 O   0  0  0  0  0  0  0  0  0  0  0  0
    3.6764    0.9812    1.5013 C   0  0  0  0  0  0  0  0  0  0  0  0
    5.8016    2.3841    0.1510 O   0  0  0  0  0  0  0  0  0  0  0  0
    7.0199    3.0801    0.0380 C   0  0  0  0  0  0  0  0  0  0  0  0
    6.7208    2.4662   -2.7581 C   0  0  0  0  0  0  0  0  0  0  0  0
    7.5710    1.3494   -2.6852 C   0  0  0  0  0  0  0  0  0  0  0  0
    7.4055    0.1342   -2.1411 N   0  0  0  0  0  0  0  0  0  0  0  0
    8.5302   -0.4798   -2.3891 N   0  0  0  0  0  0  0  0  0  0  0  0
    8.7393   -1.8446   -1.9992 C   0  0  0  0  0  0  0  0  0  0  0  0
    8.4532   -2.7834   -3.1675 C   0  0  0  0  0  0  0  0  0  0  0  0
    9.4420    0.1909   -3.0459 N   0  0  0  0  0  0  0  0  0  0  0  0
    8.8725    1.3857   -3.2652 C   0  0  0  0  0  0  0  0  0  0  0  0
    9.3507    2.5336   -3.9062 C   0  0  0  0  0  0  0  0  0  0  0  0
    8.5202    3.6261   -3.9616 C   0  0  0  0  0  0  0  0  0  0  0  0
    7.1994    3.5872   -3.4024 C   0  0  0  0  0  0  0  0  0  0  0  0
    6.4030    4.7078   -3.3814 O   0  0  0  0  0  0  0  0  0  0  0  0
    6.0285    5.2448   -4.6359 C   0  0  0  0  0  0  0  0  0  0  0  0
    8.8763    4.8215   -4.5166 O   0  0  0  0  0  0  0  0  0  0  0  0
   10.1766    4.9582   -5.0324 C   0  0  0  0  0  0  0  0  0  0  0  0
    1.2745   -4.4406    3.5743 H   0  0  0  0  0  0  0  0  0  0  0  0
   -0.0561   -8.9587    1.6651 H   0  0  0  0  0  0  0  0  0  0  0  0
   -1.3992   -8.5869    0.5512 H   0  0  0  0  0  0  0  0  0  0  0  0
   -3.0416   -9.1607    2.3287 H   0  0  0  0  0  0  0  0  0  0  0  0
   -1.7218   -9.6214    3.4139 H   0  0  0  0  0  0  0  0  0  0  0  0
   -2.0118  -10.5471    1.9367 H   0  0  0  0  0  0  0  0  0  0  0  0
    2.0362   -2.2203    3.6368 H   0  0  0  0  0  0  0  0  0  0  0  0
    1.5976   -1.1106    4.9562 H   0  0  0  0  0  0  0  0  0  0  0  0
    1.6379   -2.8670    5.2540 H   0  0  0  0  0  0  0  0  0  0  0  0
   -1.4697   -0.3417    3.9139 H   0  0  0  0  0  0  0  0  0  0  0  0
   -1.6756   -0.9196    2.2370 H   0  0  0  0  0  0  0  0  0  0  0  0
   -3.0442   -0.1758    3.0961 H   0  0  0  0  0  0  0  0  0  0  0  0
   -3.9257   -6.9331    3.7633 H   0  0  0  0  0  0  0  0  0  0  0  0
   -4.7474   -9.0253    4.2980 H   0  0  0  0  0  0  0  0  0  0  0  0
   -6.4284   -9.0783    4.8367 H   0  0  0  0  0  0  0  0  0  0  0  0
   -6.0190   -9.5690    3.1974 H   0  0  0  0  0  0  0  0  0  0  0  0
   -9.3280   -7.4620    2.8256 H   0  0  0  0  0  0  0  0  0  0  0  0
   -8.5919   -8.3192    4.1828 H   0  0  0  0  0  0  0  0  0  0  0  0
   -8.2302   -8.8153    2.5335 H   0  0  0  0  0  0  0  0  0  0  0  0
   -8.4387   -5.3620    2.4998 H   0  0  0  0  0  0  0  0  0  0  0  0
   -8.4952   -3.2883    2.3429 H   0  0  0  0  0  0  0  0  0  0  0  0
   -8.9231   -1.1191    1.9135 H   0  0  0  0  0  0  0  0  0  0  0  0
   -9.4995    0.9354    2.1494 H   0  0  0  0  0  0  0  0  0  0  0  0
  -10.7921    3.9830    1.2052 H   0  0  0  0  0  0  0  0  0  0  0  0
  -10.2028    4.2164    2.8469 H   0  0  0  0  0  0  0  0  0  0  0  0
  -10.9699    2.6905    2.3966 H   0  0  0  0  0  0  0  0  0  0  0  0
   -7.3788    5.7959    0.6539 H   0  0  0  0  0  0  0  0  0  0  0  0
   -8.5101    5.6935    2.0067 H   0  0  0  0  0  0  0  0  0  0  0  0
   -9.0871    5.4520    0.3618 H   0  0  0  0  0  0  0  0  0  0  0  0
   -5.9815    3.9622    0.4217 H   0  0  0  0  0  0  0  0  0  0  0  0
   -4.0035    2.8686   -0.0182 H   0  0  0  0  0  0  0  0  0  0  0  0
   -3.0275   -0.0223    0.2007 H   0  0  0  0  0  0  0  0  0  0  0  0
    0.9690   -2.6678    1.4846 H   0  0  0  0  0  0  0  0  0  0  0  0
    1.9261   -2.7656   -0.0144 H   0  0  0  0  0  0  0  0  0  0  0  0
   -0.1181   -3.5650   -1.2264 H   0  0  0  0  0  0  0  0  0  0  0  0
   -1.0716   -3.3649    0.2476 H   0  0  0  0  0  0  0  0  0  0  0  0
    0.1939   -4.5974    0.1776 H   0  0  0  0  0  0  0  0  0  0  0  0
   -2.8418    3.2770   -2.9113 H   0  0  0  0  0  0  0  0  0  0  0  0
   -1.4879    4.4386   -2.8322 H   0  0  0  0  0  0  0  0  0  0  0  0
   -3.1046    4.9145   -2.2529 H   0  0  0  0  0  0  0  0  0  0  0  0
    2.3370    4.7014   -2.0637 H   0  0  0  0  0  0  0  0  0  0  0  0
    1.3852    5.9387   -1.2106 H   0  0  0  0  0  0  0  0  0  0  0  0
    2.0111    4.5264   -0.3203 H   0  0  0  0  0  0  0  0  0  0  0  0
    3.3074    3.2254   -6.7895 H   0  0  0  0  0  0  0  0  0  0  0  0
    1.6515    2.7376   -6.3179 H   0  0  0  0  0  0  0  0  0  0  0  0
    2.6630    1.1329   -7.9766 H   0  0  0  0  0  0  0  0  0  0  0  0
    2.3343    0.3447   -6.4282 H   0  0  0  0  0  0  0  0  0  0  0  0
    3.9855    0.8238   -6.8422 H   0  0  0  0  0  0  0  0  0  0  0  0
    3.2762    1.1011    2.5070 H   0  0  0  0  0  0  0  0  0  0  0  0
    3.2780    0.0674    1.0483 H   0  0  0  0  0  0  0  0  0  0  0  0
    4.7662    0.9292    1.5390 H   0  0  0  0  0  0  0  0  0  0  0  0
    7.8132    2.4461   -0.3673 H   0  0  0  0  0  0  0  0  0  0  0  0
    6.9159    3.9719   -0.5836 H   0  0  0  0  0  0  0  0  0  0  0  0
    7.2838    3.3734    1.0553 H   0  0  0  0  0  0  0  0  0  0  0  0
    8.0647   -2.0484   -1.1660 H   0  0  0  0  0  0  0  0  0  0  0  0
    9.7783   -1.9459   -1.6780 H   0  0  0  0  0  0  0  0  0  0  0  0
    8.6242   -3.8131   -2.8666 H   0  0  0  0  0  0  0  0  0  0  0  0
    7.4199   -2.6774   -3.4888 H   0  0  0  0  0  0  0  0  0  0  0  0
    9.1077   -2.5463   -4.0025 H   0  0  0  0  0  0  0  0  0  0  0  0
   10.3443    2.5320   -4.3197 H   0  0  0  0  0  0  0  0  0  0  0  0
    5.3225    6.0430   -4.4112 H   0  0  0  0  0  0  0  0  0  0  0  0
    5.5384    4.4769   -5.2427 H   0  0  0  0  0  0  0  0  0  0  0  0
    6.8853    5.6527   -5.1756 H   0  0  0  0  0  0  0  0  0  0  0  0
   10.2449    5.9856   -5.3873 H   0  0  0  0  0  0  0  0  0  0  0  0
   10.3514    4.2731   -5.8683 H   0  0  0  0  0  0  0  0  0  0  0  0
   10.9337    4.7902   -4.2602 H   0  0  0  0  0  0  0  0  0  0  0  0
  1  2  1  0  0  0  0
  2  3  2  0  0  0  0
  3  4  1  0  0  0  0
  4  5  1  0  0  0  0
  5  6  1  0  0  0  0
  4  7  1  0  0  0  0
  7  8  2  0  0  0  0
  8  9  1  0  0  0  0
  9 10  2  0  0  0  0
 10 11  1  0  0  0  0
 11 12  1  0  0  0  0
 12 13  1  0  0  0  0
 10 14  1  0  0  0  0
 14 15  1  0  0  0  0
  9 16  1  0  0  0  0
 16 17  1  0  0  0  0
 17 18  1  0  0  0  0
 18 19  2  0  0  0  0
 19 20  1  0  0  0  0
 20 21  1  0  0  0  0
 21 22  2  0  0  0  0
 22 23  1  0  0  0  0
 22 24  1  0  0  0  0
 24 25  1  0  0  0  0
 24 26  2  0  0  0  0
 18 27  1  0  0  0  0
 27 28  2  0  0  0  0
 28 29  1  0  0  0  0
 29 30  1  0  0  0  0
 30 31  1  0  0  0  0
 31 32  2  0  0  0  0
 32 33  1  0  0  0  0
 33 34  1  0  0  0  0
 34 35  2  0  0  0  0
 35 36  1  0  0  0  0
 35 37  1  0  0  0  0
 37 38  1  0  0  0  0
 37 39  2  0  0  0  0
 31 40  1  0  0  0  0
 40 41  2  0  0  0  0
 41 42  1  0  0  0  0
 42 43  1  0  0  0  0
 43 44  2  0  0  0  0
 44 45  1  0  0  0  0
 45 46  1  0  0  0  0
 46 47  1  0  0  0  0
 45 48  1  0  0  0  0
 48 49  2  0  0  0  0
 49 50  1  0  0  0  0
 50 51  2  0  0  0  0
 51 52  1  0  0  0  0
 52 53  1  0  0  0  0
 53 54  1  0  0  0  0
 51 55  1  0  0  0  0
 55 56  1  0  0  0  0
 50 57  1  0  0  0  0
 57 58  1  0  0  0  0
 58 59  2  0  0  0  0
 59 60  1  0  0  0  0
 60 61  1  0  0  0  0
 61 62  1  0  0  0  0
 60 63  1  0  0  0  0
 63 64  2  0  0  0  0
 64 65  1  0  0  0  0
 65 66  2  0  0  0  0
 66 67  1  0  0  0  0
 67 68  1  0  0  0  0
 68 69  1  0  0  0  0
 66 70  1  0  0  0  0
 70 71  1  0  0  0  0
 65 72  1  0  0  0  0
 72 73  1  0  0  0  0
 73 74  2  0  0  0  0
 74 75  1  0  0  0  0
 75 76  1  0  0  0  0
 76 77  1  0  0  0  0
 75 78  1  0  0  0  0
 78 79  2  0  0  0  0
 79 80  1  0  0  0  0
 80 81  2  0  0  0  0
 81 82  1  0  0  0  0
 82 83  1  0  0  0  0
 83 84  1  0  0  0  0
 81 85  1  0  0  0  0
 85 86  1  0  0  0  0
 11  1  2  0  0  0  0
 20 16  2  0  0  0  0
 33 29  2  0  0  0  0
 52 42  2  0  0  0  0
 67 57  2  0  0  0  0
 82 72  2  0  0  0  0
  8  2  1  0  0  0  0
 26 19  1  0  0  0  0
 39 32  1  0  0  0  0
 49 43  1  0  0  0  0
 64 58  1  0  0  0  0
 79 73  1  0  0  0  0
  1 87  1  0  0  0  0
  5 88  1  0  0  0  0
  5 89  1  0  0  0  0
  6 90  1  0  0  0  0
  6 91  1  0  0  0  0
  6 92  1  0  0  0  0
 13 93  1  0  0  0  0
 13 94  1  0  0  0  0
 13 95  1  0  0  0  0
 15 96  1  0  0  0  0
 15 97  1  0  0  0  0
 15 98  1  0  0  0  0
 21 99  1  0  0  0  0
 23100  1  0  0  0  0
 23101  1  0  0  0  0
 23102  1  0  0  0  0
 25103  1  0  0  0  0
 25104  1  0  0  0  0
 25105  1  0  0  0  0
 26106  1  0  0  0  0
 27107  1  0  0  0  0
 28108  1  0  0  0  0
 34109  1  0  0  0  0
 36110  1  0  0  0  0
 36111  1  0  0  0  0
 36112  1  0  0  0  0
 38113  1  0  0  0  0
 38114  1  0  0  0  0
 38115  1  0  0  0  0
 39116  1  0  0  0  0
 40117  1  0  0  0  0
 41118  1  0  0  0  0
 46119  1  0  0  0  0
 46120  1  0  0  0  0
 47121  1  0  0  0  0
 47122  1  0  0  0  0
 47123  1  0  0  0  0
 54124  1  0  0  0  0
 54125  1  0  0  0  0
 54126  1  0  0  0  0
 56127  1  0  0  0  0
 56128  1  0  0  0  0
 56129  1  0  0  0  0
 61130  1  0  0  0  0
 61131  1  0  0  0  0
 62132  1  0  0  0  0
 62133  1  0  0  0  0
 62134  1  0  0  0  0
 69135  1  0  0  0  0
 69136  1  0  0  0  0
 69137  1  0  0  0  0
 71138  1  0  0  0  0
 71139  1  0  0  0  0
 71140  1  0  0  0  0
 76141  1  0  0  0  0
 76142  1  0  0  0  0
 77143  1  0  0  0  0
 77144  1  0  0  0  0
 77145  1  0  0  0  0
 80146  1  0  0  0  0
 84147  1  0  0  0  0
 84148  1  0  0  0  0
 84149  1  0  0  0  0
 86150  1  0  0  0  0
 86151  1  0  0  0  0
 86152  1  0  0  0  0
M  END
