248

C         -7.32750        7.85260       -4.88630
S         -7.81620        9.00850       -3.72970
C         -7.84270        7.83160       -2.44430
C         -7.45400        6.57520       -2.93460
C         -7.18970        6.59340       -4.34250
C         -6.89970        5.38240       -5.01130
C         -6.88070        4.20040       -4.32830
C         -6.66050        2.91150       -5.05320
C         -7.08780        4.18860       -2.91480
C         -7.02470        2.89140       -2.17340
C         -7.35540        5.35200       -2.24400
C         -8.32660        8.14190       -1.15850
C         -8.93230        9.31250       -0.81360
C         -9.58450        9.56350        0.40760
S         -9.69620        8.37260        1.66680
C        -10.74750        9.34190        2.64950
C        -10.97520       10.58170        2.02220
C        -10.31550       10.71010        0.76600
C        -10.45240       11.90020        0.03090
C        -11.20770       12.93760        0.50880
C        -11.33830       14.20270       -0.28110
C        -11.86850       12.81300        1.76250
C        -12.69150       13.95020        2.28340
C        -11.74990       11.65930        2.49080
C        -11.24010        8.96610        3.92200
C        -11.00090        7.87660        4.69140
C        -10.20410        6.72090        4.39380
C        -10.14910        5.92620        3.28970
C         -9.15150        4.91640        3.34780
C         -8.78670        3.98180        2.36130
C         -9.45500        3.88370        1.05850
C         -9.76430        5.00990        0.30330
C        -10.33350        4.91100       -0.95220
C        -10.61370        3.66910       -1.50690
S        -11.30190        3.37480       -3.10000
C        -11.79010        5.02570       -3.70710
C        -10.64480        5.76530       -4.37110
C        -10.31550        2.54440       -0.73400
F        -10.58660        1.32070       -1.23430
C         -9.75540        2.63180        0.51850
C         -7.70510        3.16110        2.65980
C         -7.03010        3.17420        3.90340
C         -7.44200        4.05720        4.91470
C         -6.81280        4.04280        6.23970
C         -6.68020        2.84590        6.94350
C         -6.14270        2.83310        8.21200
C         -5.69920        4.00440        8.82370
S         -5.01100        3.85940       10.44580
C         -5.61540        5.35010       11.32100
C         -7.12770        5.44820       11.30380
C         -5.79470        5.18350        8.09100
C         -6.35630        5.21560        6.83080
F         -5.33290        6.35040        8.59270
C         -8.46580        4.93290        4.59030
S         -9.08570        6.17750        5.63890
C         -5.90090        2.31630        3.91060
C         -5.68810        1.68880        2.72050
S         -6.91900        2.07950        1.53630
C         -4.58950        0.86160        2.34530
C         -4.23530        0.48910        1.08280
C         -3.02700       -0.24790        1.02790
C         -2.37710       -0.74700       -0.11180
C         -2.84510       -0.46030       -1.47260
C         -3.09370        0.84930       -1.88190
C         -3.41810        1.12330       -3.19300
C         -3.53560        0.10700       -4.14010
S         -3.94910        0.57680       -5.79500
C         -2.95280       -0.54550       -6.84150
C         -1.47120       -0.45200       -6.53730
C         -3.34610       -1.19990       -3.70150
F         -3.50670       -2.24330       -4.54360
C         -2.98250       -1.48570       -2.40140
C         -1.21340       -1.46870        0.10310
C         -0.67210       -1.69470        1.39190
C         -1.31850       -1.19140        2.53570
C         -0.74690       -1.41960        3.86710
C         -0.32590       -2.69190        4.24950
C          0.28810       -2.90920        5.46670
C          0.50590       -1.85780        6.35200
S          1.31390       -2.01050        7.90430
C          2.22610       -3.59210        7.73410
C          3.26370       -3.68270        8.83580
C          0.03350       -0.59770        5.97760
C         -0.57720       -0.36780        4.76560
F          0.20260        0.44090        6.81900
C         -2.47860       -0.46420        2.31830
S         -3.45960        0.28320        3.55300
C          0.57510       -2.36250        1.32670
C          0.97770       -2.65240        0.05610
S         -0.17740       -2.11540       -1.14380
C          2.20940       -3.27380       -0.31260
C          3.06210       -3.93290        0.52370
C          4.26490       -4.34600       -0.09930
C          5.36970       -4.98560        0.49000
C          5.37110       -5.31000        1.92140
C          5.70120       -6.58340        2.37370
C          5.64420       -6.90630        3.71670
C          5.24570       -5.96550        4.65880
S          5.09650       -6.23050        6.39420
C          5.40770       -8.01450        6.61690
C          4.22400       -8.86670        6.19910
C          4.94590       -4.68400        4.19340
F          4.56480       -3.73990        5.08160
C          5.00880       -4.34590        2.86220
C          6.43820       -5.27040       -0.34560
C          6.45940       -4.93200       -1.72270
C          5.35570       -4.29250       -2.30940
C          5.34370       -3.88980       -3.72070
C          6.38190       -3.13780       -4.26850
C          6.32700       -2.71890       -5.58010
C          5.24920       -3.04280       -6.40350
S          5.31560       -2.47100       -8.07410
C          3.58080       -2.05840       -8.49000
C          2.98920       -1.04060       -7.53550
C          4.23890       -3.82540       -5.85290
C          4.26730       -4.22870       -4.53360
F          3.18560       -4.22600       -6.59850
C          4.27920       -4.02240       -1.47830
S          2.82430       -3.18140       -1.94760
C          7.67890       -5.30850       -2.34010
C          8.57460       -5.87310       -1.48270
S          7.94190       -6.00550        0.14790
C          9.90470       -6.29970       -1.77020
C         10.81260       -6.84030       -0.91070
C         12.07420       -7.10120       -1.50570
C         13.21310       -7.66490       -0.90930
C         13.24620       -8.00080        0.51890
C         13.66990       -9.25470        0.95630
C         13.71580       -9.55050        2.30100
C         13.34130       -8.61480        3.26520
S         13.41140       -9.12530        4.95300
C         13.80590       -7.58210        5.87120
C         14.46280       -7.95090        7.18660
C         12.90060       -7.37440        2.81320
F         12.48470       -6.42420        3.68190
C         12.86200       -7.06080        1.46990
C         14.31220       -7.86460       -1.73330
C         14.32740       -7.51500       -3.10480
C         13.18960       -6.95160       -3.70120
C         13.15750       -6.59940       -5.12630
C         12.73670       -5.33920       -5.54730
C         12.71240       -5.01890       -6.88710
C         13.08830       -5.94080       -7.86320
S         12.95850       -5.42100       -9.54780
C         14.39330       -6.19570      -10.38050
C         15.70810       -5.78090       -9.75130
C         13.47500       -7.20530       -7.42940
C         13.52850       -7.53190       -6.08930
F         13.81170       -8.17210       -8.31290
C         12.09090       -6.75080       -2.87850
S         10.55650       -6.09350       -3.38530
C         15.60490       -7.75690       -3.69320
C         16.49690       -8.26790       -2.82140
S         15.85970       -8.49440       -1.22840
H         -7.18330        8.15060       -5.90550
H         -6.72390        5.40770       -6.07670
H         -7.51570        2.25100       -4.91610
H         -5.78180        2.39000       -4.67830
H         -6.52340        3.08530       -6.11700
H         -7.80590        2.21620       -2.52140
H         -6.06800        2.39590       -2.33590
H         -7.16000        3.05030       -1.10670
H         -7.50800        5.32950       -1.17550
H         -8.25450        7.35250       -0.42360
H         -8.98210       10.10210       -1.55230
H         -9.94730       11.99590       -0.91880
H        -10.77540       14.13530       -1.20860
H        -12.38230       14.39950       -0.52340
H        -10.96480       15.05270        0.28910
H        -12.07890       14.84300        2.40460
H        -13.49580       14.19230        1.58950
H        -13.12970       13.69920        3.24600
H        -12.25630       11.57870        3.44130
H        -11.86910        9.72420        4.37190
H        -11.37820        7.90570        5.70640
H        -10.83660        6.03140        2.47150
H         -9.52620        5.98640        0.69070
H        -10.53690        5.81800       -1.49740
H        -12.58160        4.81430       -4.42660
H        -12.21660        5.57990       -2.87220
H         -9.82420        5.91980       -3.67580
H        -10.98640        6.73460       -4.73000
H        -10.26560        5.19490       -5.21570
H         -9.57260        1.72330        1.06980
H         -7.03510        1.92660        6.50280
H         -6.05990        1.90820        8.76140
H         -5.14470        6.23090       10.89000
H         -5.24230        5.20870       12.33560
H         -7.49720        5.59150       10.29000
H         -7.44550        6.29630       11.90710
H         -7.57420        4.54270       11.70950
H         -6.40150        6.15890        6.30960
H         -5.23740        2.21090        4.75060
H         -4.82320        0.73860        0.21750
H         -2.98480        1.65930       -1.17700
H         -3.56710        2.14330       -3.51420
H         -3.32840       -1.56020       -6.73010
H         -3.16960       -0.19630       -7.85130
H         -1.12410        0.57500       -6.63340
H         -1.25690       -0.79600       -5.52700
H         -0.91700       -1.07740       -7.23450
H         -2.83340       -2.51660       -2.12070
H         -0.50070       -3.52930        3.59030
H          0.59900       -3.90780        5.72740
H          1.51040       -4.41160        7.80570
H          2.70660       -3.58910        6.75780
H          3.94880       -2.84090        8.77680
H          3.83460       -4.60130        8.72030
H          2.78980       -3.67780        9.81470
H         -0.88410        0.63570        4.51750
H          1.17540       -2.57140        2.19230
H          2.82940       -4.13110        1.55310
H          5.98550       -7.34490        1.66390
H          5.90980       -7.90600        4.01860
H          5.59350       -8.11080        7.68680
H          6.32090       -8.27350        6.08300
H          3.34570       -8.60030        6.78240
H          3.99010       -8.72690        5.14590
H          4.44790       -9.91810        6.36890
H          4.79320       -3.33100        2.56700
H          7.21670       -2.84820       -3.64880
H          7.12310       -2.12110       -5.99590
H          3.66180       -1.65060       -9.49780
H          2.99540       -2.97450       -8.52480
H          2.90050       -1.45150       -6.53170
H          1.99630       -0.75370       -7.87600
H          3.61380       -0.15080       -7.49100
H          3.45540       -4.83420       -4.16190
H          7.88700       -5.16870       -3.38590
H         10.57840       -7.05770        0.11610
H         13.95510      -10.00500        0.23540
H         14.04600      -10.52160        2.63530
H         12.88070       -7.03120        6.03350
H         14.47890       -6.99860        5.24510
H         13.79500       -8.56310        7.78860
H         14.70250       -7.04680        7.74210
H         15.37980       -8.50940        7.01300
H         12.54020       -6.07290        1.17860
H         12.45410       -4.59750       -4.81660
H         12.39890       -4.03790       -7.20800
H         14.31390       -5.82620      -11.40300
H         14.26390       -7.27550      -10.38350
H         16.53520       -6.19380      -10.32520
H         15.78260       -6.14820       -8.72950
H         15.79890       -4.69670       -9.73590
H         13.82410       -8.53170       -5.81070
H         15.83470       -7.53360       -4.71910
H         17.51880       -8.53640       -3.00540
