
  xtb     03052203003D
 energy: -224.323079663932 gnorm: 0.000352524537 xtb: 6.4.1 (unknown)
140151  0     0  0            999 V2000
    3.7874    2.6410    4.3171 C   0  0  0  0  0  0  0  0  0  0  0  0
    4.0821    3.1172    2.6947 S   0  0  0  0  0  0  0  0  0  0  0  0
    2.5971    2.3738    2.1571 C   0  0  0  0  0  0  0  0  0  0  0  0
    1.9190    1.8319    3.2196 C   0  0  0  0  0  0  0  0  0  0  0  0
    2.6061    1.9805    4.4524 C   0  0  0  0  0  0  0  0  0  0  0  0
    2.1117    1.3754    5.7413 C   0  0  0  0  0  0  0  0  0  0  0  0
    2.8922    0.1807    5.9800 C   0  0  0  0  0  0  0  0  0  0  0  0
    3.5131   -0.7624    6.1590 N   0  0  0  0  0  0  0  0  0  0  0  0
    0.6182    1.0197    5.6780 C   0  0  0  0  0  0  0  0  0  0  0  0
    0.2804    0.3306    4.3591 C   0  0  0  0  0  0  0  0  0  0  0  0
    0.5131    1.2945    3.1884 C   0  0  0  0  0  0  0  0  0  0  0  0
   -0.3482    2.4461    3.3050 C   0  0  0  0  0  0  0  0  0  0  0  0
   -0.9905    3.3846    3.4333 N   0  0  0  0  0  0  0  0  0  0  0  0
    2.2918    2.3732    0.7467 C   0  0  0  0  0  0  0  0  0  0  0  0
    1.8211    1.3311    0.0358 C   0  0  0  0  0  0  0  0  0  0  0  0
    1.5999   -0.0011    0.5128 C   0  0  0  0  0  0  0  0  0  0  0  0
    0.1798   -0.8655    0.0003 S   0  0  0  0  0  0  0  0  0  0  0  0
    0.4919   -2.2035    1.0616 C   0  0  0  0  0  0  0  0  0  0  0  0
    1.7160   -2.0182    1.7177 C   0  0  0  0  0  0  0  0  0  0  0  0
    2.3419   -0.7754    1.4058 C   0  0  0  0  0  0  0  0  0  0  0  0
    3.6033   -0.4884    1.9660 C   0  0  0  0  0  0  0  0  0  0  0  0
    4.1835   -1.3445    2.8597 C   0  0  0  0  0  0  0  0  0  0  0  0
    5.5149   -1.0173    3.4566 C   0  0  0  0  0  0  0  0  0  0  0  0
    3.5217   -2.5537    3.2276 C   0  0  0  0  0  0  0  0  0  0  0  0
    4.1464   -3.4616    4.2365 C   0  0  0  0  0  0  0  0  0  0  0  0
    2.3234   -2.8789    2.6513 C   0  0  0  0  0  0  0  0  0  0  0  0
   -0.3097   -3.3737    1.1187 C   0  0  0  0  0  0  0  0  0  0  0  0
   -1.6595   -3.5201    1.0149 C   0  0  0  0  0  0  0  0  0  0  0  0
   -2.7000   -2.5713    1.1108 C   0  0  0  0  0  0  0  0  0  0  0  0
   -2.4902   -0.9228    1.6212 S   0  0  0  0  0  0  0  0  0  0  0  0
   -4.1935   -0.6293    1.7607 C   0  0  0  0  0  0  0  0  0  0  0  0
   -4.9088   -1.7887    1.4171 C   0  0  0  0  0  0  0  0  0  0  0  0
   -4.0735   -2.8728    1.0280 C   0  0  0  0  0  0  0  0  0  0  0  0
   -4.6681   -4.0783    0.6159 C   0  0  0  0  0  0  0  0  0  0  0  0
   -6.0308   -4.2199    0.5973 C   0  0  0  0  0  0  0  0  0  0  0  0
   -6.6471   -5.5124    0.1606 C   0  0  0  0  0  0  0  0  0  0  0  0
   -6.8654   -3.1361    0.9897 C   0  0  0  0  0  0  0  0  0  0  0  0
   -8.3534   -3.2967    0.9659 C   0  0  0  0  0  0  0  0  0  0  0  0
   -6.3061   -1.9492    1.3820 C   0  0  0  0  0  0  0  0  0  0  0  0
   -4.7674    0.5459    2.3116 C   0  0  0  0  0  0  0  0  0  0  0  0
   -4.3773    1.8483    2.2915 C   0  0  0  0  0  0  0  0  0  0  0  0
   -3.4060    2.5076    1.4948 C   0  0  0  0  0  0  0  0  0  0  0  0
   -2.5811    1.7356    0.1732 S   0  0  0  0  0  0  0  0  0  0  0  0
   -1.7882    3.2141   -0.2829 C   0  0  0  0  0  0  0  0  0  0  0  0
   -2.1309    4.2385    0.5828 C   0  0  0  0  0  0  0  0  0  0  0  0
   -3.0649    3.8562    1.5559 C   0  0  0  0  0  0  0  0  0  0  0  0
   -3.6076    4.8279    2.5733 C   0  0  0  0  0  0  0  0  0  0  0  0
   -5.0525    4.8039    2.6179 C   0  0  0  0  0  0  0  0  0  0  0  0
   -6.1949    4.8548    2.6397 N   0  0  0  0  0  0  0  0  0  0  0  0
   -3.1789    6.2717    2.2573 C   0  0  0  0  0  0  0  0  0  0  0  0
   -1.7028    6.3126    1.8922 C   0  0  0  0  0  0  0  0  0  0  0  0
   -1.4967    5.6058    0.5446 C   0  0  0  0  0  0  0  0  0  0  0  0
   -0.0810    5.4910    0.2821 C   0  0  0  0  0  0  0  0  0  0  0  0
    1.0448    5.4099    0.0939 N   0  0  0  0  0  0  0  0  0  0  0  0
   -0.9373    3.2747   -1.4156 C   0  0  0  0  0  0  0  0  0  0  0  0
   -0.5462    2.1708   -2.0915 C   0  0  0  0  0  0  0  0  0  0  0  0
    0.3138    2.0847   -3.2199 C   0  0  0  0  0  0  0  0  0  0  0  0
    0.4343    0.5174   -3.9664 S   0  0  0  0  0  0  0  0  0  0  0  0
    1.5299    1.1032   -5.1753 C   0  0  0  0  0  0  0  0  0  0  0  0
    1.7783    2.4481   -4.9878 C   0  0  0  0  0  0  0  0  0  0  0  0
    1.1359    2.9960   -3.8601 C   0  0  0  0  0  0  0  0  0  0  0  0
    1.3922    4.4072   -3.3998 C   0  0  0  0  0  0  0  0  0  0  0  0
    0.2528    5.2349   -3.7323 C   0  0  0  0  0  0  0  0  0  0  0  0
   -0.6421    5.8898   -4.0119 N   0  0  0  0  0  0  0  0  0  0  0  0
    2.6558    4.9801   -4.0599 C   0  0  0  0  0  0  0  0  0  0  0  0
    2.6140    4.7447   -5.5651 C   0  0  0  0  0  0  0  0  0  0  0  0
    2.7125    3.2420   -5.8627 C   0  0  0  0  0  0  0  0  0  0  0  0
    4.0585    2.7676   -5.6153 C   0  0  0  0  0  0  0  0  0  0  0  0
    5.1139    2.3886   -5.3947 N   0  0  0  0  0  0  0  0  0  0  0  0
    2.0247    0.2519   -6.2206 C   0  0  0  0  0  0  0  0  0  0  0  0
    2.1236   -1.0809   -6.1398 C   0  0  0  0  0  0  0  0  0  0  0  0
    1.9059   -1.8166   -4.8983 C   0  0  0  0  0  0  0  0  0  0  0  0
    3.1315   -1.7368   -3.6697 S   0  0  0  0  0  0  0  0  0  0  0  0
    2.1846   -2.7200   -2.5912 C   0  0  0  0  0  0  0  0  0  0  0  0
    0.9901   -3.0758   -3.1719 C   0  0  0  0  0  0  0  0  0  0  0  0
    0.8419   -2.5710   -4.4890 C   0  0  0  0  0  0  0  0  0  0  0  0
   -0.3947   -2.8290   -5.3093 C   0  0  0  0  0  0  0  0  0  0  0  0
   -0.6989   -1.7344   -6.2021 C   0  0  0  0  0  0  0  0  0  0  0  0
   -0.9941   -0.8856   -6.9086 N   0  0  0  0  0  0  0  0  0  0  0  0
   -1.5864   -3.0756   -4.3718 C   0  0  0  0  0  0  0  0  0  0  0  0
   -1.2515   -4.2193   -3.4247 C   0  0  0  0  0  0  0  0  0  0  0  0
   -0.1172   -3.8192   -2.4653 C   0  0  0  0  0  0  0  0  0  0  0  0
    0.3616   -5.0194   -1.8178 C   0  0  0  0  0  0  0  0  0  0  0  0
    0.6948   -6.0008   -1.3345 N   0  0  0  0  0  0  0  0  0  0  0  0
    2.6921   -3.0719   -1.2918 C   0  0  0  0  0  0  0  0  0  0  0  0
    3.8395   -2.6279   -0.7874 C   0  0  0  0  0  0  0  0  0  0  0  0
    4.5056    2.8745    5.0779 H   0  0  0  0  0  0  0  0  0  0  0  0
    2.3016    2.0608    6.5769 H   0  0  0  0  0  0  0  0  0  0  0  0
    0.3657    0.3683    6.5176 H   0  0  0  0  0  0  0  0  0  0  0  0
    0.0312    1.9370    5.7708 H   0  0  0  0  0  0  0  0  0  0  0  0
   -0.7620    0.0050    4.3611 H   0  0  0  0  0  0  0  0  0  0  0  0
    0.9146   -0.5487    4.2199 H   0  0  0  0  0  0  0  0  0  0  0  0
    0.2880    0.8036    2.2380 H   0  0  0  0  0  0  0  0  0  0  0  0
    2.4914    3.3043    0.2344 H   0  0  0  0  0  0  0  0  0  0  0  0
    1.5368    1.5084   -0.9928 H   0  0  0  0  0  0  0  0  0  0  0  0
    4.1201    0.4075    1.6608 H   0  0  0  0  0  0  0  0  0  0  0  0
    5.4330   -0.9596    4.5410 H   0  0  0  0  0  0  0  0  0  0  0  0
    5.8789   -0.0641    3.0813 H   0  0  0  0  0  0  0  0  0  0  0  0
    6.2463   -1.7880    3.2168 H   0  0  0  0  0  0  0  0  0  0  0  0
    3.5414   -4.3536    4.3782 H   0  0  0  0  0  0  0  0  0  0  0  0
    5.1449   -3.7632    3.9234 H   0  0  0  0  0  0  0  0  0  0  0  0
    4.2363   -2.9436    5.1900 H   0  0  0  0  0  0  0  0  0  0  0  0
    1.8326   -3.8060    2.9081 H   0  0  0  0  0  0  0  0  0  0  0  0
    0.2555   -4.2867    1.2694 H   0  0  0  0  0  0  0  0  0  0  0  0
   -2.0138   -4.5422    0.9563 H   0  0  0  0  0  0  0  0  0  0  0  0
   -4.0420   -4.9021    0.3052 H   0  0  0  0  0  0  0  0  0  0  0  0
   -5.8793   -6.2333   -0.1089 H   0  0  0  0  0  0  0  0  0  0  0  0
   -7.2957   -5.3582   -0.7011 H   0  0  0  0  0  0  0  0  0  0  0  0
   -7.2542   -5.9368    0.9595 H   0  0  0  0  0  0  0  0  0  0  0  0
   -8.6627   -4.1071    1.6253 H   0  0  0  0  0  0  0  0  0  0  0  0
   -8.8432   -2.3819    1.2891 H   0  0  0  0  0  0  0  0  0  0  0  0
   -8.6987   -3.5375   -0.0389 H   0  0  0  0  0  0  0  0  0  0  0  0
   -6.9398   -1.1212    1.6628 H   0  0  0  0  0  0  0  0  0  0  0  0
   -5.6876    0.3503    2.8518 H   0  0  0  0  0  0  0  0  0  0  0  0
   -4.9591    2.5182    2.9110 H   0  0  0  0  0  0  0  0  0  0  0  0
   -3.2254    4.5393    3.5614 H   0  0  0  0  0  0  0  0  0  0  0  0
   -3.7757    6.6573    1.4256 H   0  0  0  0  0  0  0  0  0  0  0  0
   -3.3716    6.9011    3.1278 H   0  0  0  0  0  0  0  0  0  0  0  0
   -1.1209    5.7955    2.6585 H   0  0  0  0  0  0  0  0  0  0  0  0
   -1.3541    7.3447    1.8249 H   0  0  0  0  0  0  0  0  0  0  0  0
   -1.9393    6.2030   -0.2664 H   0  0  0  0  0  0  0  0  0  0  0  0
   -0.6361    4.2601   -1.7306 H   0  0  0  0  0  0  0  0  0  0  0  0
   -0.9351    1.2158   -1.7559 H   0  0  0  0  0  0  0  0  0  0  0  0
    1.5076    4.4262   -2.3073 H   0  0  0  0  0  0  0  0  0  0  0  0
    3.5346    4.4895   -3.6344 H   0  0  0  0  0  0  0  0  0  0  0  0
    2.7228    6.0481   -3.8446 H   0  0  0  0  0  0  0  0  0  0  0  0
    3.4388    5.2676   -6.0533 H   0  0  0  0  0  0  0  0  0  0  0  0
    1.6754    5.1301   -5.9716 H   0  0  0  0  0  0  0  0  0  0  0  0
    2.4844    3.0546   -6.9198 H   0  0  0  0  0  0  0  0  0  0  0  0
    2.3047    0.7444   -7.1420 H   0  0  0  0  0  0  0  0  0  0  0  0
    2.4503   -1.6510   -6.9992 H   0  0  0  0  0  0  0  0  0  0  0  0
   -0.2346   -3.7206   -5.9349 H   0  0  0  0  0  0  0  0  0  0  0  0
   -2.4729   -3.3216   -4.9592 H   0  0  0  0  0  0  0  0  0  0  0  0
   -1.7933   -2.1653   -3.8037 H   0  0  0  0  0  0  0  0  0  0  0  0
   -0.9479   -5.0962   -4.0036 H   0  0  0  0  0  0  0  0  0  0  0  0
   -2.1315   -4.4929   -2.8393 H   0  0  0  0  0  0  0  0  0  0  0  0
   -0.5220   -3.1607   -1.6820 H   0  0  0  0  0  0  0  0  0  0  0  0
    2.0800   -3.7562   -0.7213 H   0  0  0  0  0  0  0  0  0  0  0  0
    4.1805   -2.9308    0.1858 H   0  0  0  0  0  0  0  0  0  0  0  0
    4.4691   -1.9447   -1.3338 H   0  0  0  0  0  0  0  0  0  0  0  0
  1  2  1  0  0  0  0
  2  3  1  0  0  0  0
  3  4  2  0  0  0  0
  4  5  1  0  0  0  0
  5  6  1  0  0  0  0
  6  7  1  0  0  0  0
  7  8  3  0  0  0  0
  6  9  1  0  0  0  0
  9 10  1  0  0  0  0
 10 11  1  0  0  0  0
 11 12  1  0  0  0  0
 12 13  3  0  0  0  0
  3 14  1  0  0  0  0
 14 15  2  0  0  0  0
 15 16  1  0  0  0  0
 16 17  1  0  0  0  0
 17 18  1  0  0  0  0
 18 19  2  0  0  0  0
 19 20  1  0  0  0  0
 20 21  1  0  0  0  0
 21 22  2  0  0  0  0
 22 23  1  0  0  0  0
 22 24  1  0  0  0  0
 24 25  1  0  0  0  0
 24 26  2  0  0  0  0
 18 27  1  0  0  0  0
 27 28  2  0  0  0  0
 28 29  1  0  0  0  0
 29 30  1  0  0  0  0
 30 31  1  0  0  0  0
 31 32  2  0  0  0  0
 32 33  1  0  0  0  0
 33 34  1  0  0  0  0
 34 35  2  0  0  0  0
 35 36  1  0  0  0  0
 35 37  1  0  0  0  0
 37 38  1  0  0  0  0
 37 39  2  0  0  0  0
 31 40  1  0  0  0  0
 40 41  2  0  0  0  0
 41 42  1  0  0  0  0
 42 43  1  0  0  0  0
 43 44  1  0  0  0  0
 44 45  2  0  0  0  0
 45 46  1  0  0  0  0
 46 47  1  0  0  0  0
 47 48  1  0  0  0  0
 48 49  3  0  0  0  0
 47 50  1  0  0  0  0
 50 51  1  0  0  0  0
 51 52  1  0  0  0  0
 52 53  1  0  0  0  0
 53 54  3  0  0  0  0
 44 55  1  0  0  0  0
 55 56  2  0  0  0  0
 56 57  1  0  0  0  0
 57 58  1  0  0  0  0
 58 59  1  0  0  0  0
 59 60  2  0  0  0  0
 60 61  1  0  0  0  0
 61 62  1  0  0  0  0
 62 63  1  0  0  0  0
 63 64  3  0  0  0  0
 62 65  1  0  0  0  0
 65 66  1  0  0  0  0
 66 67  1  0  0  0  0
 67 68  1  0  0  0  0
 68 69  3  0  0  0  0
 59 70  1  0  0  0  0
 70 71  2  0  0  0  0
 71 72  1  0  0  0  0
 72 73  1  0  0  0  0
 73 74  1  0  0  0  0
 74 75  2  0  0  0  0
 75 76  1  0  0  0  0
 76 77  1  0  0  0  0
 77 78  1  0  0  0  0
 78 79  3  0  0  0  0
 77 80  1  0  0  0  0
 80 81  1  0  0  0  0
 81 82  1  0  0  0  0
 82 83  1  0  0  0  0
 83 84  3  0  0  0  0
 74 85  1  0  0  0  0
 85 86  2  0  0  0  0
  5  1  2  0  0  0  0
 20 16  2  0  0  0  0
 33 29  2  0  0  0  0
 46 42  2  0  0  0  0
 61 57  2  0  0  0  0
 76 72  2  0  0  0  0
 11  4  1  0  0  0  0
 26 19  1  0  0  0  0
 39 32  1  0  0  0  0
 52 45  1  0  0  0  0
 67 60  1  0  0  0  0
 82 75  1  0  0  0  0
  1 87  1  0  0  0  0
  6 88  1  0  0  0  0
  9 89  1  0  0  0  0
  9 90  1  0  0  0  0
 10 91  1  0  0  0  0
 10 92  1  0  0  0  0
 11 93  1  0  0  0  0
 14 94  1  0  0  0  0
 15 95  1  0  0  0  0
 21 96  1  0  0  0  0
 23 97  1  0  0  0  0
 23 98  1  0  0  0  0
 23 99  1  0  0  0  0
 25100  1  0  0  0  0
 25101  1  0  0  0  0
 25102  1  0  0  0  0
 26103  1  0  0  0  0
 27104  1  0  0  0  0
 28105  1  0  0  0  0
 34106  1  0  0  0  0
 36107  1  0  0  0  0
 36108  1  0  0  0  0
 36109  1  0  0  0  0
 38110  1  0  0  0  0
 38111  1  0  0  0  0
 38112  1  0  0  0  0
 39113  1  0  0  0  0
 40114  1  0  0  0  0
 41115  1  0  0  0  0
 47116  1  0  0  0  0
 50117  1  0  0  0  0
 50118  1  0  0  0  0
 51119  1  0  0  0  0
 51120  1  0  0  0  0
 52121  1  0  0  0  0
 55122  1  0  0  0  0
 56123  1  0  0  0  0
 62124  1  0  0  0  0
 65125  1  0  0  0  0
 65126  1  0  0  0  0
 66127  1  0  0  0  0
 66128  1  0  0  0  0
 67129  1  0  0  0  0
 70130  1  0  0  0  0
 71131  1  0  0  0  0
 77132  1  0  0  0  0
 80133  1  0  0  0  0
 80134  1  0  0  0  0
 81135  1  0  0  0  0
 81136  1  0  0  0  0
 82137  1  0  0  0  0
 85138  1  0  0  0  0
 86139  1  0  0  0  0
 86140  1  0  0  0  0
M  END
