
  xtb     03042214093D
 energy: -365.222856295851 gnorm: 0.000165647083 xtb: 6.4.1 (unknown)
221241  0     0  0            999 V2000
   -0.0650    3.0219    7.1703 C   0  0  0  0  0  0  0  0  0  0  0  0
    0.8757    2.8504    6.2192 C   0  0  0  0  0  0  0  0  0  0  0  0
    0.5208    1.8624    5.2529 C   0  0  0  0  0  0  0  0  0  0  0  0
    1.2548    1.4332    4.1284 C   0  0  0  0  0  0  0  0  0  0  0  0
    2.5372    2.0621    3.7931 C   0  0  0  0  0  0  0  0  0  0  0  0
    3.6529    1.3081    3.4407 C   0  0  0  0  0  0  0  0  0  0  0  0
    4.8832    1.8966    3.2162 C   0  0  0  0  0  0  0  0  0  0  0  0
    5.0540    3.2680    3.3613 C   0  0  0  0  0  0  0  0  0  0  0  0
    6.5815    4.1322    3.2286 S   0  0  0  0  0  0  0  0  0  0  0  0
    7.7515    2.8592    2.6331 C   0  0  0  0  0  0  0  0  0  0  0  0
    9.1314    3.4805    2.5329 C   0  0  0  0  0  0  0  0  0  0  0  0
    3.9195    4.0178    3.6762 C   0  0  0  0  0  0  0  0  0  0  0  0
    4.0330    5.3581    3.8064 F   0  0  0  0  0  0  0  0  0  0  0  0
    2.6840    3.4480    3.8704 C   0  0  0  0  0  0  0  0  0  0  0  0
    0.7051    0.3895    3.3960 C   0  0  0  0  0  0  0  0  0  0  0  0
   -0.5446   -0.2036    3.7106 C   0  0  0  0  0  0  0  0  0  0  0  0
   -1.2881    0.2415    4.8175 C   0  0  0  0  0  0  0  0  0  0  0  0
   -2.5544   -0.4011    5.1871 C   0  0  0  0  0  0  0  0  0  0  0  0
   -2.7933   -0.7908    6.5049 C   0  0  0  0  0  0  0  0  0  0  0  0
   -3.9571   -1.4432    6.8501 C   0  0  0  0  0  0  0  0  0  0  0  0
   -4.9242   -1.7490    5.8967 C   0  0  0  0  0  0  0  0  0  0  0  0
   -6.3991   -2.5592    6.4503 S   0  0  0  0  0  0  0  0  0  0  0  0
   -6.7155   -3.8273    5.1662 C   0  0  0  0  0  0  0  0  0  0  0  0
   -5.5332   -4.7563    4.9793 C   0  0  0  0  0  0  0  0  0  0  0  0
   -4.6814   -1.3462    4.5883 C   0  0  0  0  0  0  0  0  0  0  0  0
   -3.5274   -0.6799    4.2306 C   0  0  0  0  0  0  0  0  0  0  0  0
   -5.5775   -1.6211    3.6144 F   0  0  0  0  0  0  0  0  0  0  0  0
   -0.7242    1.2649    5.5681 C   0  0  0  0  0  0  0  0  0  0  0  0
   -1.4349    1.9906    6.9842 S   0  0  0  0  0  0  0  0  0  0  0  0
   -0.8523   -1.2785    2.8452 C   0  0  0  0  0  0  0  0  0  0  0  0
    0.0931   -1.5265    1.8896 C   0  0  0  0  0  0  0  0  0  0  0  0
    1.4246   -0.3834    1.9990 S   0  0  0  0  0  0  0  0  0  0  0  0
    0.0288   -2.5776    0.9395 C   0  0  0  0  0  0  0  0  0  0  0  0
   -1.5235   -3.2952    0.6285 S   0  0  0  0  0  0  0  0  0  0  0  0
   -0.8652   -4.4871   -0.4499 C   0  0  0  0  0  0  0  0  0  0  0  0
    0.5237   -4.3131   -0.5721 C   0  0  0  0  0  0  0  0  0  0  0  0
    1.0304   -3.2448    0.2275 C   0  0  0  0  0  0  0  0  0  0  0  0
    2.4217   -3.0277    0.2758 C   0  0  0  0  0  0  0  0  0  0  0  0
    3.2797   -3.8035   -0.4560 C   0  0  0  0  0  0  0  0  0  0  0  0
    4.7564   -3.5745   -0.3713 C   0  0  0  0  0  0  0  0  0  0  0  0
    2.7692   -4.8332   -1.2977 C   0  0  0  0  0  0  0  0  0  0  0  0
    3.7124   -5.6525   -2.1228 C   0  0  0  0  0  0  0  0  0  0  0  0
    1.4217   -5.0756   -1.3407 C   0  0  0  0  0  0  0  0  0  0  0  0
   -1.6846   -5.4464   -1.0767 C   0  0  0  0  0  0  0  0  0  0  0  0
   -3.0190   -5.5650   -0.8227 C   0  0  0  0  0  0  0  0  0  0  0  0
   -3.9948   -6.3373   -1.4816 C   0  0  0  0  0  0  0  0  0  0  0  0
   -5.6355   -6.0701   -0.9587 S   0  0  0  0  0  0  0  0  0  0  0  0
   -6.3148   -6.9540   -2.2777 C   0  0  0  0  0  0  0  0  0  0  0  0
   -5.3049   -7.5264   -3.0450 C   0  0  0  0  0  0  0  0  0  0  0  0
   -3.9858   -7.1917   -2.5968 C   0  0  0  0  0  0  0  0  0  0  0  0
   -2.8917   -7.7122   -3.3105 C   0  0  0  0  0  0  0  0  0  0  0  0
   -3.0706   -8.4692   -4.4373 C   0  0  0  0  0  0  0  0  0  0  0  0
   -1.8860   -9.0183   -5.1664 C   0  0  0  0  0  0  0  0  0  0  0  0
   -4.3839   -8.7350   -4.9222 C   0  0  0  0  0  0  0  0  0  0  0  0
   -4.5623   -9.5086   -6.1903 C   0  0  0  0  0  0  0  0  0  0  0  0
   -5.4688   -8.2827   -4.2255 C   0  0  0  0  0  0  0  0  0  0  0  0
   -7.7415   -6.8788   -2.5384 C   0  0  0  0  0  0  0  0  0  0  0  0
   -8.3862   -5.7050   -2.6443 C   0  0  0  0  0  0  0  0  0  0  0  0
   -7.6242   -4.4719   -2.6534 C   0  0  0  0  0  0  0  0  0  0  0  0
   -6.4597   -4.3072   -3.3340 C   0  0  0  0  0  0  0  0  0  0  0  0
   -5.7054   -3.1809   -2.9245 C   0  0  0  0  0  0  0  0  0  0  0  0
   -4.3658   -2.9104   -3.2494 C   0  0  0  0  0  0  0  0  0  0  0  0
   -3.6866   -3.6922   -4.2881 C   0  0  0  0  0  0  0  0  0  0  0  0
   -2.4180   -4.2324   -4.0929 C   0  0  0  0  0  0  0  0  0  0  0  0
   -1.8159   -4.9924   -5.0745 C   0  0  0  0  0  0  0  0  0  0  0  0
   -2.4522   -5.2349   -6.2848 C   0  0  0  0  0  0  0  0  0  0  0  0
   -1.6455   -6.2308   -7.5154 S   0  0  0  0  0  0  0  0  0  0  0  0
   -1.5952   -5.0676   -8.9273 C   0  0  0  0  0  0  0  0  0  0  0  0
   -0.7450   -3.8519   -8.6165 C   0  0  0  0  0  0  0  0  0  0  0  0
   -3.7191   -4.6950   -6.4705 C   0  0  0  0  0  0  0  0  0  0  0  0
   -4.3891   -4.9107   -7.6237 F   0  0  0  0  0  0  0  0  0  0  0  0
   -4.3289   -3.9251   -5.5030 C   0  0  0  0  0  0  0  0  0  0  0  0
   -3.7482   -1.9187   -2.5048 C   0  0  0  0  0  0  0  0  0  0  0  0
   -4.4351   -1.1199   -1.5532 C   0  0  0  0  0  0  0  0  0  0  0  0
   -5.7918   -1.3631   -1.2656 C   0  0  0  0  0  0  0  0  0  0  0  0
   -6.5383   -0.5631   -0.2902 C   0  0  0  0  0  0  0  0  0  0  0  0
   -7.8367   -0.1356   -0.5708 C   0  0  0  0  0  0  0  0  0  0  0  0
   -8.5528    0.5963    0.3510 C   0  0  0  0  0  0  0  0  0  0  0  0
   -7.9981    0.9635    1.5755 C   0  0  0  0  0  0  0  0  0  0  0  0
   -9.0024    1.9073    2.6810 S   0  0  0  0  0  0  0  0  0  0  0  0
   -8.5664    1.2604    4.3397 C   0  0  0  0  0  0  0  0  0  0  0  0
   -8.7537   -0.2394    4.4388 C   0  0  0  0  0  0  0  0  0  0  0  0
   -6.6826    0.5815    1.8195 C   0  0  0  0  0  0  0  0  0  0  0  0
   -5.9749   -0.1993    0.9290 C   0  0  0  0  0  0  0  0  0  0  0  0
   -6.0463    0.9764    2.9420 F   0  0  0  0  0  0  0  0  0  0  0  0
   -6.3808   -2.4286   -1.9359 C   0  0  0  0  0  0  0  0  0  0  0  0
   -7.9467   -3.1250   -1.5800 S   0  0  0  0  0  0  0  0  0  0  0  0
   -3.5816   -0.1345   -0.9910 C   0  0  0  0  0  0  0  0  0  0  0  0
   -2.2953   -0.2044   -1.4306 C   0  0  0  0  0  0  0  0  0  0  0  0
   -2.0690   -1.4680   -2.6248 S   0  0  0  0  0  0  0  0  0  0  0  0
   -1.1782    0.5837   -1.0347 C   0  0  0  0  0  0  0  0  0  0  0  0
    0.0927    0.4855   -1.5146 C   0  0  0  0  0  0  0  0  0  0  0  0
    0.9942    1.4099   -0.9364 C   0  0  0  0  0  0  0  0  0  0  0  0
    2.3547    1.5870   -1.2457 C   0  0  0  0  0  0  0  0  0  0  0  0
    3.0269    0.6720   -2.1733 C   0  0  0  0  0  0  0  0  0  0  0  0
    2.8281   -0.7031   -2.0571 C   0  0  0  0  0  0  0  0  0  0  0  0
    3.4010   -1.5781   -2.9527 C   0  0  0  0  0  0  0  0  0  0  0  0
    4.2245   -1.1241   -3.9776 C   0  0  0  0  0  0  0  0  0  0  0  0
    4.9691   -2.3381   -5.0348 S   0  0  0  0  0  0  0  0  0  0  0  0
    4.6594   -1.6646   -6.7073 C   0  0  0  0  0  0  0  0  0  0  0  0
    3.1767   -1.5127   -6.9828 C   0  0  0  0  0  0  0  0  0  0  0  0
    4.4518    0.2455   -4.0594 C   0  0  0  0  0  0  0  0  0  0  0  0
    5.2662    0.7505   -5.0131 F   0  0  0  0  0  0  0  0  0  0  0  0
    3.8519    1.1376   -3.1931 C   0  0  0  0  0  0  0  0  0  0  0  0
    2.9865    2.6570   -0.6373 C   0  0  0  0  0  0  0  0  0  0  0  0
    2.3394    3.5458    0.2591 C   0  0  0  0  0  0  0  0  0  0  0  0
    0.9887    3.3373    0.6035 C   0  0  0  0  0  0  0  0  0  0  0  0
    0.2875    4.2209    1.5398 C   0  0  0  0  0  0  0  0  0  0  0  0
    0.4005    5.6072    1.4604 C   0  0  0  0  0  0  0  0  0  0  0  0
   -0.2168    6.4339    2.3791 C   0  0  0  0  0  0  0  0  0  0  0  0
   -0.9877    5.9059    3.4086 C   0  0  0  0  0  0  0  0  0  0  0  0
   -1.7749    6.8270    4.6868 S   0  0  0  0  0  0  0  0  0  0  0  0
   -1.7330    8.5509    4.0875 C   0  0  0  0  0  0  0  0  0  0  0  0
   -2.6788    8.7768    2.9233 C   0  0  0  0  0  0  0  0  0  0  0  0
   -1.1298    4.5182    3.4509 C   0  0  0  0  0  0  0  0  0  0  0  0
   -0.5174    3.6845    2.5446 C   0  0  0  0  0  0  0  0  0  0  0  0
   -1.8858    3.9698    4.4225 F   0  0  0  0  0  0  0  0  0  0  0  0
    0.3562    2.2592    0.0001 C   0  0  0  0  0  0  0  0  0  0  0  0
   -1.3278    1.8287    0.1890 S   0  0  0  0  0  0  0  0  0  0  0  0
    3.2151    4.5635    0.7026 C   0  0  0  0  0  0  0  0  0  0  0  0
    4.4817    4.4917    0.1858 C   0  0  0  0  0  0  0  0  0  0  0  0
    4.6595    3.0917   -0.8573 S   0  0  0  0  0  0  0  0  0  0  0  0
    5.5269    5.4260    0.3993 C   0  0  0  0  0  0  0  0  0  0  0  0
    5.1671    6.8853    1.2633 S   0  0  0  0  0  0  0  0  0  0  0  0
    6.7866    7.4653    1.1558 C   0  0  0  0  0  0  0  0  0  0  0  0
    7.5875    6.5584    0.4563 C   0  0  0  0  0  0  0  0  0  0  0  0
    6.8744    5.3993    0.0194 C   0  0  0  0  0  0  0  0  0  0  0  0
    7.5696    4.4039   -0.6939 C   0  0  0  0  0  0  0  0  0  0  0  0
    8.9023    4.5374   -0.9741 C   0  0  0  0  0  0  0  0  0  0  0  0
    9.6194    3.4651   -1.7334 C   0  0  0  0  0  0  0  0  0  0  0  0
    9.6126    5.6943   -0.5407 C   0  0  0  0  0  0  0  0  0  0  0  0
   11.0716    5.8290   -0.8491 C   0  0  0  0  0  0  0  0  0  0  0  0
    8.9606    6.6726    0.1578 C   0  0  0  0  0  0  0  0  0  0  0  0
    7.1773    8.7150    1.7295 C   0  0  0  0  0  0  0  0  0  0  0  0
    6.3716    9.5255    2.4174 C   0  0  0  0  0  0  0  0  0  0  0  0
   -0.0424    3.7018    7.9994 H   0  0  0  0  0  0  0  0  0  0  0  0
    1.8063    3.3871    6.2129 H   0  0  0  0  0  0  0  0  0  0  0  0
    3.5748    0.2342    3.3747 H   0  0  0  0  0  0  0  0  0  0  0  0
    5.7179    1.2696    2.9493 H   0  0  0  0  0  0  0  0  0  0  0  0
    7.7514    2.0362    3.3477 H   0  0  0  0  0  0  0  0  0  0  0  0
    7.4021    2.5180    1.6583 H   0  0  0  0  0  0  0  0  0  0  0  0
    9.1184    4.3307    1.8558 H   0  0  0  0  0  0  0  0  0  0  0  0
    9.8392    2.7446    2.1572 H   0  0  0  0  0  0  0  0  0  0  0  0
    9.4661    3.8216    3.5099 H   0  0  0  0  0  0  0  0  0  0  0  0
    1.8408    4.0892    4.0716 H   0  0  0  0  0  0  0  0  0  0  0  0
   -2.0469   -0.6077    7.2615 H   0  0  0  0  0  0  0  0  0  0  0  0
   -4.1326   -1.7417    7.8718 H   0  0  0  0  0  0  0  0  0  0  0  0
   -6.9946   -3.3331    4.2382 H   0  0  0  0  0  0  0  0  0  0  0  0
   -7.5807   -4.3641    5.5552 H   0  0  0  0  0  0  0  0  0  0  0  0
   -5.2582   -5.2202    5.9243 H   0  0  0  0  0  0  0  0  0  0  0  0
   -4.6704   -4.2140    4.5968 H   0  0  0  0  0  0  0  0  0  0  0  0
   -5.7903   -5.5372    4.2661 H   0  0  0  0  0  0  0  0  0  0  0  0
   -3.4098   -0.3505    3.2104 H   0  0  0  0  0  0  0  0  0  0  0  0
   -1.7201   -1.9026    2.9574 H   0  0  0  0  0  0  0  0  0  0  0  0
    2.8109   -2.2495    0.9150 H   0  0  0  0  0  0  0  0  0  0  0  0
    5.1739   -3.3545   -1.3531 H   0  0  0  0  0  0  0  0  0  0  0  0
    4.9747   -2.7400    0.2899 H   0  0  0  0  0  0  0  0  0  0  0  0
    5.2588   -4.4625    0.0115 H   0  0  0  0  0  0  0  0  0  0  0  0
    4.4273   -6.1722   -1.4858 H   0  0  0  0  0  0  0  0  0  0  0  0
    3.1699   -6.3919   -2.7066 H   0  0  0  0  0  0  0  0  0  0  0  0
    4.2797   -5.0205   -2.8063 H   0  0  0  0  0  0  0  0  0  0  0  0
    1.0398   -5.8708   -1.9640 H   0  0  0  0  0  0  0  0  0  0  0  0
   -1.2002   -6.0821   -1.7999 H   0  0  0  0  0  0  0  0  0  0  0  0
   -3.4205   -4.9192   -0.0482 H   0  0  0  0  0  0  0  0  0  0  0  0
   -1.8904   -7.5284   -2.9578 H   0  0  0  0  0  0  0  0  0  0  0  0
   -1.9618  -10.0999   -5.2676 H   0  0  0  0  0  0  0  0  0  0  0  0
   -1.8235   -8.5924   -6.1672 H   0  0  0  0  0  0  0  0  0  0  0  0
   -0.9662   -8.7832   -4.6373 H   0  0  0  0  0  0  0  0  0  0  0  0
   -4.1420  -10.5093   -6.0960 H   0  0  0  0  0  0  0  0  0  0  0  0
   -4.0494   -9.0093   -7.0113 H   0  0  0  0  0  0  0  0  0  0  0  0
   -5.6164   -9.5982   -6.4405 H   0  0  0  0  0  0  0  0  0  0  0  0
   -6.4709   -8.4929   -4.5706 H   0  0  0  0  0  0  0  0  0  0  0  0
   -8.2829   -7.8111   -2.6350 H   0  0  0  0  0  0  0  0  0  0  0  0
   -9.4622   -5.6589   -2.7246 H   0  0  0  0  0  0  0  0  0  0  0  0
   -6.1036   -5.0284   -4.0472 H   0  0  0  0  0  0  0  0  0  0  0  0
   -1.9071   -4.0711   -3.1580 H   0  0  0  0  0  0  0  0  0  0  0  0
   -0.8338   -5.4102   -4.9174 H   0  0  0  0  0  0  0  0  0  0  0  0
   -1.1658   -5.6547   -9.7385 H   0  0  0  0  0  0  0  0  0  0  0  0
   -2.6164   -4.7960   -9.1871 H   0  0  0  0  0  0  0  0  0  0  0  0
    0.2656   -4.1534   -8.3488 H   0  0  0  0  0  0  0  0  0  0  0  0
   -0.6964   -3.2033   -9.4891 H   0  0  0  0  0  0  0  0  0  0  0  0
   -1.1675   -3.2858   -7.7874 H   0  0  0  0  0  0  0  0  0  0  0  0
   -5.3005   -3.5034   -5.7089 H   0  0  0  0  0  0  0  0  0  0  0  0
   -8.2866   -0.3760   -1.5217 H   0  0  0  0  0  0  0  0  0  0  0  0
   -9.5641    0.9047    0.1362 H   0  0  0  0  0  0  0  0  0  0  0  0
   -7.5489    1.5606    4.5804 H   0  0  0  0  0  0  0  0  0  0  0  0
   -9.2566    1.7882    4.9982 H   0  0  0  0  0  0  0  0  0  0  0  0
   -9.7736   -0.5177    4.1810 H   0  0  0  0  0  0  0  0  0  0  0  0
   -8.5453   -0.5656    5.4562 H   0  0  0  0  0  0  0  0  0  0  0  0
   -8.0740   -0.7598    3.7674 H   0  0  0  0  0  0  0  0  0  0  0  0
   -4.9906   -0.5372    1.2079 H   0  0  0  0  0  0  0  0  0  0  0  0
   -3.9020    0.6205   -0.2967 H   0  0  0  0  0  0  0  0  0  0  0  0
    0.3592   -0.2125   -2.2880 H   0  0  0  0  0  0  0  0  0  0  0  0
    2.2286   -1.0901   -1.2492 H   0  0  0  0  0  0  0  0  0  0  0  0
    3.2099   -2.6359   -2.8716 H   0  0  0  0  0  0  0  0  0  0  0  0
    5.1923   -0.7218   -6.8094 H   0  0  0  0  0  0  0  0  0  0  0  0
    5.1115   -2.4025   -7.3698 H   0  0  0  0  0  0  0  0  0  0  0  0
    2.6638   -2.4630   -6.8493 H   0  0  0  0  0  0  0  0  0  0  0  0
    2.7307   -0.7838   -6.3080 H   0  0  0  0  0  0  0  0  0  0  0  0
    3.0254   -1.1733   -8.0056 H   0  0  0  0  0  0  0  0  0  0  0  0
    4.0338    2.1917   -3.3320 H   0  0  0  0  0  0  0  0  0  0  0  0
    0.9614    6.0529    0.6535 H   0  0  0  0  0  0  0  0  0  0  0  0
   -0.0828    7.4993    2.2875 H   0  0  0  0  0  0  0  0  0  0  0  0
   -2.0436    9.1299    4.9572 H   0  0  0  0  0  0  0  0  0  0  0  0
   -0.7032    8.8127    3.8478 H   0  0  0  0  0  0  0  0  0  0  0  0
   -2.4083    8.1547    2.0727 H   0  0  0  0  0  0  0  0  0  0  0  0
   -3.6971    8.5312    3.2154 H   0  0  0  0  0  0  0  0  0  0  0  0
   -2.6462    9.8204    2.6161 H   0  0  0  0  0  0  0  0  0  0  0  0
   -0.6544    2.6210    2.6468 H   0  0  0  0  0  0  0  0  0  0  0  0
    2.9335    5.3371    1.3923 H   0  0  0  0  0  0  0  0  0  0  0  0
    7.0437    3.5233   -1.0279 H   0  0  0  0  0  0  0  0  0  0  0  0
   10.4385    3.0559   -1.1426 H   0  0  0  0  0  0  0  0  0  0  0  0
   10.0433    3.8645   -2.6539 H   0  0  0  0  0  0  0  0  0  0  0  0
    8.9386    2.6574   -1.9896 H   0  0  0  0  0  0  0  0  0  0  0  0
   11.6349    5.0031   -0.4155 H   0  0  0  0  0  0  0  0  0  0  0  0
   11.2394    5.8158   -1.9254 H   0  0  0  0  0  0  0  0  0  0  0  0
   11.4637    6.7611   -0.4500 H   0  0  0  0  0  0  0  0  0  0  0  0
    9.5012    7.5471    0.4880 H   0  0  0  0  0  0  0  0  0  0  0  0
    8.2122    8.9908    1.5764 H   0  0  0  0  0  0  0  0  0  0  0  0
    6.7229   10.4554    2.8271 H   0  0  0  0  0  0  0  0  0  0  0  0
    5.3392    9.2729    2.5929 H   0  0  0  0  0  0  0  0  0  0  0  0
  1  2  2  0  0  0  0
  2  3  1  0  0  0  0
  3  4  2  0  0  0  0
  4  5  1  0  0  0  0
  5  6  2  0  0  0  0
  6  7  1  0  0  0  0
  7  8  2  0  0  0  0
  8  9  1  0  0  0  0
  9 10  1  0  0  0  0
 10 11  1  0  0  0  0
  8 12  1  0  0  0  0
 12 13  1  0  0  0  0
 12 14  2  0  0  0  0
  4 15  1  0  0  0  0
 15 16  2  0  0  0  0
 16 17  1  0  0  0  0
 17 18  1  0  0  0  0
 18 19  2  0  0  0  0
 19 20  1  0  0  0  0
 20 21  2  0  0  0  0
 21 22  1  0  0  0  0
 22 23  1  0  0  0  0
 23 24  1  0  0  0  0
 21 25  1  0  0  0  0
 25 26  2  0  0  0  0
 25 27  1  0  0  0  0
 17 28  2  0  0  0  0
 28 29  1  0  0  0  0
 16 30  1  0  0  0  0
 30 31  2  0  0  0  0
 31 32  1  0  0  0  0
 31 33  1  0  0  0  0
 33 34  1  0  0  0  0
 34 35  1  0  0  0  0
 35 36  2  0  0  0  0
 36 37  1  0  0  0  0
 37 38  1  0  0  0  0
 38 39  2  0  0  0  0
 39 40  1  0  0  0  0
 39 41  1  0  0  0  0
 41 42  1  0  0  0  0
 41 43  2  0  0  0  0
 35 44  1  0  0  0  0
 44 45  2  0  0  0  0
 45 46  1  0  0  0  0
 46 47  1  0  0  0  0
 47 48  1  0  0  0  0
 48 49  2  0  0  0  0
 49 50  1  0  0  0  0
 50 51  1  0  0  0  0
 51 52  2  0  0  0  0
 52 53  1  0  0  0  0
 52 54  1  0  0  0  0
 54 55  1  0  0  0  0
 54 56  2  0  0  0  0
 48 57  1  0  0  0  0
 57 58  2  0  0  0  0
 58 59  1  0  0  0  0
 59 60  2  0  0  0  0
 60 61  1  0  0  0  0
 61 62  2  0  0  0  0
 62 63  1  0  0  0  0
 63 64  2  0  0  0  0
 64 65  1  0  0  0  0
 65 66  2  0  0  0  0
 66 67  1  0  0  0  0
 67 68  1  0  0  0  0
 68 69  1  0  0  0  0
 66 70  1  0  0  0  0
 70 71  1  0  0  0  0
 70 72  2  0  0  0  0
 62 73  1  0  0  0  0
 73 74  2  0  0  0  0
 74 75  1  0  0  0  0
 75 76  1  0  0  0  0
 76 77  2  0  0  0  0
 77 78  1  0  0  0  0
 78 79  2  0  0  0  0
 79 80  1  0  0  0  0
 80 81  1  0  0  0  0
 81 82  1  0  0  0  0
 79 83  1  0  0  0  0
 83 84  2  0  0  0  0
 83 85  1  0  0  0  0
 75 86  2  0  0  0  0
 86 87  1  0  0  0  0
 74 88  1  0  0  0  0
 88 89  2  0  0  0  0
 89 90  1  0  0  0  0
 89 91  1  0  0  0  0
 91 92  2  0  0  0  0
 92 93  1  0  0  0  0
 93 94  2  0  0  0  0
 94 95  1  0  0  0  0
 95 96  2  0  0  0  0
 96 97  1  0  0  0  0
 97 98  2  0  0  0  0
 98 99  1  0  0  0  0
 99100  1  0  0  0  0
100101  1  0  0  0  0
 98102  1  0  0  0  0
102103  1  0  0  0  0
102104  2  0  0  0  0
 94105  1  0  0  0  0
105106  2  0  0  0  0
106107  1  0  0  0  0
107108  1  0  0  0  0
108109  2  0  0  0  0
109110  1  0  0  0  0
110111  2  0  0  0  0
111112  1  0  0  0  0
112113  1  0  0  0  0
113114  1  0  0  0  0
111115  1  0  0  0  0
115116  2  0  0  0  0
115117  1  0  0  0  0
107118  2  0  0  0  0
118119  1  0  0  0  0
106120  1  0  0  0  0
120121  2  0  0  0  0
121122  1  0  0  0  0
121123  1  0  0  0  0
123124  1  0  0  0  0
124125  1  0  0  0  0
125126  2  0  0  0  0
126127  1  0  0  0  0
127128  1  0  0  0  0
128129  2  0  0  0  0
129130  1  0  0  0  0
129131  1  0  0  0  0
131132  1  0  0  0  0
131133  2  0  0  0  0
125134  1  0  0  0  0
134135  2  0  0  0  0
 29  1  1  0  0  0  0
 37 33  2  0  0  0  0
 50 46  2  0  0  0  0
 87 59  1  0  0  0  0
119 91  1  0  0  0  0
127123  2  0  0  0  0
 28  3  1  0  0  0  0
 43 36  1  0  0  0  0
 56 49  1  0  0  0  0
 86 61  1  0  0  0  0
118 93  1  0  0  0  0
133126  1  0  0  0  0
 14  5  1  0  0  0  0
 32 15  1  0  0  0  0
 72 63  1  0  0  0  0
 90 73  1  0  0  0  0
104 95  1  0  0  0  0
122105  1  0  0  0  0
 26 18  1  0  0  0  0
 84 76  1  0  0  0  0
116108  1  0  0  0  0
  1136  1  0  0  0  0
  2137  1  0  0  0  0
  6138  1  0  0  0  0
  7139  1  0  0  0  0
 10140  1  0  0  0  0
 10141  1  0  0  0  0
 11142  1  0  0  0  0
 11143  1  0  0  0  0
 11144  1  0  0  0  0
 14145  1  0  0  0  0
 19146  1  0  0  0  0
 20147  1  0  0  0  0
 23148  1  0  0  0  0
 23149  1  0  0  0  0
 24150  1  0  0  0  0
 24151  1  0  0  0  0
 24152  1  0  0  0  0
 26153  1  0  0  0  0
 30154  1  0  0  0  0
 38155  1  0  0  0  0
 40156  1  0  0  0  0
 40157  1  0  0  0  0
 40158  1  0  0  0  0
 42159  1  0  0  0  0
 42160  1  0  0  0  0
 42161  1  0  0  0  0
 43162  1  0  0  0  0
 44163  1  0  0  0  0
 45164  1  0  0  0  0
 51165  1  0  0  0  0
 53166  1  0  0  0  0
 53167  1  0  0  0  0
 53168  1  0  0  0  0
 55169  1  0  0  0  0
 55170  1  0  0  0  0
 55171  1  0  0  0  0
 56172  1  0  0  0  0
 57173  1  0  0  0  0
 58174  1  0  0  0  0
 60175  1  0  0  0  0
 64176  1  0  0  0  0
 65177  1  0  0  0  0
 68178  1  0  0  0  0
 68179  1  0  0  0  0
 69180  1  0  0  0  0
 69181  1  0  0  0  0
 69182  1  0  0  0  0
 72183  1  0  0  0  0
 77184  1  0  0  0  0
 78185  1  0  0  0  0
 81186  1  0  0  0  0
 81187  1  0  0  0  0
 82188  1  0  0  0  0
 82189  1  0  0  0  0
 82190  1  0  0  0  0
 84191  1  0  0  0  0
 88192  1  0  0  0  0
 92193  1  0  0  0  0
 96194  1  0  0  0  0
 97195  1  0  0  0  0
100196  1  0  0  0  0
100197  1  0  0  0  0
101198  1  0  0  0  0
101199  1  0  0  0  0
101200  1  0  0  0  0
104201  1  0  0  0  0
109202  1  0  0  0  0
110203  1  0  0  0  0
113204  1  0  0  0  0
113205  1  0  0  0  0
114206  1  0  0  0  0
114207  1  0  0  0  0
114208  1  0  0  0  0
116209  1  0  0  0  0
120210  1  0  0  0  0
128211  1  0  0  0  0
130212  1  0  0  0  0
130213  1  0  0  0  0
130214  1  0  0  0  0
132215  1  0  0  0  0
132216  1  0  0  0  0
132217  1  0  0  0  0
133218  1  0  0  0  0
134219  1  0  0  0  0
135220  1  0  0  0  0
135221  1  0  0  0  0
M  END
