
  xtb     03052202523D
 energy: -173.928087104705 gnorm: 0.000578983614 xtb: 6.4.1 (unknown)
100107  0     0  0            999 V2000
    1.7036    6.2327    1.2086 C   0  0  0  0  0  0  0  0  0  0  0  0
    2.7871    5.5257    0.8990 C   0  0  0  0  0  0  0  0  0  0  0  0
    2.8109    4.9294   -0.4195 C   0  0  0  0  0  0  0  0  0  0  0  0
    1.7056    5.1038   -1.1610 C   0  0  0  0  0  0  0  0  0  0  0  0
    0.5806    6.1457   -0.1885 S   0  0  0  0  0  6  0  0  0  0  0  0
   -0.6459    5.4964    0.1911 O   0  0  0  0  0  0  0  0  0  0  0  0
    0.4396    7.4253   -0.8401 O   0  0  0  0  0  0  0  0  0  0  0  0
    1.4147    4.8547   -2.5246 C   0  0  0  0  0  0  0  0  0  0  0  0
    1.6712    3.7255   -3.2352 C   0  0  0  0  0  0  0  0  0  0  0  0
    1.9777    2.4565   -2.7102 C   0  0  0  0  0  0  0  0  0  0  0  0
    2.1306    1.2861   -3.4024 C   0  0  0  0  0  0  0  0  0  0  0  0
    2.0254    0.0784   -2.6811 C   0  0  0  0  0  0  0  0  0  0  0  0
    1.7124    0.2125   -1.3545 C   0  0  0  0  0  0  0  0  0  0  0  0
    1.7715    1.9772   -0.9773 S   0  0  0  0  0  6  0  0  0  0  0  0
    0.5472    2.5141   -0.4464 O   0  0  0  0  0  0  0  0  0  0  0  0
    2.9583    2.2095   -0.1819 O   0  0  0  0  0  0  0  0  0  0  0  0
    1.3153   -0.6572   -0.3516 C   0  0  0  0  0  0  0  0  0  0  0  0
    1.0590   -2.0072   -0.4753 C   0  0  0  0  0  0  0  0  0  0  0  0
    0.2813   -2.6730    0.4739 C   0  0  0  0  0  0  0  0  0  0  0  0
   -0.5731   -1.7213    1.6407 S   0  0  0  0  0  0  0  0  0  0  0  0
   -1.3881   -3.0750    2.3194 C   0  0  0  0  0  0  0  0  0  0  0  0
   -0.9774   -4.2752    1.6702 C   0  0  0  0  0  0  0  0  0  0  0  0
   -0.0554   -4.0413    0.6137 C   0  0  0  0  0  0  0  0  0  0  0  0
    0.4137   -5.1149   -0.1508 C   0  0  0  0  0  0  0  0  0  0  0  0
   -0.0109   -6.3969    0.1097 C   0  0  0  0  0  0  0  0  0  0  0  0
    0.4894   -7.5355   -0.7245 C   0  0  0  0  0  0  0  0  0  0  0  0
   -0.9185   -6.6376    1.1704 C   0  0  0  0  0  0  0  0  0  0  0  0
   -1.3635   -8.0364    1.4686 C   0  0  0  0  0  0  0  0  0  0  0  0
   -1.3898   -5.5888    1.9268 C   0  0  0  0  0  0  0  0  0  0  0  0
   -2.4498   -2.9449    3.2406 C   0  0  0  0  0  0  0  0  0  0  0  0
   -3.1443   -1.8245    3.6160 C   0  0  0  0  0  0  0  0  0  0  0  0
   -2.8980   -0.4604    3.3101 C   0  0  0  0  0  0  0  0  0  0  0  0
   -4.2374    0.5307    2.7889 S   0  0  0  0  0  0  0  0  0  0  0  0
   -3.2000    1.8052    2.2442 C   0  0  0  0  0  0  0  0  0  0  0  0
   -1.8707    1.5480    2.6170 C   0  0  0  0  0  0  0  0  0  0  0  0
   -1.7154    0.2927    3.2721 C   0  0  0  0  0  0  0  0  0  0  0  0
   -0.4656   -0.0439    3.8229 C   0  0  0  0  0  0  0  0  0  0  0  0
    0.6092    0.7954    3.6667 C   0  0  0  0  0  0  0  0  0  0  0  0
    1.9481    0.4026    4.2089 C   0  0  0  0  0  0  0  0  0  0  0  0
    0.4573    2.0347    2.9855 C   0  0  0  0  0  0  0  0  0  0  0  0
    1.6271    2.9483    2.8157 C   0  0  0  0  0  0  0  0  0  0  0  0
   -0.7648    2.4032    2.4816 C   0  0  0  0  0  0  0  0  0  0  0  0
   -3.7054    2.9505    1.5804 C   0  0  0  0  0  0  0  0  0  0  0  0
   -3.1595    3.5281    0.4679 C   0  0  0  0  0  0  0  0  0  0  0  0
   -2.3376    2.8727   -0.4613 C   0  0  0  0  0  0  0  0  0  0  0  0
   -1.8871    3.3198   -1.6703 C   0  0  0  0  0  0  0  0  0  0  0  0
   -1.4061    2.3511   -2.5847 C   0  0  0  0  0  0  0  0  0  0  0  0
   -1.5369    1.0476   -2.2074 C   0  0  0  0  0  0  0  0  0  0  0  0
   -2.1784    1.0754   -0.5242 S   0  0  0  0  0  6  0  0  0  0  0  0
   -1.2026    0.4549    0.3316 O   0  0  0  0  0  0  0  0  0  0  0  0
   -3.5049    0.5060   -0.4299 O   0  0  0  0  0  0  0  0  0  0  0  0
   -1.2128   -0.1786   -2.8019 C   0  0  0  0  0  0  0  0  0  0  0  0
   -1.5740   -1.3505   -2.1950 C   0  0  0  0  0  0  0  0  0  0  0  0
   -1.3037   -2.6344   -2.6807 C   0  0  0  0  0  0  0  0  0  0  0  0
   -1.7564   -3.8364   -2.2341 C   0  0  0  0  0  0  0  0  0  0  0  0
   -1.3248   -4.9870   -2.9572 C   0  0  0  0  0  0  0  0  0  0  0  0
   -0.5048   -4.7698   -4.0088 C   0  0  0  0  0  0  0  0  0  0  0  0
   -0.1902   -2.9883   -4.0618 S   0  0  0  0  0  6  0  0  0  0  0  0
   -0.6098   -2.3688   -5.2910 O   0  0  0  0  0  0  0  0  0  0  0  0
    1.1793   -2.7472   -3.6651 O   0  0  0  0  0  0  0  0  0  0  0  0
    0.1053   -5.6770   -4.9191 C   0  0  0  0  0  0  0  0  0  0  0  0
    0.9102   -5.2749   -5.9054 C   0  0  0  0  0  0  0  0  0  0  0  0
    1.4649    6.7521    2.1131 H   0  0  0  0  0  0  0  0  0  0  0  0
    3.6348    5.3906    1.5528 H   0  0  0  0  0  0  0  0  0  0  0  0
    3.6914    4.4137   -0.7627 H   0  0  0  0  0  0  0  0  0  0  0  0
    0.9201    5.6809   -3.0221 H   0  0  0  0  0  0  0  0  0  0  0  0
    1.5068    3.7568   -4.3075 H   0  0  0  0  0  0  0  0  0  0  0  0
    2.2881    1.2668   -4.4707 H   0  0  0  0  0  0  0  0  0  0  0  0
    2.1133   -0.8789   -3.1694 H   0  0  0  0  0  0  0  0  0  0  0  0
    1.0614   -0.1682    0.5804 H   0  0  0  0  0  0  0  0  0  0  0  0
    1.3945   -2.5396   -1.3548 H   0  0  0  0  0  0  0  0  0  0  0  0
    1.1080   -4.9237   -0.9556 H   0  0  0  0  0  0  0  0  0  0  0  0
   -0.3399   -8.0904   -1.1615 H   0  0  0  0  0  0  0  0  0  0  0  0
    1.1245   -7.1691   -1.5268 H   0  0  0  0  0  0  0  0  0  0  0  0
    1.0655   -8.2323   -0.1162 H   0  0  0  0  0  0  0  0  0  0  0  0
   -2.0382   -8.0523    2.3204 H   0  0  0  0  0  0  0  0  0  0  0  0
   -1.8796   -8.4693    0.6121 H   0  0  0  0  0  0  0  0  0  0  0  0
   -0.5073   -8.6713    1.6933 H   0  0  0  0  0  0  0  0  0  0  0  0
   -2.0815   -5.7845    2.7326 H   0  0  0  0  0  0  0  0  0  0  0  0
   -2.8628   -3.8852    3.5840 H   0  0  0  0  0  0  0  0  0  0  0  0
   -4.0966   -2.0066    4.1016 H   0  0  0  0  0  0  0  0  0  0  0  0
   -0.3668   -0.9704    4.3700 H   0  0  0  0  0  0  0  0  0  0  0  0
    1.9186   -0.6084    4.6075 H   0  0  0  0  0  0  0  0  0  0  0  0
    2.6997    0.4502    3.4227 H   0  0  0  0  0  0  0  0  0  0  0  0
    2.2564    1.0785    5.0065 H   0  0  0  0  0  0  0  0  0  0  0  0
    2.2693    2.5826    2.0131 H   0  0  0  0  0  0  0  0  0  0  0  0
    1.2821    3.9385    2.5328 H   0  0  0  0  0  0  0  0  0  0  0  0
    2.2181    3.0188    3.7271 H   0  0  0  0  0  0  0  0  0  0  0  0
   -0.8777    3.3439    1.9636 H   0  0  0  0  0  0  0  0  0  0  0  0
   -4.6107    3.3876    1.9868 H   0  0  0  0  0  0  0  0  0  0  0  0
   -3.4905    4.5198    0.1859 H   0  0  0  0  0  0  0  0  0  0  0  0
   -1.8816    4.3692   -1.9170 H   0  0  0  0  0  0  0  0  0  0  0  0
   -0.9997    2.6489   -3.5393 H   0  0  0  0  0  0  0  0  0  0  0  0
   -0.7109   -0.2019   -3.7612 H   0  0  0  0  0  0  0  0  0  0  0  0
   -2.1452   -1.2922   -1.2771 H   0  0  0  0  0  0  0  0  0  0  0  0
   -2.4245   -3.9341   -1.3935 H   0  0  0  0  0  0  0  0  0  0  0  0
   -1.6585   -5.9699   -2.6627 H   0  0  0  0  0  0  0  0  0  0  0  0
   -0.1164   -6.7285   -4.7741 H   0  0  0  0  0  0  0  0  0  0  0  0
    1.1237   -4.2298   -6.0471 H   0  0  0  0  0  0  0  0  0  0  0  0
    1.3654   -5.9730   -6.5857 H   0  0  0  0  0  0  0  0  0  0  0  0
  1  2  2  0  0  0  0
  2  3  1  0  0  0  0
  3  4  2  0  0  0  0
  4  5  1  0  0  0  0
  5  6  2  0  0  0  0
  5  7  2  0  0  0  0
  4  8  1  0  0  0  0
  8  9  2  0  0  0  0
  9 10  1  0  0  0  0
 10 11  2  0  0  0  0
 11 12  1  0  0  0  0
 12 13  2  0  0  0  0
 13 14  1  0  0  0  0
 14 15  2  0  0  0  0
 14 16  2  0  0  0  0
 13 17  1  0  0  0  0
 17 18  2  0  0  0  0
 18 19  1  0  0  0  0
 19 20  1  0  0  0  0
 20 21  1  0  0  0  0
 21 22  2  0  0  0  0
 22 23  1  0  0  0  0
 23 24  1  0  0  0  0
 24 25  2  0  0  0  0
 25 26  1  0  0  0  0
 25 27  1  0  0  0  0
 27 28  1  0  0  0  0
 27 29  2  0  0  0  0
 21 30  1  0  0  0  0
 30 31  2  0  0  0  0
 31 32  1  0  0  0  0
 32 33  1  0  0  0  0
 33 34  1  0  0  0  0
 34 35  2  0  0  0  0
 35 36  1  0  0  0  0
 36 37  1  0  0  0  0
 37 38  2  0  0  0  0
 38 39  1  0  0  0  0
 38 40  1  0  0  0  0
 40 41  1  0  0  0  0
 40 42  2  0  0  0  0
 34 43  1  0  0  0  0
 43 44  2  0  0  0  0
 44 45  1  0  0  0  0
 45 46  2  0  0  0  0
 46 47  1  0  0  0  0
 47 48  2  0  0  0  0
 48 49  1  0  0  0  0
 49 50  2  0  0  0  0
 49 51  2  0  0  0  0
 48 52  1  0  0  0  0
 52 53  2  0  0  0  0
 53 54  1  0  0  0  0
 54 55  2  0  0  0  0
 55 56  1  0  0  0  0
 56 57  2  0  0  0  0
 57 58  1  0  0  0  0
 58 59  2  0  0  0  0
 58 60  2  0  0  0  0
 57 61  1  0  0  0  0
 61 62  2  0  0  0  0
  5  1  1  0  0  0  0
 14 10  1  0  0  0  0
 23 19  2  0  0  0  0
 36 32  2  0  0  0  0
 49 45  1  0  0  0  0
 58 54  1  0  0  0  0
 29 22  1  0  0  0  0
 42 35  1  0  0  0  0
  1 63  1  0  0  0  0
  2 64  1  0  0  0  0
  3 65  1  0  0  0  0
  8 66  1  0  0  0  0
  9 67  1  0  0  0  0
 11 68  1  0  0  0  0
 12 69  1  0  0  0  0
 17 70  1  0  0  0  0
 18 71  1  0  0  0  0
 24 72  1  0  0  0  0
 26 73  1  0  0  0  0
 26 74  1  0  0  0  0
 26 75  1  0  0  0  0
 28 76  1  0  0  0  0
 28 77  1  0  0  0  0
 28 78  1  0  0  0  0
 29 79  1  0  0  0  0
 30 80  1  0  0  0  0
 31 81  1  0  0  0  0
 37 82  1  0  0  0  0
 39 83  1  0  0  0  0
 39 84  1  0  0  0  0
 39 85  1  0  0  0  0
 41 86  1  0  0  0  0
 41 87  1  0  0  0  0
 41 88  1  0  0  0  0
 42 89  1  0  0  0  0
 43 90  1  0  0  0  0
 44 91  1  0  0  0  0
 46 92  1  0  0  0  0
 47 93  1  0  0  0  0
 52 94  1  0  0  0  0
 53 95  1  0  0  0  0
 55 96  1  0  0  0  0
 56 97  1  0  0  0  0
 61 98  1  0  0  0  0
 62 99  1  0  0  0  0
 62100  1  0  0  0  0
M  END
