144

C          7.81250        2.24140        0.65940
C          8.23580        3.53140        0.70640
S          7.23360        4.57890        1.66230
C          6.19220        3.25190        2.02600
C          6.63560        2.06840        1.41800
N          5.79730        1.03310        1.74210
C          5.91160       -0.30630        1.22530
C          5.15450       -0.47420       -0.09170
C          4.80200        1.55180        2.53230
C          5.02950        2.92230        2.73350
S          3.82550        3.63270        3.74590
C          3.05150        2.09570        3.90210
C          3.65670        1.06820        3.22760
C          3.16900       -0.29720        3.17960
C          2.50000       -0.95220        4.13320
C          2.21570       -0.50480        5.49050
C          3.14060        0.05800        6.32500
S          2.58690        0.35820        7.93730
C          1.03960       -0.28490        7.52040
C          0.98650       -0.69760        6.18220
N         -0.26110       -1.19900        5.90190
C         -0.73260       -1.59620        4.59930
C         -0.79890       -0.40570        3.64560
C         -1.00230       -1.11540        7.05370
C         -0.21290       -0.56680        8.07730
S         -1.03230       -0.54210        9.59530
C         -2.39820       -1.31070        8.85770
C         -2.28430       -1.53520        7.51160
C         -3.34790       -2.18920        6.75510
C         -4.01490       -1.76930        5.66460
C         -4.00230       -0.52880        4.94980
S         -4.61290       -0.59260        3.32050
C         -4.48540        1.11780        3.08380
C         -3.96980        1.71690        4.24080
C         -3.69670        0.79140        5.29630
C         -3.22640        1.30010        6.52390
C         -2.95640        2.63110        6.68360
C         -2.42220        3.13150        7.98930
C         -3.17880        3.54200        5.61060
C         -2.86640        4.99470        5.79020
C         -3.68800        3.08390        4.42620
C         -5.05760        1.78430        1.96650
C         -5.23590        1.32450        0.70030
C         -4.57590        0.24710        0.05840
S         -3.00860       -0.29650        0.55860
C         -2.80780       -1.32690       -0.82350
C         -3.94290       -1.26980       -1.64000
C         -4.93490       -0.36890       -1.14960
C         -6.13040       -0.20500       -1.87330
C         -6.34060       -0.88330       -3.04340
C         -7.61900       -0.70050       -3.80190
C         -5.34320       -1.76960       -3.54280
C         -5.57750       -2.50150       -4.82890
C         -4.17750       -1.95110       -2.85000
C         -1.61110       -2.06080       -1.02810
C         -0.49840       -1.86640       -0.29010
C          0.78020       -2.52600       -0.33230
C          1.51880       -2.51980        0.82980
S          3.01850       -3.36290        0.77690
C          2.72240       -3.73260       -0.87940
C          1.50180       -3.22310       -1.35410
N          1.38500       -3.53640       -2.69030
C          0.35320       -3.12640       -3.60810
C          0.28160       -1.60970       -3.75600
C          2.50480       -4.24560       -3.05250
C          3.34590       -4.39080       -1.94110
S          4.74680       -5.33480       -2.28700
C          4.17750       -5.55370       -3.90780
C          3.00310       -4.92110       -4.20420
C          2.42040       -5.02100       -5.54580
C          2.21520       -4.02310       -6.41140
C          2.54860       -2.62390       -6.21780
C          3.54080       -2.18410       -5.37890
S          3.78240       -0.47500       -5.35180
C          2.50860       -0.28610       -6.50060
C          1.94290       -1.51190       -6.87810
N          0.93730       -1.28620       -7.78880
C          0.13530       -2.28830       -8.44530
C         -0.90040       -2.90210       -7.50400
C          0.85740        0.07270       -7.98830
C          1.83400        0.71260       -7.20970
S          1.87920        2.41540       -7.47230
C          0.61530        2.25350       -8.63830
C          0.13610        0.98310       -8.81370
C         -0.97760        0.73630       -9.72720
C         -2.04970        0.00570       -9.45640
H          8.31810        1.46780        0.11030
H          9.09670        3.95410        0.22810
H          5.53260       -1.00630        1.97460
H          6.97360       -0.51490        1.06880
H          4.09840       -0.25010        0.04180
H          5.55370        0.20120       -0.84490
H          5.25190       -1.49610       -0.44830
H          2.15280        2.03920        4.48310
H          3.35530       -0.81580        2.24920
H          2.15750       -1.95690        3.91590
H          4.15620        0.29900        6.08180
H         -0.06990       -2.36810        4.19430
H         -1.72340       -2.03350        4.72390
H          0.19830       -0.02900        3.42800
H         -1.38020        0.39810        4.09060
H         -1.27650       -0.70430        2.71680
H         -3.25680       -1.51830        9.46610
H         -3.63540       -3.15330        7.15870
H         -4.69750       -2.48950        5.22430
H         -3.08350        0.62530        7.34880
H         -3.09050        3.87520        8.42220
H         -2.30940        2.31320        8.69610
H         -1.44900        3.60100        7.84950
H         -3.44940        5.41510        6.60910
H         -1.81260        5.13310        6.02940
H         -3.09090        5.55110        4.88360
H         -3.87120        3.77040        3.61250
H         -5.46060        2.76400        2.19580
H         -5.89840        1.89080        0.05690
H         -6.88920        0.46260       -1.49210
H         -8.15080       -1.64730       -3.89280
H         -8.26660        0.01040       -3.29510
H         -7.42220       -0.33280       -4.80850
H         -6.47180       -3.12000       -4.76260
H         -5.72080       -1.79970       -5.65020
H         -4.73160       -3.14270       -5.06570
H         -3.42540       -2.62670       -3.23140
H         -1.64100       -2.79330       -1.81860
H         -0.57090       -1.14220        0.51340
H          1.21520       -2.06430        1.75130
H         -0.61160       -3.52520       -3.27630
H          0.58760       -3.58490       -4.56900
H         -0.00830       -1.14280       -2.81910
H         -0.44920       -1.34590       -4.51590
H          1.24970       -1.21690       -4.05200
H          4.77650       -6.13080       -4.58450
H          2.18440       -6.03090       -5.85950
H          1.77240       -4.27030       -7.36590
H          4.19430       -2.79200       -4.78750
H          0.79210       -3.06930       -8.84130
H         -0.36310       -1.81090       -9.29050
H         -1.52690       -2.12560       -7.07100
H         -0.41460       -3.43760       -6.69270
H         -1.53220       -3.59620       -8.05190
H          0.25360        3.13870       -9.12390
H         -0.91410        1.26730      -10.66910
H         -2.84880       -0.10530      -10.16900
H         -2.18380       -0.48600       -8.50820
