
  xtb     03042214543D
 energy: -365.193923970493 gnorm: 0.000330248970 xtb: 6.4.1 (unknown)
221241  0     0  0            999 V2000
    2.9886   -6.5016   10.1365 C   0  0  0  0  0  0  0  0  0  0  0  0
    2.6424   -5.2477   11.2378 S   0  0  0  0  0  0  0  0  0  0  0  0
    2.7472   -4.0205   10.0086 C   0  0  0  0  0  0  0  0  0  0  0  0
    3.1144   -4.5955    8.7935 C   0  0  0  0  0  0  0  0  0  0  0  0
    3.2297   -6.0228    8.8675 C   0  0  0  0  0  0  0  0  0  0  0  0
    3.5691   -6.7543    7.7061 C   0  0  0  0  0  0  0  0  0  0  0  0
    3.8061   -6.1112    6.5268 C   0  0  0  0  0  0  0  0  0  0  0  0
    4.1955   -6.8917    5.3098 C   0  0  0  0  0  0  0  0  0  0  0  0
    3.7319   -4.6849    6.4612 C   0  0  0  0  0  0  0  0  0  0  0  0
    4.0109   -3.9891    5.1655 C   0  0  0  0  0  0  0  0  0  0  0  0
    3.4094   -3.9551    7.5700 C   0  0  0  0  0  0  0  0  0  0  0  0
    2.4788   -2.6632   10.3800 C   0  0  0  0  0  0  0  0  0  0  0  0
    1.8169   -1.7019    9.6965 C   0  0  0  0  0  0  0  0  0  0  0  0
    1.0744   -1.8299    8.4826 C   0  0  0  0  0  0  0  0  0  0  0  0
    0.6779   -2.9507    7.8135 C   0  0  0  0  0  0  0  0  0  0  0  0
   -0.0798   -2.6974    6.6483 C   0  0  0  0  0  0  0  0  0  0  0  0
   -0.5157   -3.6307    5.6901 C   0  0  0  0  0  0  0  0  0  0  0  0
   -0.1688   -5.0504    5.8248 C   0  0  0  0  0  0  0  0  0  0  0  0
    0.4334   -5.7348    4.7707 C   0  0  0  0  0  0  0  0  0  0  0  0
    0.8326   -7.0455    4.9180 C   0  0  0  0  0  0  0  0  0  0  0  0
    0.6785   -7.7182    6.1270 C   0  0  0  0  0  0  0  0  0  0  0  0
    1.3416   -9.3555    6.2410 S   0  0  0  0  0  0  0  0  0  0  0  0
    0.0545  -10.2894    7.1468 C   0  0  0  0  0  0  0  0  0  0  0  0
   -1.2771  -10.2592    6.4243 C   0  0  0  0  0  0  0  0  0  0  0  0
    0.0734   -7.0270    7.1702 C   0  0  0  0  0  0  0  0  0  0  0  0
   -0.1001   -7.6084    8.3788 F   0  0  0  0  0  0  0  0  0  0  0  0
   -0.3709   -5.7293    7.0226 C   0  0  0  0  0  0  0  0  0  0  0  0
   -1.2008   -3.1210    4.6010 C   0  0  0  0  0  0  0  0  0  0  0  0
   -1.4741   -1.7408    4.4191 C   0  0  0  0  0  0  0  0  0  0  0  0
   -0.9836   -0.8049    5.3488 C   0  0  0  0  0  0  0  0  0  0  0  0
   -1.1258    0.6443    5.1664 C   0  0  0  0  0  0  0  0  0  0  0  0
   -1.5716    1.4457    6.2156 C   0  0  0  0  0  0  0  0  0  0  0  0
   -1.6169    2.8179    6.0886 C   0  0  0  0  0  0  0  0  0  0  0  0
   -1.2032    3.4367    4.9158 C   0  0  0  0  0  0  0  0  0  0  0  0
   -1.1919    5.1985    4.7434 S   0  0  0  0  0  0  0  0  0  0  0  0
   -0.4376    5.7208    6.3254 C   0  0  0  0  0  0  0  0  0  0  0  0
    0.9240    5.0935    6.5440 C   0  0  0  0  0  0  0  0  0  0  0  0
   -0.7968    2.6279    3.8589 C   0  0  0  0  0  0  0  0  0  0  0  0
   -0.7564    1.2532    3.9697 C   0  0  0  0  0  0  0  0  0  0  0  0
   -0.4107    3.1898    2.6968 F   0  0  0  0  0  0  0  0  0  0  0  0
   -0.3027   -1.3130    6.4457 C   0  0  0  0  0  0  0  0  0  0  0  0
    0.4656   -0.3742    7.7007 S   0  0  0  0  0  0  0  0  0  0  0  0
   -2.2507   -1.5062    3.2608 C   0  0  0  0  0  0  0  0  0  0  0  0
   -2.5445   -2.6353    2.5387 C   0  0  0  0  0  0  0  0  0  0  0  0
   -1.8721   -4.0696    3.3020 S   0  0  0  0  0  0  0  0  0  0  0  0
   -3.2798   -2.7053    1.3296 C   0  0  0  0  0  0  0  0  0  0  0  0
   -4.2174   -1.3259    0.8326 S   0  0  0  0  0  0  0  0  0  0  0  0
   -4.7187   -2.0787   -0.6496 C   0  0  0  0  0  0  0  0  0  0  0  0
   -4.1693   -3.3687   -0.7483 C   0  0  0  0  0  0  0  0  0  0  0  0
   -3.3715   -3.7310    0.3764 C   0  0  0  0  0  0  0  0  0  0  0  0
   -2.7709   -5.0044    0.3941 C   0  0  0  0  0  0  0  0  0  0  0  0
   -2.9527   -5.8852   -0.6382 C   0  0  0  0  0  0  0  0  0  0  0  0
   -2.3034   -7.2333   -0.5937 C   0  0  0  0  0  0  0  0  0  0  0  0
   -3.7561   -5.5236   -1.7548 C   0  0  0  0  0  0  0  0  0  0  0  0
   -3.9512   -6.4928   -2.8788 C   0  0  0  0  0  0  0  0  0  0  0  0
   -4.3454   -4.2882   -1.7968 C   0  0  0  0  0  0  0  0  0  0  0  0
   -5.5247   -1.4279   -1.5984 C   0  0  0  0  0  0  0  0  0  0  0  0
   -6.2061   -0.2630   -1.4079 C   0  0  0  0  0  0  0  0  0  0  0  0
   -6.9052    0.4113   -2.4266 C   0  0  0  0  0  0  0  0  0  0  0  0
   -6.7483   -0.0655   -4.0951 S   0  0  0  0  0  0  0  0  0  0  0  0
   -7.7025    1.2633   -4.6642 C   0  0  0  0  0  0  0  0  0  0  0  0
   -8.1660    2.0284   -3.5966 C   0  0  0  0  0  0  0  0  0  0  0  0
   -7.7024    1.5618   -2.3290 C   0  0  0  0  0  0  0  0  0  0  0  0
   -8.0422    2.2830   -1.1706 C   0  0  0  0  0  0  0  0  0  0  0  0
   -8.7687    3.4405   -1.2524 C   0  0  0  0  0  0  0  0  0  0  0  0
   -9.0690    4.2250   -0.0149 C   0  0  0  0  0  0  0  0  0  0  0  0
   -9.2192    3.9139   -2.5200 C   0  0  0  0  0  0  0  0  0  0  0  0
  -10.0068    5.1845   -2.5962 C   0  0  0  0  0  0  0  0  0  0  0  0
   -8.9291    3.2134   -3.6577 C   0  0  0  0  0  0  0  0  0  0  0  0
   -7.9108    1.4486   -6.0768 C   0  0  0  0  0  0  0  0  0  0  0  0
   -6.9354    1.3971   -7.0041 C   0  0  0  0  0  0  0  0  0  0  0  0
   -5.5327    1.4161   -6.6823 C   0  0  0  0  0  0  0  0  0  0  0  0
   -4.9535    2.0504   -5.6256 C   0  0  0  0  0  0  0  0  0  0  0  0
   -3.5461    1.9157   -5.5722 C   0  0  0  0  0  0  0  0  0  0  0  0
   -2.6801    2.4128   -4.5879 C   0  0  0  0  0  0  0  0  0  0  0  0
   -3.2085    3.1439   -3.4285 C   0  0  0  0  0  0  0  0  0  0  0  0
   -4.1924    2.5664   -2.6298 C   0  0  0  0  0  0  0  0  0  0  0  0
   -4.7288    3.2597   -1.5668 C   0  0  0  0  0  0  0  0  0  0  0  0
   -4.3145    4.5536   -1.2693 C   0  0  0  0  0  0  0  0  0  0  0  0
   -5.1298    5.4017    0.0559 S   0  0  0  0  0  0  0  0  0  0  0  0
   -3.7189    6.0276    1.0418 C   0  0  0  0  0  0  0  0  0  0  0  0
   -2.8128    4.9026    1.4936 C   0  0  0  0  0  0  0  0  0  0  0  0
   -3.3222    5.1139   -2.0668 C   0  0  0  0  0  0  0  0  0  0  0  0
   -2.8842    6.3714   -1.8370 F   0  0  0  0  0  0  0  0  0  0  0  0
   -2.7600    4.4235   -3.1223 C   0  0  0  0  0  0  0  0  0  0  0  0
   -1.3330    2.1524   -4.7585 C   0  0  0  0  0  0  0  0  0  0  0  0
   -0.8156    1.4051   -5.8467 C   0  0  0  0  0  0  0  0  0  0  0  0
   -1.6874    0.9009   -6.8279 C   0  0  0  0  0  0  0  0  0  0  0  0
   -1.1946    0.0967   -7.9533 C   0  0  0  0  0  0  0  0  0  0  0  0
   -1.5337    0.4186   -9.2659 C   0  0  0  0  0  0  0  0  0  0  0  0
   -1.0838   -0.3525  -10.3157 C   0  0  0  0  0  0  0  0  0  0  0  0
   -0.2803   -1.4710  -10.1030 C   0  0  0  0  0  0  0  0  0  0  0  0
    0.2701   -2.3560  -11.5327 S   0  0  0  0  0  0  0  0  0  0  0  0
    0.1608   -4.1154  -11.0373 C   0  0  0  0  0  0  0  0  0  0  0  0
   -1.2418   -4.4974  -10.6093 C   0  0  0  0  0  0  0  0  0  0  0  0
    0.0669   -1.7684   -8.7888 C   0  0  0  0  0  0  0  0  0  0  0  0
   -0.3861   -1.0122   -7.7268 C   0  0  0  0  0  0  0  0  0  0  0  0
    0.8653   -2.8211   -8.5024 F   0  0  0  0  0  0  0  0  0  0  0  0
   -3.0374    1.1823   -6.6713 C   0  0  0  0  0  0  0  0  0  0  0  0
   -4.3345    0.6568   -7.7176 S   0  0  0  0  0  0  0  0  0  0  0  0
    0.5971    1.2797   -5.7678 C   0  0  0  0  0  0  0  0  0  0  0  0
    1.1354    1.8611   -4.6593 C   0  0  0  0  0  0  0  0  0  0  0  0
   -0.0776    2.6338   -3.6531 S   0  0  0  0  0  0  0  0  0  0  0  0
    2.4954    1.9088   -4.2328 C   0  0  0  0  0  0  0  0  0  0  0  0
    2.9488    2.4277   -3.0579 C   0  0  0  0  0  0  0  0  0  0  0  0
    4.3543    2.3437   -2.8992 C   0  0  0  0  0  0  0  0  0  0  0  0
    5.1182    2.7550   -1.7951 C   0  0  0  0  0  0  0  0  0  0  0  0
    4.4813    3.4175   -0.6516 C   0  0  0  0  0  0  0  0  0  0  0  0
    3.6123    4.4879   -0.8462 C   0  0  0  0  0  0  0  0  0  0  0  0
    2.9636    5.0890    0.2142 C   0  0  0  0  0  0  0  0  0  0  0  0
    3.1593    4.6398    1.5154 C   0  0  0  0  0  0  0  0  0  0  0  0
    2.3711    5.2811    2.9483 S   0  0  0  0  0  0  0  0  0  0  0  0
    1.1819    6.5061    2.3055 C   0  0  0  0  0  0  0  0  0  0  0  0
    1.8199    7.8561    2.0356 C   0  0  0  0  0  0  0  0  0  0  0  0
    4.0551    3.5839    1.6986 C   0  0  0  0  0  0  0  0  0  0  0  0
    4.2770    3.1266    2.9488 F   0  0  0  0  0  0  0  0  0  0  0  0
    4.7097    2.9774    0.6509 C   0  0  0  0  0  0  0  0  0  0  0  0
    6.4803    2.4989   -1.8572 C   0  0  0  0  0  0  0  0  0  0  0  0
    7.0988    1.8661   -2.9625 C   0  0  0  0  0  0  0  0  0  0  0  0
    6.3317    1.4468   -4.0608 C   0  0  0  0  0  0  0  0  0  0  0  0
    6.9347    0.7365   -5.1954 C   0  0  0  0  0  0  0  0  0  0  0  0
    6.6972    1.1344   -6.5095 C   0  0  0  0  0  0  0  0  0  0  0  0
    7.2691    0.4539   -7.5628 C   0  0  0  0  0  0  0  0  0  0  0  0
    8.0834   -0.6581   -7.3546 C   0  0  0  0  0  0  0  0  0  0  0  0
    8.7115   -1.4775   -8.7906 S   0  0  0  0  0  0  0  0  0  0  0  0
   10.4085   -1.9810   -8.3206 C   0  0  0  0  0  0  0  0  0  0  0  0
   11.2601   -0.7960   -7.9122 C   0  0  0  0  0  0  0  0  0  0  0  0
    8.2837   -1.0641   -6.0388 C   0  0  0  0  0  0  0  0  0  0  0  0
    7.7393   -0.3767   -4.9733 C   0  0  0  0  0  0  0  0  0  0  0  0
    9.0226   -2.1605   -5.7530 F   0  0  0  0  0  0  0  0  0  0  0  0
    4.9711    1.7117   -4.0066 C   0  0  0  0  0  0  0  0  0  0  0  0
    3.7942    1.2660   -5.2195 S   0  0  0  0  0  0  0  0  0  0  0  0
    8.5139    1.7882   -2.7948 C   0  0  0  0  0  0  0  0  0  0  0  0
    8.9356    2.3186   -1.6292 C   0  0  0  0  0  0  0  0  0  0  0  0
    7.6568    2.9495   -0.6497 S   0  0  0  0  0  0  0  0  0  0  0  0
    2.9908   -7.5201   10.4695 H   0  0  0  0  0  0  0  0  0  0  0  0
    3.6451   -7.8295    7.7723 H   0  0  0  0  0  0  0  0  0  0  0  0
    5.2479   -6.7260    5.0772 H   0  0  0  0  0  0  0  0  0  0  0  0
    3.6113   -6.5841    4.4458 H   0  0  0  0  0  0  0  0  0  0  0  0
    4.0413   -7.9549    5.4752 H   0  0  0  0  0  0  0  0  0  0  0  0
    4.9880   -4.2698    4.7755 H   0  0  0  0  0  0  0  0  0  0  0  0
    3.2623   -4.2624    4.4218 H   0  0  0  0  0  0  0  0  0  0  0  0
    3.9838   -2.9104    5.2973 H   0  0  0  0  0  0  0  0  0  0  0  0
    3.3862   -2.8773    7.5254 H   0  0  0  0  0  0  0  0  0  0  0  0
    2.8256   -2.3987   11.3727 H   0  0  0  0  0  0  0  0  0  0  0  0
    1.7896   -0.7127   10.1355 H   0  0  0  0  0  0  0  0  0  0  0  0
    0.9162   -3.9387    8.1485 H   0  0  0  0  0  0  0  0  0  0  0  0
    0.5998   -5.2287    3.8321 H   0  0  0  0  0  0  0  0  0  0  0  0
    1.2896   -7.5747    4.0963 H   0  0  0  0  0  0  0  0  0  0  0  0
   -0.0212   -9.8964    8.1581 H   0  0  0  0  0  0  0  0  0  0  0  0
    0.4583  -11.3011    7.1879 H   0  0  0  0  0  0  0  0  0  0  0  0
   -1.9960  -10.8813    6.9537 H   0  0  0  0  0  0  0  0  0  0  0  0
   -1.6689   -9.2445    6.3767 H   0  0  0  0  0  0  0  0  0  0  0  0
   -1.1690  -10.6354    5.4090 H   0  0  0  0  0  0  0  0  0  0  0  0
   -0.8744   -5.2586    7.8527 H   0  0  0  0  0  0  0  0  0  0  0  0
   -1.8980    0.9878    7.1365 H   0  0  0  0  0  0  0  0  0  0  0  0
   -1.9723    3.4173    6.9122 H   0  0  0  0  0  0  0  0  0  0  0  0
   -1.1297    5.4907    7.1350 H   0  0  0  0  0  0  0  0  0  0  0  0
   -0.3635    6.8038    6.2260 H   0  0  0  0  0  0  0  0  0  0  0  0
    1.5808    5.3000    5.7017 H   0  0  0  0  0  0  0  0  0  0  0  0
    0.8399    4.0139    6.6554 H   0  0  0  0  0  0  0  0  0  0  0  0
    1.3739    5.5001    7.4474 H   0  0  0  0  0  0  0  0  0  0  0  0
   -0.3953    0.6703    3.1368 H   0  0  0  0  0  0  0  0  0  0  0  0
   -2.5879   -0.5299    2.9604 H   0  0  0  0  0  0  0  0  0  0  0  0
   -2.1576   -5.2928    1.2324 H   0  0  0  0  0  0  0  0  0  0  0  0
   -1.7318   -7.3525    0.3231 H   0  0  0  0  0  0  0  0  0  0  0  0
   -1.6321   -7.3643   -1.4417 H   0  0  0  0  0  0  0  0  0  0  0  0
   -3.0530   -8.0224   -0.6398 H   0  0  0  0  0  0  0  0  0  0  0  0
   -4.5882   -6.0647   -3.6486 H   0  0  0  0  0  0  0  0  0  0  0  0
   -4.4128   -7.4115   -2.5184 H   0  0  0  0  0  0  0  0  0  0  0  0
   -2.9946   -6.7572   -3.3284 H   0  0  0  0  0  0  0  0  0  0  0  0
   -4.9553   -4.0126   -2.6442 H   0  0  0  0  0  0  0  0  0  0  0  0
   -5.6005   -1.9086   -2.5656 H   0  0  0  0  0  0  0  0  0  0  0  0
   -6.2053    0.1909   -0.4259 H   0  0  0  0  0  0  0  0  0  0  0  0
   -7.7148    1.9214   -0.2067 H   0  0  0  0  0  0  0  0  0  0  0  0
  -10.1367    4.4158    0.0801 H   0  0  0  0  0  0  0  0  0  0  0  0
   -8.5560    5.1860   -0.0487 H   0  0  0  0  0  0  0  0  0  0  0  0
   -8.7295    3.6914    0.8688 H   0  0  0  0  0  0  0  0  0  0  0  0
   -9.4395    6.0097   -2.1679 H   0  0  0  0  0  0  0  0  0  0  0  0
  -10.9374    5.0951   -2.0364 H   0  0  0  0  0  0  0  0  0  0  0  0
  -10.2472    5.4262   -3.6284 H   0  0  0  0  0  0  0  0  0  0  0  0
   -9.2674    3.5662   -4.6212 H   0  0  0  0  0  0  0  0  0  0  0  0
   -8.9333    1.6151   -6.3939 H   0  0  0  0  0  0  0  0  0  0  0  0
   -7.1905    1.3984   -8.0547 H   0  0  0  0  0  0  0  0  0  0  0  0
   -5.5128    2.6292   -4.9126 H   0  0  0  0  0  0  0  0  0  0  0  0
   -4.5171    1.5583   -2.8338 H   0  0  0  0  0  0  0  0  0  0  0  0
   -5.4904    2.8117   -0.9504 H   0  0  0  0  0  0  0  0  0  0  0  0
   -4.1943    6.5161    1.8918 H   0  0  0  0  0  0  0  0  0  0  0  0
   -3.1866    6.7732    0.4549 H   0  0  0  0  0  0  0  0  0  0  0  0
   -3.3807    4.1498    2.0365 H   0  0  0  0  0  0  0  0  0  0  0  0
   -2.3280    4.4221    0.6457 H   0  0  0  0  0  0  0  0  0  0  0  0
   -2.0433    5.2945    2.1543 H   0  0  0  0  0  0  0  0  0  0  0  0
   -2.0015    4.9064   -3.7186 H   0  0  0  0  0  0  0  0  0  0  0  0
   -2.1469    1.2843   -9.4626 H   0  0  0  0  0  0  0  0  0  0  0  0
   -1.3482   -0.1010  -11.3308 H   0  0  0  0  0  0  0  0  0  0  0  0
    0.4544   -4.6467  -11.9427 H   0  0  0  0  0  0  0  0  0  0  0  0
    0.8940   -4.3115  -10.2582 H   0  0  0  0  0  0  0  0  0  0  0  0
   -1.9580   -4.2612  -11.3936 H   0  0  0  0  0  0  0  0  0  0  0  0
   -1.5312   -3.9638   -9.7058 H   0  0  0  0  0  0  0  0  0  0  0  0
   -1.2845   -5.5656  -10.4059 H   0  0  0  0  0  0  0  0  0  0  0  0
   -0.1098   -1.3047   -6.7254 H   0  0  0  0  0  0  0  0  0  0  0  0
    1.1976    0.7815   -6.5079 H   0  0  0  0  0  0  0  0  0  0  0  0
    2.2881    2.8349   -2.3138 H   0  0  0  0  0  0  0  0  0  0  0  0
    3.4550    4.8710   -1.8433 H   0  0  0  0  0  0  0  0  0  0  0  0
    2.2961    5.9099    0.0114 H   0  0  0  0  0  0  0  0  0  0  0  0
    0.7032    6.0779    1.4267 H   0  0  0  0  0  0  0  0  0  0  0  0
    0.4353    6.5845    3.0954 H   0  0  0  0  0  0  0  0  0  0  0  0
    2.6177    7.7804    1.3000 H   0  0  0  0  0  0  0  0  0  0  0  0
    2.2427    8.2607    2.9523 H   0  0  0  0  0  0  0  0  0  0  0  0
    1.0682    8.5500    1.6638 H   0  0  0  0  0  0  0  0  0  0  0  0
    5.3701    2.1493    0.8541 H   0  0  0  0  0  0  0  0  0  0  0  0
    6.0816    1.9988   -6.7042 H   0  0  0  0  0  0  0  0  0  0  0  0
    7.0938    0.7734   -8.5782 H   0  0  0  0  0  0  0  0  0  0  0  0
   10.3528   -2.7335   -7.5374 H   0  0  0  0  0  0  0  0  0  0  0  0
   10.7902   -2.4439   -9.2306 H   0  0  0  0  0  0  0  0  0  0  0  0
   10.8708   -0.3317   -7.0079 H   0  0  0  0  0  0  0  0  0  0  0  0
   12.2784   -1.1262   -7.7172 H   0  0  0  0  0  0  0  0  0  0  0  0
   11.2791   -0.0488   -8.7029 H   0  0  0  0  0  0  0  0  0  0  0  0
    7.9173   -0.7430   -3.9738 H   0  0  0  0  0  0  0  0  0  0  0  0
    9.1745    1.3697   -3.5321 H   0  0  0  0  0  0  0  0  0  0  0  0
    9.9412    2.3869   -1.2624 H   0  0  0  0  0  0  0  0  0  0  0  0
  1  2  1  0  0  0  0
  2  3  1  0  0  0  0
  3  4  2  0  0  0  0
  4  5  1  0  0  0  0
  5  6  1  0  0  0  0
  6  7  2  0  0  0  0
  7  8  1  0  0  0  0
  7  9  1  0  0  0  0
  9 10  1  0  0  0  0
  9 11  2  0  0  0  0
  3 12  1  0  0  0  0
 12 13  2  0  0  0  0
 13 14  1  0  0  0  0
 14 15  2  0  0  0  0
 15 16  1  0  0  0  0
 16 17  2  0  0  0  0
 17 18  1  0  0  0  0
 18 19  2  0  0  0  0
 19 20  1  0  0  0  0
 20 21  2  0  0  0  0
 21 22  1  0  0  0  0
 22 23  1  0  0  0  0
 23 24  1  0  0  0  0
 21 25  1  0  0  0  0
 25 26  1  0  0  0  0
 25 27  2  0  0  0  0
 17 28  1  0  0  0  0
 28 29  2  0  0  0  0
 29 30  1  0  0  0  0
 30 31  1  0  0  0  0
 31 32  2  0  0  0  0
 32 33  1  0  0  0  0
 33 34  2  0  0  0  0
 34 35  1  0  0  0  0
 35 36  1  0  0  0  0
 36 37  1  0  0  0  0
 34 38  1  0  0  0  0
 38 39  2  0  0  0  0
 38 40  1  0  0  0  0
 30 41  2  0  0  0  0
 41 42  1  0  0  0  0
 29 43  1  0  0  0  0
 43 44  2  0  0  0  0
 44 45  1  0  0  0  0
 44 46  1  0  0  0  0
 46 47  1  0  0  0  0
 47 48  1  0  0  0  0
 48 49  2  0  0  0  0
 49 50  1  0  0  0  0
 50 51  1  0  0  0  0
 51 52  2  0  0  0  0
 52 53  1  0  0  0  0
 52 54  1  0  0  0  0
 54 55  1  0  0  0  0
 54 56  2  0  0  0  0
 48 57  1  0  0  0  0
 57 58  2  0  0  0  0
 58 59  1  0  0  0  0
 59 60  1  0  0  0  0
 60 61  1  0  0  0  0
 61 62  2  0  0  0  0
 62 63  1  0  0  0  0
 63 64  1  0  0  0  0
 64 65  2  0  0  0  0
 65 66  1  0  0  0  0
 65 67  1  0  0  0  0
 67 68  1  0  0  0  0
 67 69  2  0  0  0  0
 61 70  1  0  0  0  0
 70 71  2  0  0  0  0
 71 72  1  0  0  0  0
 72 73  2  0  0  0  0
 73 74  1  0  0  0  0
 74 75  2  0  0  0  0
 75 76  1  0  0  0  0
 76 77  2  0  0  0  0
 77 78  1  0  0  0  0
 78 79  2  0  0  0  0
 79 80  1  0  0  0  0
 80 81  1  0  0  0  0
 81 82  1  0  0  0  0
 79 83  1  0  0  0  0
 83 84  1  0  0  0  0
 83 85  2  0  0  0  0
 75 86  1  0  0  0  0
 86 87  2  0  0  0  0
 87 88  1  0  0  0  0
 88 89  1  0  0  0  0
 89 90  2  0  0  0  0
 90 91  1  0  0  0  0
 91 92  2  0  0  0  0
 92 93  1  0  0  0  0
 93 94  1  0  0  0  0
 94 95  1  0  0  0  0
 92 96  1  0  0  0  0
 96 97  2  0  0  0  0
 96 98  1  0  0  0  0
 88 99  2  0  0  0  0
 99100  1  0  0  0  0
 87101  1  0  0  0  0
101102  2  0  0  0  0
102103  1  0  0  0  0
102104  1  0  0  0  0
104105  2  0  0  0  0
105106  1  0  0  0  0
106107  2  0  0  0  0
107108  1  0  0  0  0
108109  2  0  0  0  0
109110  1  0  0  0  0
110111  2  0  0  0  0
111112  1  0  0  0  0
112113  1  0  0  0  0
113114  1  0  0  0  0
111115  1  0  0  0  0
115116  1  0  0  0  0
115117  2  0  0  0  0
107118  1  0  0  0  0
118119  2  0  0  0  0
119120  1  0  0  0  0
120121  1  0  0  0  0
121122  2  0  0  0  0
122123  1  0  0  0  0
123124  2  0  0  0  0
124125  1  0  0  0  0
125126  1  0  0  0  0
126127  1  0  0  0  0
124128  1  0  0  0  0
128129  2  0  0  0  0
128130  1  0  0  0  0
120131  2  0  0  0  0
131132  1  0  0  0  0
119133  1  0  0  0  0
133134  2  0  0  0  0
134135  1  0  0  0  0
  5  1  2  0  0  0  0
 42 14  1  0  0  0  0
 50 46  2  0  0  0  0
 63 59  2  0  0  0  0
100 72  1  0  0  0  0
132104  1  0  0  0  0
 11  4  1  0  0  0  0
 41 16  1  0  0  0  0
 56 49  1  0  0  0  0
 69 62  1  0  0  0  0
 99 74  1  0  0  0  0
131106  1  0  0  0  0
 27 18  1  0  0  0  0
 45 28  1  0  0  0  0
 85 76  1  0  0  0  0
103 86  1  0  0  0  0
117108  1  0  0  0  0
135118  1  0  0  0  0
 39 31  1  0  0  0  0
 97 89  1  0  0  0  0
129121  1  0  0  0  0
  1136  1  0  0  0  0
  6137  1  0  0  0  0
  8138  1  0  0  0  0
  8139  1  0  0  0  0
  8140  1  0  0  0  0
 10141  1  0  0  0  0
 10142  1  0  0  0  0
 10143  1  0  0  0  0
 11144  1  0  0  0  0
 12145  1  0  0  0  0
 13146  1  0  0  0  0
 15147  1  0  0  0  0
 19148  1  0  0  0  0
 20149  1  0  0  0  0
 23150  1  0  0  0  0
 23151  1  0  0  0  0
 24152  1  0  0  0  0
 24153  1  0  0  0  0
 24154  1  0  0  0  0
 27155  1  0  0  0  0
 32156  1  0  0  0  0
 33157  1  0  0  0  0
 36158  1  0  0  0  0
 36159  1  0  0  0  0
 37160  1  0  0  0  0
 37161  1  0  0  0  0
 37162  1  0  0  0  0
 39163  1  0  0  0  0
 43164  1  0  0  0  0
 51165  1  0  0  0  0
 53166  1  0  0  0  0
 53167  1  0  0  0  0
 53168  1  0  0  0  0
 55169  1  0  0  0  0
 55170  1  0  0  0  0
 55171  1  0  0  0  0
 56172  1  0  0  0  0
 57173  1  0  0  0  0
 58174  1  0  0  0  0
 64175  1  0  0  0  0
 66176  1  0  0  0  0
 66177  1  0  0  0  0
 66178  1  0  0  0  0
 68179  1  0  0  0  0
 68180  1  0  0  0  0
 68181  1  0  0  0  0
 69182  1  0  0  0  0
 70183  1  0  0  0  0
 71184  1  0  0  0  0
 73185  1  0  0  0  0
 77186  1  0  0  0  0
 78187  1  0  0  0  0
 81188  1  0  0  0  0
 81189  1  0  0  0  0
 82190  1  0  0  0  0
 82191  1  0  0  0  0
 82192  1  0  0  0  0
 85193  1  0  0  0  0
 90194  1  0  0  0  0
 91195  1  0  0  0  0
 94196  1  0  0  0  0
 94197  1  0  0  0  0
 95198  1  0  0  0  0
 95199  1  0  0  0  0
 95200  1  0  0  0  0
 97201  1  0  0  0  0
101202  1  0  0  0  0
105203  1  0  0  0  0
109204  1  0  0  0  0
110205  1  0  0  0  0
113206  1  0  0  0  0
113207  1  0  0  0  0
114208  1  0  0  0  0
114209  1  0  0  0  0
114210  1  0  0  0  0
117211  1  0  0  0  0
122212  1  0  0  0  0
123213  1  0  0  0  0
126214  1  0  0  0  0
126215  1  0  0  0  0
127216  1  0  0  0  0
127217  1  0  0  0  0
127218  1  0  0  0  0
129219  1  0  0  0  0
133220  1  0  0  0  0
134221  1  0  0  0  0
M  END
