
  xtb     03042206493D
 energy: -245.670100201882 gnorm: 0.000309875957 xtb: 6.4.1 (unknown)
180195  0     0  0            999 V2000
   -4.9693    6.4826   10.8023 C   0  0  0  0  0  0  0  0  0  0  0  0
   -4.1709    5.3850   11.0860 C   0  0  0  0  0  0  0  0  0  0  0  0
   -3.7752    4.5272   10.0777 C   0  0  0  0  0  0  0  0  0  0  0  0
   -2.7097    2.9696   10.1509 Si  0  0  0  0  0  4  0  0  0  0  0  0
   -3.5008    1.5238   11.1204 C   0  0  0  0  0  0  0  0  0  0  0  0
   -3.5251    1.7617   12.6263 C   0  0  0  0  0  0  0  0  0  0  0  0
   -0.9209    3.3170   10.7277 C   0  0  0  0  0  0  0  0  0  0  0  0
   -0.0158    2.0945   10.6211 C   0  0  0  0  0  0  0  0  0  0  0  0
   -2.9044    2.7722    8.2828 C   0  0  0  0  0  0  0  0  0  0  0  0
   -3.7014    3.8088    7.7668 C   0  0  0  0  0  0  0  0  0  0  0  0
   -4.1826    4.7744    8.7551 C   0  0  0  0  0  0  0  0  0  0  0  0
   -4.9818    5.8753    8.4768 C   0  0  0  0  0  0  0  0  0  0  0  0
   -5.3723    6.7229    9.4996 C   0  0  0  0  0  0  0  0  0  0  0  0
   -3.9686    3.8465    6.4045 C   0  0  0  0  0  0  0  0  0  0  0  0
   -3.4537    2.8741    5.5676 C   0  0  0  0  0  0  0  0  0  0  0  0
   -2.6646    1.8395    6.0663 C   0  0  0  0  0  0  0  0  0  0  0  0
   -2.4018    1.8069    7.4372 C   0  0  0  0  0  0  0  0  0  0  0  0
   -2.1167    0.8062    5.1806 C   0  0  0  0  0  0  0  0  0  0  0  0
   -2.0531   -0.5250    5.5978 C   0  0  0  0  0  0  0  0  0  0  0  0
   -1.5152   -1.5004    4.7869 C   0  0  0  0  0  0  0  0  0  0  0  0
   -1.3123   -3.3538    5.0945 Si  0  0  0  0  0  4  0  0  0  0  0  0
   -2.9832   -4.2798    5.1493 C   0  0  0  0  0  0  0  0  0  0  0  0
   -3.8927   -3.9021    3.9844 C   0  0  0  0  0  0  0  0  0  0  0  0
   -0.2084   -3.7671    6.5957 C   0  0  0  0  0  0  0  0  0  0  0  0
    0.1596   -5.2443    6.6694 C   0  0  0  0  0  0  0  0  0  0  0  0
   -0.4739   -3.5160    3.4077 C   0  0  0  0  0  0  0  0  0  0  0  0
   -0.4586   -2.2695    2.7525 C   0  0  0  0  0  0  0  0  0  0  0  0
   -1.0240   -1.1606    3.5137 C   0  0  0  0  0  0  0  0  0  0  0  0
   -1.0953    0.1599    3.0868 C   0  0  0  0  0  0  0  0  0  0  0  0
   -1.6349    1.1277    3.9127 C   0  0  0  0  0  0  0  0  0  0  0  0
    0.0639   -2.1843    1.4676 C   0  0  0  0  0  0  0  0  0  0  0  0
    0.5926   -3.3013    0.8532 C   0  0  0  0  0  0  0  0  0  0  0  0
    0.6223   -4.5368    1.5092 C   0  0  0  0  0  0  0  0  0  0  0  0
    0.0528   -4.6243    2.7855 C   0  0  0  0  0  0  0  0  0  0  0  0
    1.1818   -5.7050    0.8744 C   0  0  0  0  0  0  0  0  0  0  0  0
    0.4624   -7.2603    1.1283 S   0  0  0  0  0  0  0  0  0  0  0  0
    1.4796   -8.0323   -0.0459 C   0  0  0  0  0  0  0  0  0  0  0  0
    2.4247   -7.1262   -0.5257 C   0  0  0  0  0  0  0  0  0  0  0  0
    2.2469   -5.8018   -0.0189 C   0  0  0  0  0  0  0  0  0  0  0  0
    3.1488   -4.7933   -0.4249 C   0  0  0  0  0  0  0  0  0  0  0  0
    4.1355   -5.0582   -1.3325 C   0  0  0  0  0  0  0  0  0  0  0  0
    5.0620   -3.9683   -1.7769 C   0  0  0  0  0  0  0  0  0  0  0  0
    4.2993   -6.3769   -1.8508 C   0  0  0  0  0  0  0  0  0  0  0  0
    5.3802   -6.6571   -2.8481 C   0  0  0  0  0  0  0  0  0  0  0  0
    3.4782   -7.3832   -1.4279 C   0  0  0  0  0  0  0  0  0  0  0  0
    1.2657   -9.4031   -0.4013 C   0  0  0  0  0  0  0  0  0  0  0  0
    1.2764   -9.9223   -1.6554 C   0  0  0  0  0  0  0  0  0  0  0  0
    1.3000   -9.2129   -2.8865 C   0  0  0  0  0  0  0  0  0  0  0  0
    0.9211   -7.5294   -2.9791 S   0  0  0  0  0  0  0  0  0  0  0  0
    1.1524   -7.4521   -4.6928 C   0  0  0  0  0  0  0  0  0  0  0  0
    1.4570   -8.7235   -5.1952 C   0  0  0  0  0  0  0  0  0  0  0  0
    1.5388   -9.7198   -4.1735 C   0  0  0  0  0  0  0  0  0  0  0  0
    1.8696  -11.0392   -4.5343 C   0  0  0  0  0  0  0  0  0  0  0  0
    2.0983  -11.3749   -5.8416 C   0  0  0  0  0  0  0  0  0  0  0  0
    2.4417  -12.7862   -6.2080 C   0  0  0  0  0  0  0  0  0  0  0  0
    2.0122  -10.3826   -6.8594 C   0  0  0  0  0  0  0  0  0  0  0  0
    2.2618  -10.7594   -8.2876 C   0  0  0  0  0  0  0  0  0  0  0  0
    1.7024   -9.0904   -6.5313 C   0  0  0  0  0  0  0  0  0  0  0  0
    1.0891   -6.1935   -5.3440 C   0  0  0  0  0  0  0  0  0  0  0  0
    0.9981   -5.0424   -4.6390 C   0  0  0  0  0  0  0  0  0  0  0  0
    0.9338   -3.6862   -5.1039 C   0  0  0  0  0  0  0  0  0  0  0  0
    0.9348   -2.6674   -4.1377 C   0  0  0  0  0  0  0  0  0  0  0  0
    0.8624   -1.3417   -4.4880 C   0  0  0  0  0  0  0  0  0  0  0  0
    0.8588    0.1997   -3.3989 Si  0  0  0  0  0  4  0  0  0  0  0  0
    2.5230    0.4758   -2.4970 C   0  0  0  0  0  0  0  0  0  0  0  0
    2.7969   -0.5821   -1.4330 C   0  0  0  0  0  0  0  0  0  0  0  0
   -0.6168    0.2421   -2.1840 C   0  0  0  0  0  0  0  0  0  0  0  0
   -0.6079    1.4616   -1.2686 C   0  0  0  0  0  0  0  0  0  0  0  0
    0.6811    1.2647   -4.9500 C   0  0  0  0  0  0  0  0  0  0  0  0
    0.6745    0.4498   -6.0981 C   0  0  0  0  0  0  0  0  0  0  0  0
    0.7764   -0.9829   -5.8463 C   0  0  0  0  0  0  0  0  0  0  0  0
    0.7818   -1.9824   -6.8149 C   0  0  0  0  0  0  0  0  0  0  0  0
    0.8615   -3.3110   -6.4502 C   0  0  0  0  0  0  0  0  0  0  0  0
    0.5674    1.0405   -7.3513 C   0  0  0  0  0  0  0  0  0  0  0  0
    0.4647    2.4133   -7.4658 C   0  0  0  0  0  0  0  0  0  0  0  0
    0.4613    3.2309   -6.3371 C   0  0  0  0  0  0  0  0  0  0  0  0
    0.5732    2.6326   -5.0806 C   0  0  0  0  0  0  0  0  0  0  0  0
    0.3373    4.6871   -6.4681 C   0  0  0  0  0  0  0  0  0  0  0  0
   -0.4664    5.4153   -5.5894 C   0  0  0  0  0  0  0  0  0  0  0  0
   -0.5958    6.7828   -5.7117 C   0  0  0  0  0  0  0  0  0  0  0  0
   -1.6158    8.0001   -4.6851 Si  0  0  0  0  0  4  0  0  0  0  0  0
   -1.0476    8.1187   -2.8667 C   0  0  0  0  0  0  0  0  0  0  0  0
    0.4583    8.3238   -2.7475 C   0  0  0  0  0  0  0  0  0  0  0  0
   -3.4983    7.7240   -4.8359 C   0  0  0  0  0  0  0  0  0  0  0  0
   -3.9502    7.6291   -6.2887 C   0  0  0  0  0  0  0  0  0  0  0  0
   -0.9764    9.4111   -5.7697 C   0  0  0  0  0  0  0  0  0  0  0  0
   -0.1135    8.9120   -6.7614 C   0  0  0  0  0  0  0  0  0  0  0  0
    0.0948    7.4638   -6.7297 C   0  0  0  0  0  0  0  0  0  0  0  0
    0.8986    6.7452   -7.6047 C   0  0  0  0  0  0  0  0  0  0  0  0
    1.0135    5.3739   -7.4745 C   0  0  0  0  0  0  0  0  0  0  0  0
    0.4650    9.7860   -7.6721 C   0  0  0  0  0  0  0  0  0  0  0  0
    0.1910   11.1414   -7.5995 C   0  0  0  0  0  0  0  0  0  0  0  0
   -0.6574   11.6346   -6.6227 C   0  0  0  0  0  0  0  0  0  0  0  0
   -1.2387   10.7667   -5.7106 C   0  0  0  0  0  0  0  0  0  0  0  0
   -5.2761    7.1501   11.5948 H   0  0  0  0  0  0  0  0  0  0  0  0
   -3.8530    5.2007   12.1027 H   0  0  0  0  0  0  0  0  0  0  0  0
   -4.5204    1.3603   10.7686 H   0  0  0  0  0  0  0  0  0  0  0  0
   -2.9508    0.6048   10.9130 H   0  0  0  0  0  0  0  0  0  0  0  0
   -3.9755    0.9169   13.1452 H   0  0  0  0  0  0  0  0  0  0  0  0
   -2.5176    1.8978   13.0119 H   0  0  0  0  0  0  0  0  0  0  0  0
   -4.1036    2.6516   12.8617 H   0  0  0  0  0  0  0  0  0  0  0  0
   -0.4954    4.1289   10.1362 H   0  0  0  0  0  0  0  0  0  0  0  0
   -0.9345    3.6624   11.7623 H   0  0  0  0  0  0  0  0  0  0  0  0
    0.9920    2.3280   10.9610 H   0  0  0  0  0  0  0  0  0  0  0  0
   -0.3971    1.2778   11.2294 H   0  0  0  0  0  0  0  0  0  0  0  0
    0.0446    1.7534    9.5907 H   0  0  0  0  0  0  0  0  0  0  0  0
   -5.3047    6.0800    7.4665 H   0  0  0  0  0  0  0  0  0  0  0  0
   -5.9948    7.5784    9.2785 H   0  0  0  0  0  0  0  0  0  0  0  0
   -4.5824    4.6306    5.9855 H   0  0  0  0  0  0  0  0  0  0  0  0
   -3.6853    2.9034    4.5124 H   0  0  0  0  0  0  0  0  0  0  0  0
   -1.7765    1.0211    7.8368 H   0  0  0  0  0  0  0  0  0  0  0  0
   -2.4485   -0.7966    6.5663 H   0  0  0  0  0  0  0  0  0  0  0  0
   -3.4943   -4.0649    6.0887 H   0  0  0  0  0  0  0  0  0  0  0  0
   -2.8077   -5.3560    5.1292 H   0  0  0  0  0  0  0  0  0  0  0  0
   -3.4138   -4.1355    3.0363 H   0  0  0  0  0  0  0  0  0  0  0  0
   -4.8352   -4.4444    4.0354 H   0  0  0  0  0  0  0  0  0  0  0  0
   -4.1084   -2.8362    3.9993 H   0  0  0  0  0  0  0  0  0  0  0  0
    0.7051   -3.1732    6.5534 H   0  0  0  0  0  0  0  0  0  0  0  0
   -0.7234   -3.4817    7.5136 H   0  0  0  0  0  0  0  0  0  0  0  0
   -0.7335   -5.8601    6.7418 H   0  0  0  0  0  0  0  0  0  0  0  0
    0.7819   -5.4457    7.5400 H   0  0  0  0  0  0  0  0  0  0  0  0
    0.7109   -5.5442    5.7820 H   0  0  0  0  0  0  0  0  0  0  0  0
   -0.7237    0.4447    2.1132 H   0  0  0  0  0  0  0  0  0  0  0  0
   -1.6609    2.1559    3.5808 H   0  0  0  0  0  0  0  0  0  0  0  0
    0.0480   -1.2458    0.9324 H   0  0  0  0  0  0  0  0  0  0  0  0
    0.9536   -3.2308   -0.1615 H   0  0  0  0  0  0  0  0  0  0  0  0
    0.0416   -5.5833    3.2850 H   0  0  0  0  0  0  0  0  0  0  0  0
    3.0655   -3.8074    0.0072 H   0  0  0  0  0  0  0  0  0  0  0  0
    4.9432   -3.7802   -2.8441 H   0  0  0  0  0  0  0  0  0  0  0  0
    4.8556   -3.0466   -1.2391 H   0  0  0  0  0  0  0  0  0  0  0  0
    6.1005   -4.2464   -1.6021 H   0  0  0  0  0  0  0  0  0  0  0  0
    5.3528   -7.6991   -3.1572 H   0  0  0  0  0  0  0  0  0  0  0  0
    5.2543   -6.0313   -3.7311 H   0  0  0  0  0  0  0  0  0  0  0  0
    6.3630   -6.4460   -2.4270 H   0  0  0  0  0  0  0  0  0  0  0  0
    3.6234   -8.3925   -1.7847 H   0  0  0  0  0  0  0  0  0  0  0  0
    1.0415  -10.0728    0.4201 H   0  0  0  0  0  0  0  0  0  0  0  0
    1.2056  -10.9987   -1.7495 H   0  0  0  0  0  0  0  0  0  0  0  0
    1.9401  -11.7945   -3.7649 H   0  0  0  0  0  0  0  0  0  0  0  0
    2.4679  -13.4168   -5.3228 H   0  0  0  0  0  0  0  0  0  0  0  0
    3.4160  -12.8321   -6.6939 H   0  0  0  0  0  0  0  0  0  0  0  0
    1.7065  -13.1940   -6.9011 H   0  0  0  0  0  0  0  0  0  0  0  0
    3.2668  -11.1623   -8.4106 H   0  0  0  0  0  0  0  0  0  0  0  0
    1.5564  -11.5235   -8.6130 H   0  0  0  0  0  0  0  0  0  0  0  0
    2.1556   -9.8936   -8.9364 H   0  0  0  0  0  0  0  0  0  0  0  0
    1.6392   -8.3372   -7.3031 H   0  0  0  0  0  0  0  0  0  0  0  0
    1.1505   -6.1926   -6.4229 H   0  0  0  0  0  0  0  0  0  0  0  0
    0.9831   -5.1361   -3.5583 H   0  0  0  0  0  0  0  0  0  0  0  0
    0.9901   -2.9446   -3.0936 H   0  0  0  0  0  0  0  0  0  0  0  0
    2.5307    1.4629   -2.0332 H   0  0  0  0  0  0  0  0  0  0  0  0
    3.3377    0.4690   -3.2227 H   0  0  0  0  0  0  0  0  0  0  0  0
    2.8200   -1.5720   -1.8818 H   0  0  0  0  0  0  0  0  0  0  0  0
    3.7552   -0.4029   -0.9469 H   0  0  0  0  0  0  0  0  0  0  0  0
    2.0250   -0.5721   -0.6674 H   0  0  0  0  0  0  0  0  0  0  0  0
   -1.5538    0.2214   -2.7421 H   0  0  0  0  0  0  0  0  0  0  0  0
   -0.6040   -0.6627   -1.5742 H   0  0  0  0  0  0  0  0  0  0  0  0
   -1.4609    1.4432   -0.5911 H   0  0  0  0  0  0  0  0  0  0  0  0
   -0.6580    2.3783   -1.8511 H   0  0  0  0  0  0  0  0  0  0  0  0
    0.3007    1.4908   -0.6714 H   0  0  0  0  0  0  0  0  0  0  0  0
    0.7190   -1.7277   -7.8631 H   0  0  0  0  0  0  0  0  0  0  0  0
    0.8579   -4.0725   -7.2161 H   0  0  0  0  0  0  0  0  0  0  0  0
    0.5586    0.4340   -8.2453 H   0  0  0  0  0  0  0  0  0  0  0  0
    0.3612    2.8607   -8.4442 H   0  0  0  0  0  0  0  0  0  0  0  0
    0.5970    3.2574   -4.1987 H   0  0  0  0  0  0  0  0  0  0  0  0
   -1.0134    4.8940   -4.8162 H   0  0  0  0  0  0  0  0  0  0  0  0
   -1.5630    8.9429   -2.3729 H   0  0  0  0  0  0  0  0  0  0  0  0
   -1.3310    7.2119   -2.3317 H   0  0  0  0  0  0  0  0  0  0  0  0
    0.9930    7.4960   -3.2073 H   0  0  0  0  0  0  0  0  0  0  0  0
    0.7615    8.3919   -1.7040 H   0  0  0  0  0  0  0  0  0  0  0  0
    0.7587    9.2390   -3.2523 H   0  0  0  0  0  0  0  0  0  0  0  0
   -3.7804    6.8107   -4.3115 H   0  0  0  0  0  0  0  0  0  0  0  0
   -4.0309    8.5397   -4.3462 H   0  0  0  0  0  0  0  0  0  0  0  0
   -5.0260    7.4743   -6.3531 H   0  0  0  0  0  0  0  0  0  0  0  0
   -3.4540    6.8003   -6.7882 H   0  0  0  0  0  0  0  0  0  0  0  0
   -3.7023    8.5421   -6.8252 H   0  0  0  0  0  0  0  0  0  0  0  0
    1.4420    7.2473   -8.3919 H   0  0  0  0  0  0  0  0  0  0  0  0
    1.6551    4.8264   -8.1503 H   0  0  0  0  0  0  0  0  0  0  0  0
    1.1296    9.4198   -8.4409 H   0  0  0  0  0  0  0  0  0  0  0  0
    0.6432   11.8180   -8.3107 H   0  0  0  0  0  0  0  0  0  0  0  0
   -0.8653   12.6938   -6.5725 H   0  0  0  0  0  0  0  0  0  0  0  0
   -1.9016   11.1517   -4.9483 H   0  0  0  0  0  0  0  0  0  0  0  0
  1  2  2  0  0  0  0
  2  3  1  0  0  0  0
  3  4  1  0  0  0  0
  4  5  1  0  0  0  0
  5  6  1  0  0  0  0
  4  7  1  0  0  0  0
  7  8  1  0  0  0  0
  4  9  1  0  0  0  0
  9 10  2  0  0  0  0
 10 11  1  0  0  0  0
 11 12  1  0  0  0  0
 12 13  2  0  0  0  0
 10 14  1  0  0  0  0
 14 15  2  0  0  0  0
 15 16  1  0  0  0  0
 16 17  2  0  0  0  0
 16 18  1  0  0  0  0
 18 19  2  0  0  0  0
 19 20  1  0  0  0  0
 20 21  1  0  0  0  0
 21 22  1  0  0  0  0
 22 23  1  0  0  0  0
 21 24  1  0  0  0  0
 24 25  1  0  0  0  0
 21 26  1  0  0  0  0
 26 27  2  0  0  0  0
 27 28  1  0  0  0  0
 28 29  1  0  0  0  0
 29 30  2  0  0  0  0
 27 31  1  0  0  0  0
 31 32  2  0  0  0  0
 32 33  1  0  0  0  0
 33 34  2  0  0  0  0
 33 35  1  0  0  0  0
 35 36  1  0  0  0  0
 36 37  1  0  0  0  0
 37 38  2  0  0  0  0
 38 39  1  0  0  0  0
 39 40  1  0  0  0  0
 40 41  2  0  0  0  0
 41 42  1  0  0  0  0
 41 43  1  0  0  0  0
 43 44  1  0  0  0  0
 43 45  2  0  0  0  0
 37 46  1  0  0  0  0
 46 47  2  0  0  0  0
 47 48  1  0  0  0  0
 48 49  1  0  0  0  0
 49 50  1  0  0  0  0
 50 51  2  0  0  0  0
 51 52  1  0  0  0  0
 52 53  1  0  0  0  0
 53 54  2  0  0  0  0
 54 55  1  0  0  0  0
 54 56  1  0  0  0  0
 56 57  1  0  0  0  0
 56 58  2  0  0  0  0
 50 59  1  0  0  0  0
 59 60  2  0  0  0  0
 60 61  1  0  0  0  0
 61 62  2  0  0  0  0
 62 63  1  0  0  0  0
 63 64  1  0  0  0  0
 64 65  1  0  0  0  0
 65 66  1  0  0  0  0
 64 67  1  0  0  0  0
 67 68  1  0  0  0  0
 64 69  1  0  0  0  0
 69 70  2  0  0  0  0
 70 71  1  0  0  0  0
 71 72  1  0  0  0  0
 72 73  2  0  0  0  0
 70 74  1  0  0  0  0
 74 75  2  0  0  0  0
 75 76  1  0  0  0  0
 76 77  2  0  0  0  0
 76 78  1  0  0  0  0
 78 79  2  0  0  0  0
 79 80  1  0  0  0  0
 80 81  1  0  0  0  0
 81 82  1  0  0  0  0
 82 83  1  0  0  0  0
 81 84  1  0  0  0  0
 84 85  1  0  0  0  0
 81 86  1  0  0  0  0
 86 87  2  0  0  0  0
 87 88  1  0  0  0  0
 88 89  1  0  0  0  0
 89 90  2  0  0  0  0
 87 91  1  0  0  0  0
 91 92  2  0  0  0  0
 92 93  1  0  0  0  0
 93 94  2  0  0  0  0
 13  1  1  0  0  0  0
 30 18  1  0  0  0  0
 39 35  2  0  0  0  0
 52 48  2  0  0  0  0
 73 61  1  0  0  0  0
 90 78  1  0  0  0  0
 11  3  2  0  0  0  0
 28 20  2  0  0  0  0
 45 38  1  0  0  0  0
 58 51  1  0  0  0  0
 71 63  2  0  0  0  0
 88 80  2  0  0  0  0
 17  9  1  0  0  0  0
 34 26  1  0  0  0  0
 77 69  1  0  0  0  0
 94 86  1  0  0  0  0
  1 95  1  0  0  0  0
  2 96  1  0  0  0  0
  5 97  1  0  0  0  0
  5 98  1  0  0  0  0
  6 99  1  0  0  0  0
  6100  1  0  0  0  0
  6101  1  0  0  0  0
  7102  1  0  0  0  0
  7103  1  0  0  0  0
  8104  1  0  0  0  0
  8105  1  0  0  0  0
  8106  1  0  0  0  0
 12107  1  0  0  0  0
 13108  1  0  0  0  0
 14109  1  0  0  0  0
 15110  1  0  0  0  0
 17111  1  0  0  0  0
 19112  1  0  0  0  0
 22113  1  0  0  0  0
 22114  1  0  0  0  0
 23115  1  0  0  0  0
 23116  1  0  0  0  0
 23117  1  0  0  0  0
 24118  1  0  0  0  0
 24119  1  0  0  0  0
 25120  1  0  0  0  0
 25121  1  0  0  0  0
 25122  1  0  0  0  0
 29123  1  0  0  0  0
 30124  1  0  0  0  0
 31125  1  0  0  0  0
 32126  1  0  0  0  0
 34127  1  0  0  0  0
 40128  1  0  0  0  0
 42129  1  0  0  0  0
 42130  1  0  0  0  0
 42131  1  0  0  0  0
 44132  1  0  0  0  0
 44133  1  0  0  0  0
 44134  1  0  0  0  0
 45135  1  0  0  0  0
 46136  1  0  0  0  0
 47137  1  0  0  0  0
 53138  1  0  0  0  0
 55139  1  0  0  0  0
 55140  1  0  0  0  0
 55141  1  0  0  0  0
 57142  1  0  0  0  0
 57143  1  0  0  0  0
 57144  1  0  0  0  0
 58145  1  0  0  0  0
 59146  1  0  0  0  0
 60147  1  0  0  0  0
 62148  1  0  0  0  0
 65149  1  0  0  0  0
 65150  1  0  0  0  0
 66151  1  0  0  0  0
 66152  1  0  0  0  0
 66153  1  0  0  0  0
 67154  1  0  0  0  0
 67155  1  0  0  0  0
 68156  1  0  0  0  0
 68157  1  0  0  0  0
 68158  1  0  0  0  0
 72159  1  0  0  0  0
 73160  1  0  0  0  0
 74161  1  0  0  0  0
 75162  1  0  0  0  0
 77163  1  0  0  0  0
 79164  1  0  0  0  0
 82165  1  0  0  0  0
 82166  1  0  0  0  0
 83167  1  0  0  0  0
 83168  1  0  0  0  0
 83169  1  0  0  0  0
 84170  1  0  0  0  0
 84171  1  0  0  0  0
 85172  1  0  0  0  0
 85173  1  0  0  0  0
 85174  1  0  0  0  0
 89175  1  0  0  0  0
 90176  1  0  0  0  0
 91177  1  0  0  0  0
 92178  1  0  0  0  0
 93179  1  0  0  0  0
 94180  1  0  0  0  0
M  END
