132

C          3.37250        4.68720       -3.07170
C          2.45090        5.09520       -2.14270
F          2.02280        6.37470       -2.16720
C          1.94820        4.25830       -1.15150
C          2.37380        2.94190       -1.06450
C          3.25600        2.45370       -2.07290
N          3.55490        1.13870       -2.13390
C          4.35790        0.72920       -3.06530
C          4.96290        1.63640       -3.98500
O          5.85970        1.14080       -4.83460
C          6.50000        2.05530       -5.72120
C          5.59150        2.50490       -6.85520
N          4.66310        2.91040       -3.97660
C          3.77550        3.34340       -3.05130
C          1.91510        2.09070       -0.00240
S          0.28860        2.24480        0.57880
C          0.46160        0.92930        1.69360
C          1.77050        0.42670        1.65140
C          2.59850        1.09860        0.70360
C          3.96520        0.75820        0.64280
C          4.47490       -0.24210        1.42340
C          5.92860       -0.59380        1.33580
C          3.63390       -0.94310        2.33520
C          4.20330       -2.04020        3.18060
C          2.31670       -0.59340        2.45120
C         -0.61160        0.42990        2.45970
C         -1.76370        1.08350        2.76040
C         -2.86170        0.46730        3.40040
S         -3.03080       -1.26420        3.37340
C         -4.60240       -1.21570        4.09950
C         -4.94070        0.08530        4.45030
C         -3.96980        1.04710        4.02830
C         -4.21160        2.41180        4.27170
C         -5.35720        2.81760        4.90030
C         -5.59940        4.27290        5.15580
C         -6.32920        1.85750        5.31440
C         -7.57830        2.31780        6.00030
C         -6.12090        0.52730        5.08520
C         -5.43280       -2.40570        4.10030
C         -5.65590       -3.10050        2.97810
C         -5.14290       -2.61130        1.69360
C         -5.40810       -1.32440        1.26220
F         -6.35200       -0.59690        1.89520
C         -4.69200       -0.69250        0.25060
C         -3.69800       -1.37120       -0.42160
C         -3.54800       -2.75900       -0.17520
N         -2.76160       -3.50750       -0.97980
C         -2.59410       -4.75840       -0.68500
C         -3.19550       -5.33960        0.47080
O         -2.91080       -6.61060        0.75500
C         -3.54750       -7.15330        1.90920
C         -3.02900       -8.56410        2.11810
N         -4.01970       -4.66060        1.22640
C         -4.24500       -3.36630        0.90510
C         -2.75760       -0.65280       -1.28140
C         -3.15160        0.29660       -2.20110
F         -4.46720        0.51880       -2.40360
C         -2.25930        1.02980       -2.98080
C         -0.90240        0.83140       -2.85560
C         -0.43750       -0.11320       -1.91000
N          0.89290       -0.28720       -1.74240
C          1.29920       -1.16720       -0.88510
C          0.37270       -1.90880       -0.09140
O          0.85990       -2.77970        0.79070
C         -0.09550       -3.49850        1.56530
C          0.64470       -4.28970        2.62740
N         -0.91750       -1.73060       -0.20080
C         -1.36140       -0.85210       -1.12600
C          0.03790        1.55570       -3.71710
C         -0.01630        2.92370       -3.87410
F         -0.91000        3.63610       -3.15780
C          0.81990        3.63430       -4.74040
C          1.75600        2.96190       -5.47700
C          1.87730        1.56840       -5.34380
N          2.82030        0.90890       -6.06190
C          2.91160       -0.37510       -5.91570
C          2.02290       -1.09390       -5.06010
O          2.15480       -2.41610       -4.99000
C          1.24660       -3.09330       -4.12300
C          1.55770       -4.57760       -4.17480
N          1.08920       -0.48630       -4.37550
C          1.01550        0.85740       -4.46790
H          3.77250        5.36130       -3.81020
H          1.24570        4.65470       -0.43460
H          4.57210       -0.32860       -3.12030
H          6.84460        2.92290       -5.14840
H          7.35950        1.49980       -6.10460
H          6.16740        3.08200       -7.57330
H          5.15200        1.64330       -7.34930
H          4.79050        3.11930       -6.45760
H          4.61340        1.30400       -0.02310
H          6.42260        0.01420        0.58220
H          6.42430       -0.42930        2.29230
H          6.05570       -1.64310        1.07250
H          3.45000       -2.43320        3.85850
H          4.56260       -2.85630        2.55440
H          5.04420       -1.67880        3.77120
H          1.68610       -1.08930        3.17370
H         -0.48400       -0.57450        2.84440
H         -1.86950        2.12620        2.49210
H         -3.47670        3.13890        3.95870
H         -4.77180        4.87050        4.78240
H         -5.71070        4.46380        6.22270
H         -6.51370        4.60210        4.66330
H         -7.33890        2.85680        6.91660
H         -8.14360        2.99080        5.35690
H         -8.21030        1.47020        6.25230
H         -6.85500       -0.20470        5.38710
H         -5.87840       -2.70900        5.03880
H         -6.20110       -4.03170        2.98480
H         -4.88700        0.35110        0.06090
H         -1.99520       -5.36320       -1.35150
H         -3.32800       -6.51220        2.77060
H         -4.63200       -7.14660        1.75180
H         -3.24830       -9.17580        1.24730
H         -3.50480       -9.00320        2.99000
H         -1.95300       -8.54960        2.26900
H         -2.65730        1.73670       -3.69220
H          2.36430       -1.29820       -0.76380
H         -0.65770       -4.16460        0.90030
H         -0.80820       -2.79430        2.00970
H          1.19550       -3.61880        3.28030
H          1.34910       -4.97320        2.16150
H         -0.06690       -4.85750        3.21980
H          0.70450        4.70450       -4.80790
H          2.41390        3.47480       -6.15930
H          3.67370       -0.89790       -6.47580
H          0.22060       -2.88740       -4.44850
H          1.36240       -2.69440       -3.10900
H          1.44130       -4.95090       -5.18870
H          2.58020       -4.75790       -3.85400
H          0.87860       -5.11310       -3.51800
