302

C          0.84940       -4.47880       12.70970
C          2.00600       -4.82320       12.10890
C          1.88220       -4.94110       10.69200
C          2.87220       -5.27980        9.75830
C          4.23450       -5.63510       10.17680
C          5.35110       -5.02480        9.60910
C          6.62150       -5.36550       10.02040
C          6.83550       -6.33710       10.99730
S          8.51600       -6.71140       11.39750
C          8.49860       -7.06980       13.19320
C          7.96220       -5.90590       14.00210
C          5.71200       -6.96380       11.52790
F          5.83110       -7.95030       12.44560
C          4.43320       -6.61390       11.14480
C          2.49250       -5.28660        8.42420
C          1.16900       -5.02210        7.99020
C          0.17820       -4.68430        8.92600
C         -1.20290       -4.39090        8.52540
C         -1.83930       -3.22570        8.95390
C         -3.13210       -2.95270        8.57150
C         -3.85910       -3.82420        7.75590
S         -5.47820       -3.25730        7.34920
C         -6.35740       -4.61240        6.48290
C         -6.07400       -4.64470        4.99520
C         -3.21980       -4.99430        7.35970
C         -1.91710       -5.27330        7.72590
F         -3.84220       -5.92710        6.60680
C          0.57050       -4.63740       10.25690
S         -0.46810       -4.26150       11.60920
C          1.04700       -5.11970        6.57860
C          2.21280       -5.44590        5.95450
S          3.54080       -5.65770        7.08090
C          2.44550       -5.58670        4.55210
C          3.63960       -5.54040        3.89640
C          3.52020       -5.63760        2.48600
C          4.52890       -5.47460        1.51890
C          5.93510       -5.28190        1.89200
C          6.68360       -4.24400        1.34570
C          8.01730       -4.07390        1.66270
C          8.65400       -4.93900        2.54430
S         10.34730       -4.86980        3.01990
C         11.01130       -3.41290        2.14140
C         10.64560       -2.10510        2.81880
C          7.88850       -5.97160        3.09280
F          8.47490       -6.83120        3.94920
C          6.55980       -6.15230        2.78420
C          4.12190       -5.47010        0.19240
C          2.77830       -5.67930       -0.20070
C          1.76740       -5.82440        0.76300
C          0.35990       -5.88490        0.35310
C         -0.13780       -4.91310       -0.51080
C         -1.44840       -4.93050       -0.94040
C         -2.31430       -5.93610       -0.52560
S         -3.99980       -6.07110       -1.00580
C         -4.16850       -4.89630       -2.39590
C         -3.46190       -5.36890       -3.65100
C         -1.81040       -6.89240        0.36060
C         -0.50560       -6.87770        0.80520
F         -2.62580       -7.87180        0.79560
C          2.16730       -5.79230        2.08840
S          1.09360       -5.80520        3.46210
C          2.62170       -5.63660       -1.60720
C          3.76740       -5.32690       -2.27740
S          5.14250       -5.17950       -1.19910
C          3.83500       -4.90510       -3.63900
C          4.76840       -4.09770       -4.21690
C          4.34370       -3.53080       -5.44820
C          4.93950       -2.45490       -6.13250
C          6.27230       -1.99200       -5.72510
C          7.32280       -2.90550       -5.64260
C          8.56850       -2.50760       -5.20570
C          8.80840       -1.18990       -4.82950
S         10.43420       -0.75080       -4.26920
C         10.06660        0.04360       -2.66000
C          9.43770       -0.93300       -1.68500
C          7.76290       -0.28080       -4.95130
F          7.94570        1.01690       -4.62980
C          6.50900       -0.66530       -5.38300
C          4.17230       -1.84200       -7.11090
C          2.89790       -2.32720       -7.50240
C          2.31300       -3.42050       -6.84330
C          0.92300       -3.83660       -7.07030
C         -0.12480       -2.91410       -7.03400
C         -1.43210       -3.32760       -7.13990
C         -1.76200       -4.67610       -7.30420
S         -3.48110       -5.02070       -7.43370
C         -3.65760       -6.83230       -7.18340
C         -5.12550       -7.13900       -6.95730
C         -0.70610       -5.58080       -7.36840
C          0.60870       -5.17980       -7.23590
F         -0.91800       -6.90330       -7.56770
C          3.05470       -3.98240       -5.81680
S          2.43160       -5.13980       -4.66890
C          2.27500       -1.48080       -8.44820
C          2.96320       -0.32690       -8.69240
S          4.53700       -0.32930       -7.91330
C          2.33380        0.88120       -9.12690
C          2.62800        2.14990       -8.71780
C          1.49500        3.00910       -8.68720
C          1.40580        4.24100       -8.00820
C          2.63050        4.96580       -7.65750
C          3.61520        5.14690       -8.62750
C          4.78350        5.82870       -8.35060
C          5.01720        6.35370       -7.08410
S          6.46090        7.22170       -6.57650
C          7.35600        7.56180       -8.13080
C          6.68080        8.63670       -8.96150
C          4.03040        6.14920       -6.11690
F          4.23270        6.62090       -4.87040
C          2.85950        5.47680       -6.38120
C          0.12700        4.62630       -7.62290
C         -1.03440        3.93050       -8.03720
C         -0.95090        2.82390       -8.89650
C         -2.16820        2.13900       -9.35200
C         -3.15510        2.85190      -10.02590
C         -4.30510        2.23260      -10.47700
C         -4.51820        0.87720      -10.25160
S         -5.91490       -0.05190      -10.78480
C         -7.09960        1.20460      -11.37820
C         -7.74080        1.97790      -10.24110
C         -3.52620        0.17840       -9.55900
C         -2.37190        0.78130       -9.11460
F         -3.70240       -1.13300       -9.31160
C          0.32600        2.34890       -9.13840
S          0.69710        0.76170       -9.76310
C         -2.16700        4.26230       -7.24730
C         -1.90060        5.15710       -6.26030
S         -0.27230        5.81000       -6.39290
C         -2.58210        5.14910       -4.98480
C         -2.68790        3.96330       -4.32610
C         -3.19900        4.07620       -3.01160
C         -3.26010        3.06290       -2.04380
C         -2.79230        1.70580       -2.35930
C         -1.79960        1.10590       -1.58890
C         -1.27160       -0.12190       -1.93670
C         -1.71190       -0.79160       -3.07210
S         -1.07850       -2.35300       -3.61730
C          0.67450       -2.28900       -3.11190
C          1.45800       -1.22910       -3.85950
C         -2.74060       -0.20420       -3.80750
F         -3.21370       -0.83680       -4.89910
C         -3.27730        1.02030       -3.47100
C         -3.68730        3.44510       -0.78460
C         -4.07780        4.77070       -0.46420
C         -3.97650        5.78980       -1.42930
C         -4.28600        7.18730       -1.11100
C         -5.09610        7.94710       -1.95000
C         -5.38380        9.26750       -1.66500
C         -4.85780        9.88340       -0.53500
S         -5.15100       11.54810       -0.04390
C         -5.84460       12.33930       -1.53590
C         -4.81130       12.50130       -2.63450
C         -4.04700        9.10900        0.29790
C         -3.75940        7.79050        0.03040
F         -3.51860        9.67150        1.40340
C         -3.52620        5.41330       -2.68890
S         -3.16100        6.48870       -4.02610
C         -4.52550        4.86890        0.88120
C         -4.44160        3.69820        1.57260
S         -3.83510        2.38150        0.58430
C         -4.73390        3.43280        2.94390
C         -4.44530        2.28320        3.61580
C         -4.82030        2.30980        4.98210
C         -4.60940        1.31630        5.95120
C         -4.00050        0.03280        5.58440
C         -2.89400       -0.46950        6.26400
C         -2.29820       -1.64550        5.86040
C         -2.79390       -2.37760        4.78440
S         -1.97810       -3.89570        4.38520
C         -1.97570       -3.92220        2.55880
C         -1.30030       -2.69720        1.97770
C         -3.92260       -1.88270        4.13840
F         -4.47940       -2.54470        3.10040
C         -4.51220       -0.69470        4.51470
C         -5.00200        1.61930        7.24590
C         -5.61030        2.84830        7.60050
C         -5.81790        3.84150        6.63180
C         -6.41510        5.14030        6.96740
C         -5.89980        5.92150        7.99710
C         -6.44260        7.15610        8.29670
C         -7.52270        7.65320        7.57600
S         -8.32190        9.19530        7.87300
C         -7.08480       10.15900        8.80970
C         -5.87360       10.51020        7.96740
C         -8.03710        6.85230        6.55490
C         -7.50130        5.62380        6.24160
F         -9.09640        7.29240        5.84800
C         -5.41580        3.54390        5.33810
S         -5.50150        4.62780        3.96990
C         -5.97910        2.86970        8.97880
C         -5.65500        1.73250        9.62650
S         -4.88400        0.55420        8.62060
H          0.67140       -4.32570       13.75620
H          2.92910       -4.97920       12.63670
H          5.22030       -4.25880        8.86070
H          7.48290       -4.88090        9.58810
H          7.93590       -7.98370       13.36920
H          9.54970       -7.25210       13.41790
H          8.52520       -4.99990       13.78720
H          6.91400       -5.72370       13.77290
H          8.04710       -6.12810       15.06390
H          3.59870       -7.14060       11.58190
H         -1.30730       -2.51870        9.57150
H         -3.61530       -2.04310        8.89280
H         -7.40750       -4.38530        6.67200
H         -6.10700       -5.54930        6.97300
H         -6.35190       -3.69990        4.53470
H         -5.02220       -4.83460        4.80080
H         -6.65280       -5.44100        4.53200
H         -1.48190       -6.20240        7.39260
H          0.13410       -4.92740        6.04270
H          4.57350       -5.39330        4.40870
H          6.21410       -3.54190        0.67400
H          8.55460       -3.25830        1.20770
H         12.08980       -3.56880        2.16680
H         10.67930       -3.45620        1.10500
H         11.08510       -1.27100        2.27450
H         11.02540       -2.09350        3.83750
H          9.56720       -1.96780        2.85640
H          6.02770       -6.98430        3.21810
H          0.51420       -4.11600       -0.83260
H         -1.78960       -4.15320       -1.60390
H         -3.82830       -3.91400       -2.07160
H         -5.24630       -4.85260       -2.55370
H         -2.38790       -5.44590       -3.49560
H         -3.83990       -6.34560       -3.94380
H         -3.63920       -4.66160       -4.45880
H         -0.16900       -7.64940        1.47940
H          1.68220       -5.79400       -2.10600
H          5.68930       -3.83540       -3.72690
H          7.15560       -3.93360       -5.92570
H          9.37860       -3.21680       -5.13820
H         11.04170        0.37880       -2.30780
H          9.43440        0.91170       -2.83280
H          9.29340       -0.44890       -0.72070
H         10.08050       -1.80080       -1.55100
H          8.46980       -1.27420       -2.04950
H          5.72610        0.07500       -5.43430
H          0.08530       -1.86640       -6.87990
H         -2.23820       -2.61260       -7.08640
H         -3.05940       -7.10690       -6.31660
H         -3.28320       -7.34180       -8.06950
H         -5.49860       -6.60500       -6.08620
H         -5.25730       -8.20690       -6.79770
H         -5.71460       -6.83970       -7.82100
H          1.38220       -5.93030       -7.28980
H          1.30490       -1.67900       -8.86610
H          3.58000        2.41930       -8.29510
H          3.45500        4.75950       -9.62270
H          5.51570        5.94090       -9.13340
H          7.47920        6.62620       -8.67460
H          8.33660        7.89510       -7.79100
H          7.26240        8.82960       -9.86100
H          6.60710        9.55930       -8.39060
H          5.67730        8.33500       -9.25370
H          2.15090        5.33710       -5.58130
H         -3.01100        3.90530      -10.21580
H         -5.03210        2.81890      -11.01480
H         -6.59340        1.85240      -12.09270
H         -7.84550        0.61680      -11.91310
H         -8.46400        2.68810      -10.63760
H         -6.99480        2.52410       -9.66780
H         -8.25550        1.29560       -9.56900
H         -1.65590        0.19080       -8.56650
H         -3.11000        3.75360       -7.33980
H         -2.33970        3.03850       -4.74880
H         -1.41710        1.61720       -0.71900
H         -0.50070       -0.55400       -1.31840
H          1.04000       -3.28670       -3.35380
H          0.72910       -2.14290       -2.03400
H          1.40190       -1.40200       -4.93130
H          2.50440       -1.26740       -3.56090
H          1.07000       -0.23490       -3.64360
H         -4.07160        1.43030       -4.07510
H         -5.52880        7.49290       -2.82830
H         -6.03250        9.81190       -2.33150
H         -6.18080       13.31080       -1.17360
H         -6.71580       11.77190       -1.86090
H         -5.25570       13.00860       -3.48860
H         -3.97320       13.09380       -2.27550
H         -4.43200       11.53550       -2.96200
H         -3.10230        7.25130        0.69450
H         -4.90240        5.77360        1.32340
H         -3.94870        1.45120        3.14940
H         -2.47810        0.08170        7.09290
H         -1.42640       -2.02000        6.37340
H         -1.41570       -4.82620        2.32310
H         -2.99670       -4.03590        2.20180
H         -0.27880       -2.61740        2.34520
H         -1.83810       -1.78910        2.24540
H         -1.27900       -2.77760        0.89320
H         -5.39090       -0.36030        3.98490
H         -5.04830        5.56720        8.55870
H         -6.01720        7.72920        9.10460
H         -6.82090        9.61060        9.71320
H         -7.63130       11.05690        9.09820
H         -6.17820       11.07350        7.08860
H         -5.18210       11.11750        8.54830
H         -5.35440        9.61360        7.63510
H         -7.94280        5.04570        5.44520
H         -6.48060        3.70010        9.44160
H         -5.82140        1.49200       10.65840
