120

C          6.28540       -1.98150        1.46770
C          5.38030       -1.91010        0.41950
O          4.78410       -2.99900       -0.14950
C          5.10760       -4.27460        0.33790
C          5.05740       -0.65960       -0.14740
C          5.61840        0.48270        0.41290
C          6.51080        0.40770        1.46610
C          6.85580       -0.82710        1.98050
C          4.18410       -0.60910       -1.31020
C          4.32080        0.31350       -2.27260
C          3.59550        0.48770       -3.51670
C          2.50130       -0.30770       -3.93600
O          2.19250       -1.34280       -3.11290
C          1.33990       -2.38200       -3.51800
C          1.82960        0.00970       -5.12540
C          2.32990        1.02670       -5.93980
C          3.42230        1.77840       -5.56290
C          4.02540        1.52190       -4.34920
C          0.58570       -0.60880       -5.62110
C         -0.64540       -0.43890       -5.10890
C         -1.01680        0.27110       -3.92860
S          0.14000        0.95900       -2.84130
C         -1.07150        1.54700       -1.76230
C         -2.34410        1.28860       -2.26730
C         -2.31660        0.53400       -3.48100
C         -3.54100        0.15820       -4.06940
C         -4.73390        0.50400       -3.49650
C         -6.02540        0.08810       -4.13270
C         -4.75760        1.26370       -2.28980
C         -6.06710        1.64550       -1.66850
C         -3.58390        1.64020       -1.69740
C         -0.69140        2.26240       -0.57730
C          0.23760        1.86520        0.32350
C          0.82710        0.57770        0.46100
S          0.21830       -0.81850       -0.35660
C          1.20190       -1.91200        0.54330
C          1.99860       -1.21510        1.45420
C          1.78920        0.19600        1.40880
C          2.52330        1.01870        2.28300
C          3.38120        0.47950        3.20240
C          4.14690        1.36920        4.13250
C          3.54100       -0.93280        3.28940
C          4.42150       -1.51540        4.35190
C          2.87410       -1.74920        2.41920
C          1.20260       -3.31790        0.28110
C          0.18820       -4.02150       -0.24950
C         -1.13180       -3.44160       -0.53480
C         -1.90250       -2.85810        0.48010
O         -1.50770       -2.85360        1.80230
C         -1.31640       -4.11200        2.40710
C         -3.08050       -2.16710        0.16620
C         -3.49020       -2.09420       -1.16410
C         -2.78080       -2.74360       -2.15330
C         -1.61790       -3.42280       -1.83860
C         -3.86790       -1.57530        1.23890
C         -4.55840       -0.43860        1.12420
C         -5.41170        0.11960        2.16670
C         -5.50970        1.50950        2.32600
O         -4.69650        2.33490        1.56490
C         -3.35990        2.37290        2.02080
C         -6.38610        2.06460        3.26670
C         -7.13520        1.19690        4.06420
C         -7.03260       -0.17290        3.92680
C         -6.18150       -0.70910        2.98000
C         -6.54790        3.50260        3.47030
C         -6.34270        4.45450        2.56970
H          6.56190       -2.93220        1.89650
H          6.17310       -4.49720        0.21650
H          4.83570       -4.38990        1.39340
H          4.52810       -4.97670       -0.26130
H          5.33840        1.44740        0.01830
H          6.94130        1.30940        1.87620
H          7.57180       -0.90360        2.78670
H          3.46560       -1.40590       -1.39020
H          5.10910        1.04810       -2.14640
H          1.52590       -2.68230       -4.55280
H          1.56720       -3.21520       -2.85040
H          0.28810       -2.10880       -3.39930
H          1.81730        1.23870       -6.86730
H          3.78740        2.56880       -6.20130
H          4.86330        2.12640       -4.03300
H          0.67490       -1.12420       -6.57050
H         -1.47790       -0.87580       -5.64650
H         -3.53540       -0.40940       -4.98910
H         -6.59920       -0.54940       -3.45980
H         -6.63820        0.95830       -4.36530
H         -5.84160       -0.46080       -5.05320
H         -5.90320        2.17960       -0.73580
H         -6.64040        2.28480       -2.33990
H         -6.67060        0.76240       -1.45770
H         -3.59730        2.21990       -0.78770
H         -1.19060        3.21080       -0.41670
H          0.50510        2.56420        1.10620
H          2.39990        2.09060        2.22870
H          5.21790        1.21410        4.00990
H          3.92350        2.41430        3.93330
H          3.89470        1.15310        5.17040
H          4.45680       -2.59910        4.26950
H          4.04490       -1.25810        5.34200
H          5.43500       -1.12790        4.26840
H          2.99300       -2.82140        2.48340
H          2.12480       -3.82990        0.52610
H          0.32890       -5.06560       -0.50150
H         -2.25420       -4.67990        2.43510
H         -0.98680       -3.90640        3.42440
H         -0.55670       -4.70730        1.89250
H         -4.39270       -1.55660       -1.40860
H         -3.12890       -2.71390       -3.17480
H         -1.05290       -3.92170       -2.61250
H         -3.83480       -2.09670        2.18680
H         -4.48780        0.14140        0.21460
H         -2.86000        1.40690        1.89050
H         -3.31680        2.66180        3.07650
H         -2.85110        3.12740        1.42380
H         -7.81050        1.61570        4.79650
H         -7.62340       -0.82410        4.55410
H         -6.11870       -1.77860        2.84620
H         -6.90830        3.77240        4.45670
H         -6.50240        5.49280        2.80970
H         -6.01390        4.23350        1.57020
