248

C         -2.67120       -6.20820       18.32650
S         -3.17420       -6.57180       16.73850
C         -3.40230       -4.89480       16.34000
C         -3.08660       -4.09010       17.44060
C         -2.66510       -4.85230       18.57680
C         -2.30150       -4.18220       19.76720
C         -2.34850       -2.81990       19.83650
C         -1.95970       -2.11310       21.09820
C         -2.77050       -2.05830       18.70310
C         -2.81720       -0.56470       18.79290
C         -3.12830       -2.68640       17.54180
C         -3.82480       -4.47380       15.05930
C         -4.06170       -5.28300       14.00050
C         -4.43690       -4.81310       12.71370
C         -4.59490       -5.55630       11.57590
C         -4.90900       -4.79140       10.42690
C         -5.07190       -5.23890        9.10460
C         -4.89070       -6.64540        8.72570
C         -3.73620       -7.34510        9.07310
C         -3.55120       -8.64470        8.65250
C         -4.51220       -9.30330        7.88830
S         -4.17790      -10.97560        7.41640
C         -4.77270      -11.06330        5.68620
C         -4.10840      -10.02740        4.80200
C         -5.67850       -8.60710        7.58640
F         -6.67900       -9.19890        6.89900
C         -5.86360       -7.29590        7.97420
C         -5.36610       -4.27570        8.15220
C         -5.49760       -2.90010        8.46060
C         -5.32580       -2.44560        9.78060
C         -5.42340       -1.01580       10.09830
C         -4.74350       -0.06450        9.34110
C         -4.88080        1.28760        9.58960
C         -5.69810        1.74140       10.61900
S         -6.00350        3.42480       11.02600
C         -5.14700        4.37950        9.72750
C         -3.66730        4.55680       10.01190
C         -6.34050        0.77480       11.39700
C         -6.22000       -0.57400       11.15310
F         -7.12620        1.17640       12.41730
C         -5.04070       -3.41090       10.73160
S         -4.71680       -3.10390       12.41620
C         -5.75420       -2.12490        7.30610
C         -5.74940       -2.84510        6.14660
S         -5.51880       -4.55720        6.43450
C         -5.77760       -2.28830        4.83220
C         -5.52980       -0.97720        4.54360
C         -5.47910       -0.69310        3.15950
C         -5.10580        0.52280        2.55670
C         -4.81270        1.69610        3.38790
C         -3.62920        2.41160        3.22960
C         -3.30990        3.46440        4.06460
C         -4.16600        3.84300        5.09170
S         -3.84570        5.12210        6.26310
C         -2.58880        6.16300        5.44670
C         -3.13680        6.87110        4.22330
C         -5.35420        3.12550        5.23350
F         -6.20100        3.45570        6.23230
C         -5.68850        2.07990        4.40370
C         -4.95090        0.50460        1.17980
C         -5.19290       -0.65320        0.39870
C         -5.55650       -1.87060        1.00220
C         -5.67120       -3.09120        0.19560
C         -4.65890       -3.43380       -0.69860
C         -4.76220       -4.54350       -1.51300
C         -5.88470       -5.36230       -1.45870
S         -6.17260       -6.76970       -2.47420
C         -4.81990       -6.73340       -3.70310
C         -3.54440       -7.38430       -3.20190
C         -6.86960       -5.03480       -0.52270
C         -6.78010       -3.92850        0.29250
F         -7.96150       -5.81810       -0.42730
C         -5.69840       -1.85720        2.37980
S         -5.99940       -3.25070        3.38870
C         -4.93570       -0.42660       -0.97320
C         -4.44380        0.81760       -1.24510
S         -4.39410        1.82830        0.18510
C         -3.80270        1.20010       -2.46220
C         -3.48680        0.34360       -3.47870
C         -2.57800        0.88360       -4.41570
C         -1.94790        0.21120       -5.47450
C         -2.13090       -1.22360       -5.72680
C         -1.99280       -2.15350       -4.69630
C         -2.03870       -3.50560       -4.95990
C         -2.23250       -3.98510       -6.25320
S         -2.24750       -5.73940       -6.49080
C         -1.24520       -5.97310       -8.00640
C          0.13540       -5.36100       -7.88220
C         -2.41910       -3.04670       -7.26330
F         -2.66210       -3.44050       -8.53150
C         -2.35290       -1.69010       -7.01810
C         -1.01240        0.93520       -6.19450
C         -0.68800        2.28390       -5.91120
C         -1.34020        2.96360       -4.86790
C         -0.98290        4.35800       -4.57610
C         -1.01560        5.31230       -5.59180
C         -0.60730        6.60760       -5.35180
C         -0.14410        6.99000       -4.09790
S          0.41840        8.65720       -3.86030
C          2.12870        8.35300       -3.27560
C          2.95960        7.63980       -4.32380
C         -0.15960        6.04060       -3.08180
C         -0.56610        4.74050       -3.30590
F          0.24770        6.36770       -1.83760
C         -2.25090        2.23260       -4.12190
S         -3.07450        2.77710       -2.68160
C          0.44070        2.72070       -6.65240
C          0.97310        1.75530       -7.45240
S          0.04640        0.26550       -7.40670
C          2.21670        1.76440       -8.14570
C          2.79440        0.70420       -8.77810
C          4.12990        0.94080       -9.18140
C          5.01270        0.03710       -9.79710
C          4.59580       -1.35090      -10.03530
C          4.05250       -2.10290       -8.99340
C          3.59350       -3.38290       -9.21430
C          3.66520       -3.96550      -10.47690
S          3.03580       -5.61190      -10.65320
C          2.08700       -5.53350      -12.21810
C          0.99500       -4.48390      -12.16640
C          4.26510       -3.22780      -11.49270
F          4.41240       -3.75210      -12.72800
C          4.71650       -1.93820      -11.28900
C          6.27720        0.51280      -10.09760
C          6.69990        1.83140       -9.78810
C          5.81900        2.73070       -9.16230
C          6.24300        4.09000       -8.80270
C          6.82180        4.93790       -9.74560
C          7.24680        6.19990       -9.38750
C          7.10450        6.66790       -8.08360
S          7.67380        8.30610       -7.72340
C          8.58420        8.08390       -6.14910
C          9.69440        7.05990       -6.27740
C          6.48430        5.82850       -7.16400
C          6.07160        4.55630       -7.50320
F          6.27340        6.23440       -5.89190
C          4.55150        2.25540       -8.86680
S          3.28280        3.15410       -8.07010
C          8.06590        2.03560      -10.09860
C          8.68880        0.93490      -10.61620
S          7.57810       -0.41920      -10.78770
C         10.04870        0.78060      -11.00330
S         10.48200       -0.41170      -12.17820
C         12.14800        0.04570      -12.17440
C         12.37680        1.05510      -11.23650
C         11.18230        1.47660      -10.56910
C         11.27490        2.44760       -9.55170
C         12.47770        3.00370       -9.21510
C         12.55200        4.03530       -8.13240
C         13.66870        2.58000       -9.87330
C         14.98660        3.16630       -9.47140
C         13.60890        1.62180      -10.84610
C         13.02510       -0.62170      -13.09520
C         14.15950       -0.14290      -13.60460
H         -2.40450       -7.00300       18.99440
H         -1.98450       -4.76860       20.61730
H         -1.13370       -1.42670       20.91610
H         -1.65430       -2.82750       21.85850
H         -2.79530       -1.53130       21.48580
H         -3.48810       -0.24750       19.59050
H         -3.16580       -0.13500       17.85740
H         -1.82880       -0.16160       19.01170
H         -3.44630       -2.10290       16.69060
H         -3.94770       -3.40600       14.92990
H         -3.93950       -6.35400       14.09990
H         -4.48690       -6.62590       11.56240
H         -2.96430       -6.85100        9.64320
H         -2.64700       -9.17720        8.90380
H         -5.85630      -10.97010        5.67910
H         -4.50120      -12.07410        5.38130
H         -4.36920       -9.01920        5.11920
H         -3.02580      -10.13170        4.83740
H         -4.44020      -10.15830        3.77400
H         -6.78530       -6.80250        7.70780
H         -4.07730       -0.38770        8.55480
H         -4.34850        1.98720        8.96620
H         -5.33670        3.90530        8.76660
H         -5.65510        5.34340        9.73810
H         -3.52540        5.09610       10.94550
H         -3.20960        5.12440        9.20420
H         -3.16160        3.59740       10.09360
H         -6.76790       -1.26910       11.76920
H         -5.94290       -1.06830        7.33840
H         -5.31960       -0.24680        5.30180
H         -2.92790        2.12280        2.46240
H         -2.37240        3.97630        3.91990
H         -2.31240        6.87950        6.22060
H         -1.71940        5.54760        5.21850
H         -2.36740        7.50670        3.78960
H         -3.98720        7.49130        4.49740
H         -3.46120        6.15670        3.46930
H         -6.63390        1.57950        4.54350
H         -3.76340       -2.83190       -0.74310
H         -3.95880       -4.76190       -2.19690
H         -4.66720       -5.70140       -4.01530
H         -5.22230       -7.29120       -4.54820
H         -2.78370       -7.32840       -3.97810
H         -3.17130       -6.89280       -2.30610
H         -3.72570       -8.42930       -2.96330
H         -7.58570       -3.71260        0.97620
H         -5.09510       -1.17230       -1.72880
H         -3.86090       -0.66090       -3.54030
H         -1.79680       -1.81180       -3.69150
H         -1.89780       -4.22250       -4.16560
H         -1.79660       -5.57380       -8.85510
H         -1.18750       -7.05770       -8.09840
H          0.07740       -4.27520       -7.81840
H          0.73340       -5.62460       -8.75270
H          0.63920       -5.73390       -6.99260
H         -2.49360       -1.00690       -7.84110
H         -1.36320        5.03090       -6.57430
H         -0.62410        7.34370       -6.14030
H          2.08120        7.79580       -2.34210
H          2.51690        9.35100       -3.07530
H          2.55670        6.64940       -4.53080
H          3.98350        7.52710       -3.97340
H          2.97160        8.20700       -5.25200
H         -0.53510        4.03440       -2.49110
H          0.88480        3.69440       -6.54510
H          2.27770       -0.22570       -8.93490
H          3.99560       -1.67810       -8.00280
H          3.16060       -3.95630       -8.40920
H          2.77810       -5.36310      -13.04050
H          1.66760       -6.53550      -12.30870
H          1.42010       -3.48630      -12.06960
H          0.33150       -4.65900      -11.32190
H          0.40970       -4.52020      -13.08290
H          5.14980       -1.40100      -12.11820
H          6.92960        4.60530      -10.76680
H          7.70260        6.85120      -10.11700
H          7.87730        7.82190       -5.36490
H          8.98590        9.07680       -5.94830
H          9.28620        6.06990       -6.47470
H         10.26430        7.01820       -5.35120
H         10.36670        7.32560       -7.09060
H          5.62360        3.93660       -6.74230
H          8.55740        2.97930       -9.95890
H         10.38780        2.72950       -9.00710
H         13.18330        3.69020       -7.31430
H         11.56210        4.24970       -7.73720
H         12.98090        4.96130       -8.51340
H         15.18530        2.97910       -8.41670
H         14.98940        4.24510       -9.62280
H         15.79380        2.73320      -10.05640
H         14.51840        1.26380      -11.30100
H         12.67100       -1.59200      -13.42300
H         14.52780        0.84140      -13.37770
H         14.74160       -0.72510      -14.29720
