
  xtb     03042208563D
 energy: -418.499626384881 gnorm: 0.000540489156 xtb: 6.4.1 (unknown)
248271  0     0  0            999 V2000
   -7.3275    7.8526   -4.8863 C   0  0  0  0  0  0  0  0  0  0  0  0
   -7.8162    9.0085   -3.7297 S   0  0  0  0  0  0  0  0  0  0  0  0
   -7.8427    7.8316   -2.4443 C   0  0  0  0  0  0  0  0  0  0  0  0
   -7.4540    6.5752   -2.9346 C   0  0  0  0  0  0  0  0  0  0  0  0
   -7.1897    6.5934   -4.3425 C   0  0  0  0  0  0  0  0  0  0  0  0
   -6.8997    5.3824   -5.0113 C   0  0  0  0  0  0  0  0  0  0  0  0
   -6.8807    4.2004   -4.3283 C   0  0  0  0  0  0  0  0  0  0  0  0
   -6.6605    2.9115   -5.0532 C   0  0  0  0  0  0  0  0  0  0  0  0
   -7.0878    4.1886   -2.9148 C   0  0  0  0  0  0  0  0  0  0  0  0
   -7.0247    2.8914   -2.1734 C   0  0  0  0  0  0  0  0  0  0  0  0
   -7.3554    5.3520   -2.2440 C   0  0  0  0  0  0  0  0  0  0  0  0
   -8.3266    8.1419   -1.1585 C   0  0  0  0  0  0  0  0  0  0  0  0
   -8.9323    9.3125   -0.8136 C   0  0  0  0  0  0  0  0  0  0  0  0
   -9.5845    9.5635    0.4076 C   0  0  0  0  0  0  0  0  0  0  0  0
   -9.6962    8.3726    1.6668 S   0  0  0  0  0  0  0  0  0  0  0  0
  -10.7475    9.3419    2.6495 C   0  0  0  0  0  0  0  0  0  0  0  0
  -10.9752   10.5817    2.0222 C   0  0  0  0  0  0  0  0  0  0  0  0
  -10.3155   10.7101    0.7660 C   0  0  0  0  0  0  0  0  0  0  0  0
  -10.4524   11.9002    0.0309 C   0  0  0  0  0  0  0  0  0  0  0  0
  -11.2077   12.9376    0.5088 C   0  0  0  0  0  0  0  0  0  0  0  0
  -11.3383   14.2027   -0.2811 C   0  0  0  0  0  0  0  0  0  0  0  0
  -11.8685   12.8130    1.7625 C   0  0  0  0  0  0  0  0  0  0  0  0
  -12.6915   13.9502    2.2834 C   0  0  0  0  0  0  0  0  0  0  0  0
  -11.7499   11.6593    2.4908 C   0  0  0  0  0  0  0  0  0  0  0  0
  -11.2401    8.9661    3.9220 C   0  0  0  0  0  0  0  0  0  0  0  0
  -11.0009    7.8766    4.6914 C   0  0  0  0  0  0  0  0  0  0  0  0
  -10.2041    6.7209    4.3938 C   0  0  0  0  0  0  0  0  0  0  0  0
  -10.1491    5.9262    3.2897 C   0  0  0  0  0  0  0  0  0  0  0  0
   -9.1515    4.9164    3.3478 C   0  0  0  0  0  0  0  0  0  0  0  0
   -8.7867    3.9818    2.3613 C   0  0  0  0  0  0  0  0  0  0  0  0
   -9.4550    3.8837    1.0585 C   0  0  0  0  0  0  0  0  0  0  0  0
   -9.7643    5.0099    0.3033 C   0  0  0  0  0  0  0  0  0  0  0  0
  -10.3335    4.9110   -0.9522 C   0  0  0  0  0  0  0  0  0  0  0  0
  -10.6137    3.6691   -1.5069 C   0  0  0  0  0  0  0  0  0  0  0  0
  -11.3019    3.3748   -3.1000 S   0  0  0  0  0  0  0  0  0  0  0  0
  -11.7901    5.0257   -3.7071 C   0  0  0  0  0  0  0  0  0  0  0  0
  -10.6448    5.7653   -4.3711 C   0  0  0  0  0  0  0  0  0  0  0  0
  -10.3155    2.5444   -0.7340 C   0  0  0  0  0  0  0  0  0  0  0  0
  -10.5866    1.3207   -1.2343 F   0  0  0  0  0  0  0  0  0  0  0  0
   -9.7554    2.6318    0.5185 C   0  0  0  0  0  0  0  0  0  0  0  0
   -7.7051    3.1611    2.6598 C   0  0  0  0  0  0  0  0  0  0  0  0
   -7.0301    3.1742    3.9034 C   0  0  0  0  0  0  0  0  0  0  0  0
   -7.4420    4.0572    4.9147 C   0  0  0  0  0  0  0  0  0  0  0  0
   -6.8128    4.0428    6.2397 C   0  0  0  0  0  0  0  0  0  0  0  0
   -6.6802    2.8459    6.9435 C   0  0  0  0  0  0  0  0  0  0  0  0
   -6.1427    2.8331    8.2120 C   0  0  0  0  0  0  0  0  0  0  0  0
   -5.6992    4.0044    8.8237 C   0  0  0  0  0  0  0  0  0  0  0  0
   -5.0110    3.8594   10.4458 S   0  0  0  0  0  0  0  0  0  0  0  0
   -5.6154    5.3501   11.3210 C   0  0  0  0  0  0  0  0  0  0  0  0
   -7.1277    5.4482   11.3038 C   0  0  0  0  0  0  0  0  0  0  0  0
   -5.7947    5.1835    8.0910 C   0  0  0  0  0  0  0  0  0  0  0  0
   -6.3563    5.2156    6.8308 C   0  0  0  0  0  0  0  0  0  0  0  0
   -5.3329    6.3504    8.5927 F   0  0  0  0  0  0  0  0  0  0  0  0
   -8.4658    4.9329    4.5903 C   0  0  0  0  0  0  0  0  0  0  0  0
   -9.0857    6.1775    5.6389 S   0  0  0  0  0  0  0  0  0  0  0  0
   -5.9009    2.3163    3.9106 C   0  0  0  0  0  0  0  0  0  0  0  0
   -5.6881    1.6888    2.7205 C   0  0  0  0  0  0  0  0  0  0  0  0
   -6.9190    2.0795    1.5363 S   0  0  0  0  0  0  0  0  0  0  0  0
   -4.5895    0.8616    2.3453 C   0  0  0  0  0  0  0  0  0  0  0  0
   -4.2353    0.4891    1.0828 C   0  0  0  0  0  0  0  0  0  0  0  0
   -3.0270   -0.2479    1.0279 C   0  0  0  0  0  0  0  0  0  0  0  0
   -2.3771   -0.7470   -0.1118 C   0  0  0  0  0  0  0  0  0  0  0  0
   -2.8451   -0.4603   -1.4726 C   0  0  0  0  0  0  0  0  0  0  0  0
   -3.0937    0.8493   -1.8819 C   0  0  0  0  0  0  0  0  0  0  0  0
   -3.4181    1.1233   -3.1930 C   0  0  0  0  0  0  0  0  0  0  0  0
   -3.5356    0.1070   -4.1401 C   0  0  0  0  0  0  0  0  0  0  0  0
   -3.9491    0.5768   -5.7950 S   0  0  0  0  0  0  0  0  0  0  0  0
   -2.9528   -0.5455   -6.8415 C   0  0  0  0  0  0  0  0  0  0  0  0
   -1.4712   -0.4520   -6.5373 C   0  0  0  0  0  0  0  0  0  0  0  0
   -3.3461   -1.1999   -3.7015 C   0  0  0  0  0  0  0  0  0  0  0  0
   -3.5067   -2.2433   -4.5436 F   0  0  0  0  0  0  0  0  0  0  0  0
   -2.9825   -1.4857   -2.4014 C   0  0  0  0  0  0  0  0  0  0  0  0
   -1.2134   -1.4687    0.1031 C   0  0  0  0  0  0  0  0  0  0  0  0
   -0.6721   -1.6947    1.3919 C   0  0  0  0  0  0  0  0  0  0  0  0
   -1.3185   -1.1914    2.5357 C   0  0  0  0  0  0  0  0  0  0  0  0
   -0.7469   -1.4196    3.8671 C   0  0  0  0  0  0  0  0  0  0  0  0
   -0.3259   -2.6919    4.2495 C   0  0  0  0  0  0  0  0  0  0  0  0
    0.2881   -2.9092    5.4667 C   0  0  0  0  0  0  0  0  0  0  0  0
    0.5059   -1.8578    6.3520 C   0  0  0  0  0  0  0  0  0  0  0  0
    1.3139   -2.0105    7.9043 S   0  0  0  0  0  0  0  0  0  0  0  0
    2.2261   -3.5921    7.7341 C   0  0  0  0  0  0  0  0  0  0  0  0
    3.2637   -3.6827    8.8358 C   0  0  0  0  0  0  0  0  0  0  0  0
    0.0335   -0.5977    5.9776 C   0  0  0  0  0  0  0  0  0  0  0  0
   -0.5772   -0.3678    4.7656 C   0  0  0  0  0  0  0  0  0  0  0  0
    0.2026    0.4409    6.8190 F   0  0  0  0  0  0  0  0  0  0  0  0
   -2.4786   -0.4642    2.3183 C   0  0  0  0  0  0  0  0  0  0  0  0
   -3.4596    0.2832    3.5530 S   0  0  0  0  0  0  0  0  0  0  0  0
    0.5751   -2.3625    1.3267 C   0  0  0  0  0  0  0  0  0  0  0  0
    0.9777   -2.6524    0.0561 C   0  0  0  0  0  0  0  0  0  0  0  0
   -0.1774   -2.1154   -1.1438 S   0  0  0  0  0  0  0  0  0  0  0  0
    2.2094   -3.2738   -0.3126 C   0  0  0  0  0  0  0  0  0  0  0  0
    3.0621   -3.9329    0.5237 C   0  0  0  0  0  0  0  0  0  0  0  0
    4.2649   -4.3460   -0.0993 C   0  0  0  0  0  0  0  0  0  0  0  0
    5.3697   -4.9856    0.4900 C   0  0  0  0  0  0  0  0  0  0  0  0
    5.3711   -5.3100    1.9214 C   0  0  0  0  0  0  0  0  0  0  0  0
    5.7012   -6.5834    2.3737 C   0  0  0  0  0  0  0  0  0  0  0  0
    5.6442   -6.9063    3.7167 C   0  0  0  0  0  0  0  0  0  0  0  0
    5.2457   -5.9655    4.6588 C   0  0  0  0  0  0  0  0  0  0  0  0
    5.0965   -6.2305    6.3942 S   0  0  0  0  0  0  0  0  0  0  0  0
    5.4077   -8.0145    6.6169 C   0  0  0  0  0  0  0  0  0  0  0  0
    4.2240   -8.8667    6.1991 C   0  0  0  0  0  0  0  0  0  0  0  0
    4.9459   -4.6840    4.1934 C   0  0  0  0  0  0  0  0  0  0  0  0
    4.5648   -3.7399    5.0816 F   0  0  0  0  0  0  0  0  0  0  0  0
    5.0088   -4.3459    2.8622 C   0  0  0  0  0  0  0  0  0  0  0  0
    6.4382   -5.2704   -0.3456 C   0  0  0  0  0  0  0  0  0  0  0  0
    6.4594   -4.9320   -1.7227 C   0  0  0  0  0  0  0  0  0  0  0  0
    5.3557   -4.2925   -2.3094 C   0  0  0  0  0  0  0  0  0  0  0  0
    5.3437   -3.8898   -3.7207 C   0  0  0  0  0  0  0  0  0  0  0  0
    6.3819   -3.1378   -4.2685 C   0  0  0  0  0  0  0  0  0  0  0  0
    6.3270   -2.7189   -5.5801 C   0  0  0  0  0  0  0  0  0  0  0  0
    5.2492   -3.0428   -6.4035 C   0  0  0  0  0  0  0  0  0  0  0  0
    5.3156   -2.4710   -8.0741 S   0  0  0  0  0  0  0  0  0  0  0  0
    3.5808   -2.0584   -8.4900 C   0  0  0  0  0  0  0  0  0  0  0  0
    2.9892   -1.0406   -7.5355 C   0  0  0  0  0  0  0  0  0  0  0  0
    4.2389   -3.8254   -5.8529 C   0  0  0  0  0  0  0  0  0  0  0  0
    4.2673   -4.2287   -4.5336 C   0  0  0  0  0  0  0  0  0  0  0  0
    3.1856   -4.2260   -6.5985 F   0  0  0  0  0  0  0  0  0  0  0  0
    4.2792   -4.0224   -1.4783 C   0  0  0  0  0  0  0  0  0  0  0  0
    2.8243   -3.1814   -1.9476 S   0  0  0  0  0  0  0  0  0  0  0  0
    7.6789   -5.3085   -2.3401 C   0  0  0  0  0  0  0  0  0  0  0  0
    8.5746   -5.8731   -1.4827 C   0  0  0  0  0  0  0  0  0  0  0  0
    7.9419   -6.0055    0.1479 S   0  0  0  0  0  0  0  0  0  0  0  0
    9.9047   -6.2997   -1.7702 C   0  0  0  0  0  0  0  0  0  0  0  0
   10.8126   -6.8403   -0.9107 C   0  0  0  0  0  0  0  0  0  0  0  0
   12.0742   -7.1012   -1.5057 C   0  0  0  0  0  0  0  0  0  0  0  0
   13.2131   -7.6649   -0.9093 C   0  0  0  0  0  0  0  0  0  0  0  0
   13.2462   -8.0008    0.5189 C   0  0  0  0  0  0  0  0  0  0  0  0
   13.6699   -9.2547    0.9563 C   0  0  0  0  0  0  0  0  0  0  0  0
   13.7158   -9.5505    2.3010 C   0  0  0  0  0  0  0  0  0  0  0  0
   13.3413   -8.6148    3.2652 C   0  0  0  0  0  0  0  0  0  0  0  0
   13.4114   -9.1253    4.9530 S   0  0  0  0  0  0  0  0  0  0  0  0
   13.8059   -7.5821    5.8712 C   0  0  0  0  0  0  0  0  0  0  0  0
   14.4628   -7.9509    7.1866 C   0  0  0  0  0  0  0  0  0  0  0  0
   12.9006   -7.3744    2.8132 C   0  0  0  0  0  0  0  0  0  0  0  0
   12.4847   -6.4242    3.6819 F   0  0  0  0  0  0  0  0  0  0  0  0
   12.8620   -7.0608    1.4699 C   0  0  0  0  0  0  0  0  0  0  0  0
   14.3122   -7.8646   -1.7333 C   0  0  0  0  0  0  0  0  0  0  0  0
   14.3274   -7.5150   -3.1048 C   0  0  0  0  0  0  0  0  0  0  0  0
   13.1896   -6.9516   -3.7012 C   0  0  0  0  0  0  0  0  0  0  0  0
   13.1575   -6.5994   -5.1263 C   0  0  0  0  0  0  0  0  0  0  0  0
   12.7367   -5.3392   -5.5473 C   0  0  0  0  0  0  0  0  0  0  0  0
   12.7124   -5.0189   -6.8871 C   0  0  0  0  0  0  0  0  0  0  0  0
   13.0883   -5.9408   -7.8632 C   0  0  0  0  0  0  0  0  0  0  0  0
   12.9585   -5.4210   -9.5478 S   0  0  0  0  0  0  0  0  0  0  0  0
   14.3933   -6.1957  -10.3805 C   0  0  0  0  0  0  0  0  0  0  0  0
   15.7081   -5.7809   -9.7513 C   0  0  0  0  0  0  0  0  0  0  0  0
   13.4750   -7.2053   -7.4294 C   0  0  0  0  0  0  0  0  0  0  0  0
   13.5285   -7.5319   -6.0893 C   0  0  0  0  0  0  0  0  0  0  0  0
   13.8117   -8.1721   -8.3129 F   0  0  0  0  0  0  0  0  0  0  0  0
   12.0909   -6.7508   -2.8785 C   0  0  0  0  0  0  0  0  0  0  0  0
   10.5565   -6.0935   -3.3853 S   0  0  0  0  0  0  0  0  0  0  0  0
   15.6049   -7.7569   -3.6932 C   0  0  0  0  0  0  0  0  0  0  0  0
   16.4969   -8.2679   -2.8214 C   0  0  0  0  0  0  0  0  0  0  0  0
   15.8597   -8.4944   -1.2284 S   0  0  0  0  0  0  0  0  0  0  0  0
   -7.1833    8.1506   -5.9055 H   0  0  0  0  0  0  0  0  0  0  0  0
   -6.7239    5.4077   -6.0767 H   0  0  0  0  0  0  0  0  0  0  0  0
   -7.5157    2.2510   -4.9161 H   0  0  0  0  0  0  0  0  0  0  0  0
   -5.7818    2.3900   -4.6783 H   0  0  0  0  0  0  0  0  0  0  0  0
   -6.5234    3.0853   -6.1170 H   0  0  0  0  0  0  0  0  0  0  0  0
   -7.8059    2.2162   -2.5214 H   0  0  0  0  0  0  0  0  0  0  0  0
   -6.0680    2.3959   -2.3359 H   0  0  0  0  0  0  0  0  0  0  0  0
   -7.1600    3.0503   -1.1067 H   0  0  0  0  0  0  0  0  0  0  0  0
   -7.5080    5.3295   -1.1755 H   0  0  0  0  0  0  0  0  0  0  0  0
   -8.2545    7.3525   -0.4236 H   0  0  0  0  0  0  0  0  0  0  0  0
   -8.9821   10.1021   -1.5523 H   0  0  0  0  0  0  0  0  0  0  0  0
   -9.9473   11.9959   -0.9188 H   0  0  0  0  0  0  0  0  0  0  0  0
  -10.7754   14.1353   -1.2086 H   0  0  0  0  0  0  0  0  0  0  0  0
  -12.3823   14.3995   -0.5234 H   0  0  0  0  0  0  0  0  0  0  0  0
  -10.9648   15.0527    0.2891 H   0  0  0  0  0  0  0  0  0  0  0  0
  -12.0789   14.8430    2.4046 H   0  0  0  0  0  0  0  0  0  0  0  0
  -13.4958   14.1923    1.5895 H   0  0  0  0  0  0  0  0  0  0  0  0
  -13.1297   13.6992    3.2460 H   0  0  0  0  0  0  0  0  0  0  0  0
  -12.2563   11.5787    3.4413 H   0  0  0  0  0  0  0  0  0  0  0  0
  -11.8691    9.7242    4.3719 H   0  0  0  0  0  0  0  0  0  0  0  0
  -11.3782    7.9057    5.7064 H   0  0  0  0  0  0  0  0  0  0  0  0
  -10.8366    6.0314    2.4715 H   0  0  0  0  0  0  0  0  0  0  0  0
   -9.5262    5.9864    0.6907 H   0  0  0  0  0  0  0  0  0  0  0  0
  -10.5369    5.8180   -1.4974 H   0  0  0  0  0  0  0  0  0  0  0  0
  -12.5816    4.8143   -4.4266 H   0  0  0  0  0  0  0  0  0  0  0  0
  -12.2166    5.5799   -2.8722 H   0  0  0  0  0  0  0  0  0  0  0  0
   -9.8242    5.9198   -3.6758 H   0  0  0  0  0  0  0  0  0  0  0  0
  -10.9864    6.7346   -4.7300 H   0  0  0  0  0  0  0  0  0  0  0  0
  -10.2656    5.1949   -5.2157 H   0  0  0  0  0  0  0  0  0  0  0  0
   -9.5726    1.7233    1.0698 H   0  0  0  0  0  0  0  0  0  0  0  0
   -7.0351    1.9266    6.5028 H   0  0  0  0  0  0  0  0  0  0  0  0
   -6.0599    1.9082    8.7614 H   0  0  0  0  0  0  0  0  0  0  0  0
   -5.1447    6.2309   10.8900 H   0  0  0  0  0  0  0  0  0  0  0  0
   -5.2423    5.2087   12.3356 H   0  0  0  0  0  0  0  0  0  0  0  0
   -7.4972    5.5915   10.2900 H   0  0  0  0  0  0  0  0  0  0  0  0
   -7.4455    6.2963   11.9071 H   0  0  0  0  0  0  0  0  0  0  0  0
   -7.5742    4.5427   11.7095 H   0  0  0  0  0  0  0  0  0  0  0  0
   -6.4015    6.1589    6.3096 H   0  0  0  0  0  0  0  0  0  0  0  0
   -5.2374    2.2109    4.7506 H   0  0  0  0  0  0  0  0  0  0  0  0
   -4.8232    0.7386    0.2175 H   0  0  0  0  0  0  0  0  0  0  0  0
   -2.9848    1.6593   -1.1770 H   0  0  0  0  0  0  0  0  0  0  0  0
   -3.5671    2.1433   -3.5142 H   0  0  0  0  0  0  0  0  0  0  0  0
   -3.3284   -1.5602   -6.7301 H   0  0  0  0  0  0  0  0  0  0  0  0
   -3.1696   -0.1963   -7.8513 H   0  0  0  0  0  0  0  0  0  0  0  0
   -1.1241    0.5750   -6.6334 H   0  0  0  0  0  0  0  0  0  0  0  0
   -1.2569   -0.7960   -5.5270 H   0  0  0  0  0  0  0  0  0  0  0  0
   -0.9170   -1.0774   -7.2345 H   0  0  0  0  0  0  0  0  0  0  0  0
   -2.8334   -2.5166   -2.1207 H   0  0  0  0  0  0  0  0  0  0  0  0
   -0.5007   -3.5293    3.5903 H   0  0  0  0  0  0  0  0  0  0  0  0
    0.5990   -3.9078    5.7274 H   0  0  0  0  0  0  0  0  0  0  0  0
    1.5104   -4.4116    7.8057 H   0  0  0  0  0  0  0  0  0  0  0  0
    2.7066   -3.5891    6.7578 H   0  0  0  0  0  0  0  0  0  0  0  0
    3.9488   -2.8409    8.7768 H   0  0  0  0  0  0  0  0  0  0  0  0
    3.8346   -4.6013    8.7203 H   0  0  0  0  0  0  0  0  0  0  0  0
    2.7898   -3.6778    9.8147 H   0  0  0  0  0  0  0  0  0  0  0  0
   -0.8841    0.6357    4.5175 H   0  0  0  0  0  0  0  0  0  0  0  0
    1.1754   -2.5714    2.1923 H   0  0  0  0  0  0  0  0  0  0  0  0
    2.8294   -4.1311    1.5531 H   0  0  0  0  0  0  0  0  0  0  0  0
    5.9855   -7.3449    1.6639 H   0  0  0  0  0  0  0  0  0  0  0  0
    5.9098   -7.9060    4.0186 H   0  0  0  0  0  0  0  0  0  0  0  0
    5.5935   -8.1108    7.6868 H   0  0  0  0  0  0  0  0  0  0  0  0
    6.3209   -8.2735    6.0830 H   0  0  0  0  0  0  0  0  0  0  0  0
    3.3457   -8.6003    6.7824 H   0  0  0  0  0  0  0  0  0  0  0  0
    3.9901   -8.7269    5.1459 H   0  0  0  0  0  0  0  0  0  0  0  0
    4.4479   -9.9181    6.3689 H   0  0  0  0  0  0  0  0  0  0  0  0
    4.7932   -3.3310    2.5670 H   0  0  0  0  0  0  0  0  0  0  0  0
    7.2167   -2.8482   -3.6488 H   0  0  0  0  0  0  0  0  0  0  0  0
    7.1231   -2.1211   -5.9959 H   0  0  0  0  0  0  0  0  0  0  0  0
    3.6618   -1.6506   -9.4978 H   0  0  0  0  0  0  0  0  0  0  0  0
    2.9954   -2.9745   -8.5248 H   0  0  0  0  0  0  0  0  0  0  0  0
    2.9005   -1.4515   -6.5317 H   0  0  0  0  0  0  0  0  0  0  0  0
    1.9963   -0.7537   -7.8760 H   0  0  0  0  0  0  0  0  0  0  0  0
    3.6138   -0.1508   -7.4910 H   0  0  0  0  0  0  0  0  0  0  0  0
    3.4554   -4.8342   -4.1619 H   0  0  0  0  0  0  0  0  0  0  0  0
    7.8870   -5.1687   -3.3859 H   0  0  0  0  0  0  0  0  0  0  0  0
   10.5784   -7.0577    0.1161 H   0  0  0  0  0  0  0  0  0  0  0  0
   13.9551  -10.0050    0.2354 H   0  0  0  0  0  0  0  0  0  0  0  0
   14.0460  -10.5216    2.6353 H   0  0  0  0  0  0  0  0  0  0  0  0
   12.8807   -7.0312    6.0335 H   0  0  0  0  0  0  0  0  0  0  0  0
   14.4789   -6.9986    5.2451 H   0  0  0  0  0  0  0  0  0  0  0  0
   13.7950   -8.5631    7.7886 H   0  0  0  0  0  0  0  0  0  0  0  0
   14.7025   -7.0468    7.7421 H   0  0  0  0  0  0  0  0  0  0  0  0
   15.3798   -8.5094    7.0130 H   0  0  0  0  0  0  0  0  0  0  0  0
   12.5402   -6.0729    1.1786 H   0  0  0  0  0  0  0  0  0  0  0  0
   12.4541   -4.5975   -4.8166 H   0  0  0  0  0  0  0  0  0  0  0  0
   12.3989   -4.0379   -7.2080 H   0  0  0  0  0  0  0  0  0  0  0  0
   14.3139   -5.8262  -11.4030 H   0  0  0  0  0  0  0  0  0  0  0  0
   14.2639   -7.2755  -10.3835 H   0  0  0  0  0  0  0  0  0  0  0  0
   16.5352   -6.1938  -10.3252 H   0  0  0  0  0  0  0  0  0  0  0  0
   15.7826   -6.1482   -8.7295 H   0  0  0  0  0  0  0  0  0  0  0  0
   15.7989   -4.6967   -9.7359 H   0  0  0  0  0  0  0  0  0  0  0  0
   13.8241   -8.5317   -5.8107 H   0  0  0  0  0  0  0  0  0  0  0  0
   15.8347   -7.5336   -4.7191 H   0  0  0  0  0  0  0  0  0  0  0  0
   17.5188   -8.5364   -3.0054 H   0  0  0  0  0  0  0  0  0  0  0  0
  1  2  1  0  0  0  0
  2  3  1  0  0  0  0
  3  4  2  0  0  0  0
  4  5  1  0  0  0  0
  5  6  1  0  0  0  0
  6  7  2  0  0  0  0
  7  8  1  0  0  0  0
  7  9  1  0  0  0  0
  9 10  1  0  0  0  0
  9 11  2  0  0  0  0
  3 12  1  0  0  0  0
 12 13  2  0  0  0  0
 13 14  1  0  0  0  0
 14 15  1  0  0  0  0
 15 16  1  0  0  0  0
 16 17  2  0  0  0  0
 17 18  1  0  0  0  0
 18 19  1  0  0  0  0
 19 20  2  0  0  0  0
 20 21  1  0  0  0  0
 20 22  1  0  0  0  0
 22 23  1  0  0  0  0
 22 24  2  0  0  0  0
 16 25  1  0  0  0  0
 25 26  2  0  0  0  0
 26 27  1  0  0  0  0
 27 28  2  0  0  0  0
 28 29  1  0  0  0  0
 29 30  2  0  0  0  0
 30 31  1  0  0  0  0
 31 32  2  0  0  0  0
 32 33  1  0  0  0  0
 33 34  2  0  0  0  0
 34 35  1  0  0  0  0
 35 36  1  0  0  0  0
 36 37  1  0  0  0  0
 34 38  1  0  0  0  0
 38 39  1  0  0  0  0
 38 40  2  0  0  0  0
 30 41  1  0  0  0  0
 41 42  2  0  0  0  0
 42 43  1  0  0  0  0
 43 44  1  0  0  0  0
 44 45  2  0  0  0  0
 45 46  1  0  0  0  0
 46 47  2  0  0  0  0
 47 48  1  0  0  0  0
 48 49  1  0  0  0  0
 49 50  1  0  0  0  0
 47 51  1  0  0  0  0
 51 52  2  0  0  0  0
 51 53  1  0  0  0  0
 43 54  2  0  0  0  0
 54 55  1  0  0  0  0
 42 56  1  0  0  0  0
 56 57  2  0  0  0  0
 57 58  1  0  0  0  0
 57 59  1  0  0  0  0
 59 60  2  0  0  0  0
 60 61  1  0  0  0  0
 61 62  2  0  0  0  0
 62 63  1  0  0  0  0
 63 64  2  0  0  0  0
 64 65  1  0  0  0  0
 65 66  2  0  0  0  0
 66 67  1  0  0  0  0
 67 68  1  0  0  0  0
 68 69  1  0  0  0  0
 66 70  1  0  0  0  0
 70 71  1  0  0  0  0
 70 72  2  0  0  0  0
 62 73  1  0  0  0  0
 73 74  2  0  0  0  0
 74 75  1  0  0  0  0
 75 76  1  0  0  0  0
 76 77  2  0  0  0  0
 77 78  1  0  0  0  0
 78 79  2  0  0  0  0
 79 80  1  0  0  0  0
 80 81  1  0  0  0  0
 81 82  1  0  0  0  0
 79 83  1  0  0  0  0
 83 84  2  0  0  0  0
 83 85  1  0  0  0  0
 75 86  2  0  0  0  0
 86 87  1  0  0  0  0
 74 88  1  0  0  0  0
 88 89  2  0  0  0  0
 89 90  1  0  0  0  0
 89 91  1  0  0  0  0
 91 92  2  0  0  0  0
 92 93  1  0  0  0  0
 93 94  2  0  0  0  0
 94 95  1  0  0  0  0
 95 96  2  0  0  0  0
 96 97  1  0  0  0  0
 97 98  2  0  0  0  0
 98 99  1  0  0  0  0
 99100  1  0  0  0  0
100101  1  0  0  0  0
 98102  1  0  0  0  0
102103  1  0  0  0  0
102104  2  0  0  0  0
 94105  1  0  0  0  0
105106  2  0  0  0  0
106107  1  0  0  0  0
107108  1  0  0  0  0
108109  2  0  0  0  0
109110  1  0  0  0  0
110111  2  0  0  0  0
111112  1  0  0  0  0
112113  1  0  0  0  0
113114  1  0  0  0  0
111115  1  0  0  0  0
115116  2  0  0  0  0
115117  1  0  0  0  0
107118  2  0  0  0  0
118119  1  0  0  0  0
106120  1  0  0  0  0
120121  2  0  0  0  0
121122  1  0  0  0  0
121123  1  0  0  0  0
123124  2  0  0  0  0
124125  1  0  0  0  0
125126  2  0  0  0  0
126127  1  0  0  0  0
127128  2  0  0  0  0
128129  1  0  0  0  0
129130  2  0  0  0  0
130131  1  0  0  0  0
131132  1  0  0  0  0
132133  1  0  0  0  0
130134  1  0  0  0  0
134135  1  0  0  0  0
134136  2  0  0  0  0
126137  1  0  0  0  0
137138  2  0  0  0  0
138139  1  0  0  0  0
139140  1  0  0  0  0
140141  2  0  0  0  0
141142  1  0  0  0  0
142143  2  0  0  0  0
143144  1  0  0  0  0
144145  1  0  0  0  0
145146  1  0  0  0  0
143147  1  0  0  0  0
147148  2  0  0  0  0
147149  1  0  0  0  0
139150  2  0  0  0  0
150151  1  0  0  0  0
138152  1  0  0  0  0
152153  2  0  0  0  0
153154  1  0  0  0  0
  5  1  2  0  0  0  0
 18 14  2  0  0  0  0
 55 27  1  0  0  0  0
 87 59  1  0  0  0  0
119 91  1  0  0  0  0
151123  1  0  0  0  0
 11  4  1  0  0  0  0
 24 17  1  0  0  0  0
 54 29  1  0  0  0  0
 86 61  1  0  0  0  0
118 93  1  0  0  0  0
150125  1  0  0  0  0
 40 31  1  0  0  0  0
 58 41  1  0  0  0  0
 72 63  1  0  0  0  0
 90 73  1  0  0  0  0
104 95  1  0  0  0  0
122105  1  0  0  0  0
136127  1  0  0  0  0
154137  1  0  0  0  0
 52 44  1  0  0  0  0
 84 76  1  0  0  0  0
116108  1  0  0  0  0
148140  1  0  0  0  0
  1155  1  0  0  0  0
  6156  1  0  0  0  0
  8157  1  0  0  0  0
  8158  1  0  0  0  0
  8159  1  0  0  0  0
 10160  1  0  0  0  0
 10161  1  0  0  0  0
 10162  1  0  0  0  0
 11163  1  0  0  0  0
 12164  1  0  0  0  0
 13165  1  0  0  0  0
 19166  1  0  0  0  0
 21167  1  0  0  0  0
 21168  1  0  0  0  0
 21169  1  0  0  0  0
 23170  1  0  0  0  0
 23171  1  0  0  0  0
 23172  1  0  0  0  0
 24173  1  0  0  0  0
 25174  1  0  0  0  0
 26175  1  0  0  0  0
 28176  1  0  0  0  0
 32177  1  0  0  0  0
 33178  1  0  0  0  0
 36179  1  0  0  0  0
 36180  1  0  0  0  0
 37181  1  0  0  0  0
 37182  1  0  0  0  0
 37183  1  0  0  0  0
 40184  1  0  0  0  0
 45185  1  0  0  0  0
 46186  1  0  0  0  0
 49187  1  0  0  0  0
 49188  1  0  0  0  0
 50189  1  0  0  0  0
 50190  1  0  0  0  0
 50191  1  0  0  0  0
 52192  1  0  0  0  0
 56193  1  0  0  0  0
 60194  1  0  0  0  0
 64195  1  0  0  0  0
 65196  1  0  0  0  0
 68197  1  0  0  0  0
 68198  1  0  0  0  0
 69199  1  0  0  0  0
 69200  1  0  0  0  0
 69201  1  0  0  0  0
 72202  1  0  0  0  0
 77203  1  0  0  0  0
 78204  1  0  0  0  0
 81205  1  0  0  0  0
 81206  1  0  0  0  0
 82207  1  0  0  0  0
 82208  1  0  0  0  0
 82209  1  0  0  0  0
 84210  1  0  0  0  0
 88211  1  0  0  0  0
 92212  1  0  0  0  0
 96213  1  0  0  0  0
 97214  1  0  0  0  0
100215  1  0  0  0  0
100216  1  0  0  0  0
101217  1  0  0  0  0
101218  1  0  0  0  0
101219  1  0  0  0  0
104220  1  0  0  0  0
109221  1  0  0  0  0
110222  1  0  0  0  0
113223  1  0  0  0  0
113224  1  0  0  0  0
114225  1  0  0  0  0
114226  1  0  0  0  0
114227  1  0  0  0  0
116228  1  0  0  0  0
120229  1  0  0  0  0
124230  1  0  0  0  0
128231  1  0  0  0  0
129232  1  0  0  0  0
132233  1  0  0  0  0
132234  1  0  0  0  0
133235  1  0  0  0  0
133236  1  0  0  0  0
133237  1  0  0  0  0
136238  1  0  0  0  0
141239  1  0  0  0  0
142240  1  0  0  0  0
145241  1  0  0  0  0
145242  1  0  0  0  0
146243  1  0  0  0  0
146244  1  0  0  0  0
146245  1  0  0  0  0
148246  1  0  0  0  0
152247  1  0  0  0  0
153248  1  0  0  0  0
M  END
