
  xtb     03042205323D
 energy: -418.499176128768 gnorm: 0.000253317929 xtb: 6.4.1 (unknown)
248271  0     0  0            999 V2000
    2.4602   -1.2807    7.6512 C   0  0  0  0  0  0  0  0  0  0  0  0
    2.2351   -0.3691    6.6856 C   0  0  0  0  0  0  0  0  0  0  0  0
    1.3545   -0.8402    5.6665 C   0  0  0  0  0  0  0  0  0  0  0  0
    0.8735   -0.1352    4.5519 C   0  0  0  0  0  0  0  0  0  0  0  0
    1.2883    1.2617    4.3509 C   0  0  0  0  0  0  0  0  0  0  0  0
    2.6373    1.5699    4.2251 C   0  0  0  0  0  0  0  0  0  0  0  0
    3.0766    2.8781    4.1388 C   0  0  0  0  0  0  0  0  0  0  0  0
    2.1699    3.9273    4.2123 C   0  0  0  0  0  0  0  0  0  0  0  0
    2.5952    5.6333    4.1703 S   0  0  0  0  0  0  0  0  0  0  0  0
    4.4218    5.6132    4.3003 C   0  0  0  0  0  0  0  0  0  0  0  0
    4.9153    7.0364    4.4788 C   0  0  0  0  0  0  0  0  0  0  0  0
    0.8175    3.6021    4.3312 C   0  0  0  0  0  0  0  0  0  0  0  0
   -0.0751    4.6072    4.4375 F   0  0  0  0  0  0  0  0  0  0  0  0
    0.3645    2.3029    4.3778 C   0  0  0  0  0  0  0  0  0  0  0  0
   -0.0010   -0.8059    3.7161 C   0  0  0  0  0  0  0  0  0  0  0  0
   -0.4463   -2.1301    3.9692 C   0  0  0  0  0  0  0  0  0  0  0  0
    0.0016   -2.8254    5.1109 C   0  0  0  0  0  0  0  0  0  0  0  0
   -0.4480   -4.1901    5.4041 C   0  0  0  0  0  0  0  0  0  0  0  0
   -1.7821   -4.5699    5.2732 C   0  0  0  0  0  0  0  0  0  0  0  0
   -2.1834   -5.8771    5.4706 C   0  0  0  0  0  0  0  0  0  0  0  0
   -1.2665   -6.8604    5.8229 C   0  0  0  0  0  0  0  0  0  0  0  0
   -1.6161   -8.5746    6.0334 S   0  0  0  0  0  0  0  0  0  0  0  0
   -3.4374   -8.6673    6.0621 C   0  0  0  0  0  0  0  0  0  0  0  0
   -4.0220   -8.1166    7.3490 C   0  0  0  0  0  0  0  0  0  0  0  0
    0.0564   -6.4579    5.9982 C   0  0  0  0  0  0  0  0  0  0  0  0
    0.4691   -5.1621    5.8027 C   0  0  0  0  0  0  0  0  0  0  0  0
    0.9838   -7.3803    6.3483 F   0  0  0  0  0  0  0  0  0  0  0  0
    0.9192   -2.1617    5.9175 C   0  0  0  0  0  0  0  0  0  0  0  0
    1.6187   -2.7708    7.3984 S   0  0  0  0  0  0  0  0  0  0  0  0
   -1.2978   -2.5974    2.9416 C   0  0  0  0  0  0  0  0  0  0  0  0
   -1.5054   -1.7057    1.9218 C   0  0  0  0  0  0  0  0  0  0  0  0
   -0.6575   -0.1905    2.2230 S   0  0  0  0  0  0  0  0  0  0  0  0
   -2.3113   -1.8749    0.7644 C   0  0  0  0  0  0  0  0  0  0  0  0
   -2.8253   -0.5059   -0.1720 S   0  0  0  0  0  0  0  0  0  0  0  0
   -3.8737   -1.4568   -1.1755 C   0  0  0  0  0  0  0  0  0  0  0  0
   -3.7628   -2.8177   -0.8389 C   0  0  0  0  0  0  0  0  0  0  0  0
   -2.8616   -3.0589    0.2415 C   0  0  0  0  0  0  0  0  0  0  0  0
   -2.5755   -4.3916    0.5946 C   0  0  0  0  0  0  0  0  0  0  0  0
   -3.1776   -5.4418   -0.0453 C   0  0  0  0  0  0  0  0  0  0  0  0
   -2.8415   -6.8453    0.3523 C   0  0  0  0  0  0  0  0  0  0  0  0
   -4.0838   -5.1997   -1.1125 C   0  0  0  0  0  0  0  0  0  0  0  0
   -4.7159   -6.3500   -1.8330 C   0  0  0  0  0  0  0  0  0  0  0  0
   -4.3419   -3.9137   -1.5064 C   0  0  0  0  0  0  0  0  0  0  0  0
   -4.6696   -0.8744   -2.1925 C   0  0  0  0  0  0  0  0  0  0  0  0
   -5.8750   -1.3846   -2.5761 C   0  0  0  0  0  0  0  0  0  0  0  0
   -6.6253   -1.0213   -3.7102 C   0  0  0  0  0  0  0  0  0  0  0  0
   -5.9638   -0.0885   -5.0161 S   0  0  0  0  0  0  0  0  0  0  0  0
   -7.3765   -0.2836   -6.0138 C   0  0  0  0  0  0  0  0  0  0  0  0
   -8.3586   -1.0104   -5.3113 C   0  0  0  0  0  0  0  0  0  0  0  0
   -7.9337   -1.4344   -4.0204 C   0  0  0  0  0  0  0  0  0  0  0  0
   -8.8122   -2.1762   -3.2120 C   0  0  0  0  0  0  0  0  0  0  0  0
  -10.0704   -2.4940   -3.6501 C   0  0  0  0  0  0  0  0  0  0  0  0
  -10.9975   -3.2818   -2.7773 C   0  0  0  0  0  0  0  0  0  0  0  0
  -10.5001   -2.0682   -4.9372 C   0  0  0  0  0  0  0  0  0  0  0  0
  -11.8793   -2.4090   -5.4100 C   0  0  0  0  0  0  0  0  0  0  0  0
   -9.6569   -1.3450   -5.7388 C   0  0  0  0  0  0  0  0  0  0  0  0
   -7.4735    0.0612   -7.3863 C   0  0  0  0  0  0  0  0  0  0  0  0
   -6.6031    0.6855   -8.2186 C   0  0  0  0  0  0  0  0  0  0  0  0
   -5.3979    1.3538   -7.8388 C   0  0  0  0  0  0  0  0  0  0  0  0
   -5.1798    2.1111   -6.7297 C   0  0  0  0  0  0  0  0  0  0  0  0
   -3.8466    2.5598   -6.5925 C   0  0  0  0  0  0  0  0  0  0  0  0
   -3.2799    3.1867   -5.4774 C   0  0  0  0  0  0  0  0  0  0  0  0
   -4.0200    3.3963   -4.2242 C   0  0  0  0  0  0  0  0  0  0  0  0
   -3.5373    2.7973   -3.0621 C   0  0  0  0  0  0  0  0  0  0  0  0
   -4.1823    2.9418   -1.8511 C   0  0  0  0  0  0  0  0  0  0  0  0
   -5.3491    3.6924   -1.7597 C   0  0  0  0  0  0  0  0  0  0  0  0
   -6.2521    3.9851   -0.2787 S   0  0  0  0  0  0  0  0  0  0  0  0
   -5.4289    2.9397    0.9694 C   0  0  0  0  0  0  0  0  0  0  0  0
   -5.7828    1.4725    0.8143 C   0  0  0  0  0  0  0  0  0  0  0  0
   -5.8295    4.2769   -2.9338 C   0  0  0  0  0  0  0  0  0  0  0  0
   -6.9613    5.0123   -2.8842 F   0  0  0  0  0  0  0  0  0  0  0  0
   -5.1923    4.1408   -4.1484 C   0  0  0  0  0  0  0  0  0  0  0  0
   -1.9167    3.4166   -5.5323 C   0  0  0  0  0  0  0  0  0  0  0  0
   -1.0759    2.9743   -6.5824 C   0  0  0  0  0  0  0  0  0  0  0  0
   -1.6461    2.3083   -7.6836 C   0  0  0  0  0  0  0  0  0  0  0  0
   -0.8041    1.7059   -8.7255 C   0  0  0  0  0  0  0  0  0  0  0  0
    0.2374    0.8468   -8.3751 C   0  0  0  0  0  0  0  0  0  0  0  0
    1.0353    0.2773   -9.3428 C   0  0  0  0  0  0  0  0  0  0  0  0
    0.8236    0.5305  -10.6965 C   0  0  0  0  0  0  0  0  0  0  0  0
    1.8931   -0.2890  -11.8444 S   0  0  0  0  0  0  0  0  0  0  0  0
    2.2185    0.9735  -13.1298 C   0  0  0  0  0  0  0  0  0  0  0  0
    2.8324    2.2308  -12.5479 C   0  0  0  0  0  0  0  0  0  0  0  0
   -0.2452    1.3548  -11.0338 C   0  0  0  0  0  0  0  0  0  0  0  0
   -1.0432    1.9450  -10.0734 C   0  0  0  0  0  0  0  0  0  0  0  0
   -0.5382    1.6113  -12.3278 F   0  0  0  0  0  0  0  0  0  0  0  0
   -3.0251    2.1502   -7.6749 C   0  0  0  0  0  0  0  0  0  0  0  0
   -3.9566    1.2485   -8.8458 S   0  0  0  0  0  0  0  0  0  0  0  0
    0.2977    3.1719   -6.2704 C   0  0  0  0  0  0  0  0  0  0  0  0
    0.4976    3.7178   -5.0349 C   0  0  0  0  0  0  0  0  0  0  0  0
   -1.0116    4.1453   -4.2461 S   0  0  0  0  0  0  0  0  0  0  0  0
    1.6301    3.6691   -4.1615 C   0  0  0  0  0  0  0  0  0  0  0  0
    2.7367    2.8711   -4.2287 C   0  0  0  0  0  0  0  0  0  0  0  0
    3.3137    2.6021   -2.9547 C   0  0  0  0  0  0  0  0  0  0  0  0
    4.2490    1.6034   -2.6245 C   0  0  0  0  0  0  0  0  0  0  0  0
    4.9899    0.9352   -3.7010 C   0  0  0  0  0  0  0  0  0  0  0  0
    5.0072   -0.4495   -3.8393 C   0  0  0  0  0  0  0  0  0  0  0  0
    5.6350   -1.0459   -4.9154 C   0  0  0  0  0  0  0  0  0  0  0  0
    6.2710   -0.2814   -5.8869 C   0  0  0  0  0  0  0  0  0  0  0  0
    7.0835   -0.9547   -7.3038 S   0  0  0  0  0  0  0  0  0  0  0  0
    6.0372   -2.3964   -7.7182 C   0  0  0  0  0  0  0  0  0  0  0  0
    4.6242   -1.9859   -8.0844 C   0  0  0  0  0  0  0  0  0  0  0  0
    6.2842    1.1021   -5.7127 C   0  0  0  0  0  0  0  0  0  0  0  0
    6.9134    1.8780   -6.6170 F   0  0  0  0  0  0  0  0  0  0  0  0
    5.6503    1.7109   -4.6525 C   0  0  0  0  0  0  0  0  0  0  0  0
    4.3393    1.2537   -1.2823 C   0  0  0  0  0  0  0  0  0  0  0  0
    3.5603    1.8723   -0.2723 C   0  0  0  0  0  0  0  0  0  0  0  0
    2.6714    2.8987   -0.5904 C   0  0  0  0  0  0  0  0  0  0  0  0
    1.6029    3.4138    0.2928 C   0  0  0  0  0  0  0  0  0  0  0  0
    1.6130    4.6819    0.8521 C   0  0  0  0  0  0  0  0  0  0  0  0
    0.4802    5.2057    1.4519 C   0  0  0  0  0  0  0  0  0  0  0  0
   -0.7047    4.4813    1.4848 C   0  0  0  0  0  0  0  0  0  0  0  0
   -2.2501    5.0295    2.1215 S   0  0  0  0  0  0  0  0  0  0  0  0
   -1.9407    6.7374    2.6687 C   0  0  0  0  0  0  0  0  0  0  0  0
   -1.9126    7.7160    1.5097 C   0  0  0  0  0  0  0  0  0  0  0  0
   -0.6843    3.1922    0.9502 C   0  0  0  0  0  0  0  0  0  0  0  0
    0.4380    2.6509    0.3724 C   0  0  0  0  0  0  0  0  0  0  0  0
   -1.8268    2.4707    0.9652 F   0  0  0  0  0  0  0  0  0  0  0  0
    2.5973    3.2523   -1.9230 C   0  0  0  0  0  0  0  0  0  0  0  0
    1.3739    4.3150   -2.5475 S   0  0  0  0  0  0  0  0  0  0  0  0
    3.7214    1.2531    0.9925 C   0  0  0  0  0  0  0  0  0  0  0  0
    4.5778    0.2035    0.9761 C   0  0  0  0  0  0  0  0  0  0  0  0
    5.2737   -0.0651   -0.6120 S   0  0  0  0  0  0  0  0  0  0  0  0
    4.7977   -0.6752    2.1052 C   0  0  0  0  0  0  0  0  0  0  0  0
    5.3666   -0.3755    3.2979 C   0  0  0  0  0  0  0  0  0  0  0  0
    5.2052   -1.3957    4.2805 C   0  0  0  0  0  0  0  0  0  0  0  0
    5.6678   -1.4023    5.6032 C   0  0  0  0  0  0  0  0  0  0  0  0
    6.3966   -0.2625    6.1762 C   0  0  0  0  0  0  0  0  0  0  0  0
    7.6328   -0.4289    6.7974 C   0  0  0  0  0  0  0  0  0  0  0  0
    8.3083    0.6542    7.3170 C   0  0  0  0  0  0  0  0  0  0  0  0
    7.7787    1.9440    7.2604 C   0  0  0  0  0  0  0  0  0  0  0  0
    8.7331    3.2288    8.0092 S   0  0  0  0  0  0  0  0  0  0  0  0
    8.3833    4.7277    7.0165 C   0  0  0  0  0  0  0  0  0  0  0  0
    8.7322    4.5427    5.5534 C   0  0  0  0  0  0  0  0  0  0  0  0
    6.5269    2.0857    6.6727 C   0  0  0  0  0  0  0  0  0  0  0  0
    5.9096    3.2920    6.6080 F   0  0  0  0  0  0  0  0  0  0  0  0
    5.8513    1.0149    6.1253 C   0  0  0  0  0  0  0  0  0  0  0  0
    5.3763   -2.5302    6.3565 C   0  0  0  0  0  0  0  0  0  0  0  0
    4.6314   -3.6276    5.8614 C   0  0  0  0  0  0  0  0  0  0  0  0
    4.1758   -3.6256    4.5328 C   0  0  0  0  0  0  0  0  0  0  0  0
    3.3749   -4.7320    3.9977 C   0  0  0  0  0  0  0  0  0  0  0  0
    3.7188   -6.0618    4.2314 C   0  0  0  0  0  0  0  0  0  0  0  0
    2.9008   -7.1003    3.8291 C   0  0  0  0  0  0  0  0  0  0  0  0
    1.7022   -6.8451    3.1735 C   0  0  0  0  0  0  0  0  0  0  0  0
    0.5033   -8.0426    2.7009 S   0  0  0  0  0  0  0  0  0  0  0  0
    1.0156   -9.5601    3.5744 C   0  0  0  0  0  0  0  0  0  0  0  0
    2.0100  -10.3845    2.7786 C   0  0  0  0  0  0  0  0  0  0  0  0
    1.4060   -5.5129    2.8858 C   0  0  0  0  0  0  0  0  0  0  0  0
    2.2091   -4.4694    3.2780 C   0  0  0  0  0  0  0  0  0  0  0  0
    0.2569   -5.2351    2.2346 F   0  0  0  0  0  0  0  0  0  0  0  0
    4.4767   -2.4990    3.7768 C   0  0  0  0  0  0  0  0  0  0  0  0
    4.0396   -2.2554    2.1060 S   0  0  0  0  0  0  0  0  0  0  0  0
    4.3960   -4.5957    6.8857 C   0  0  0  0  0  0  0  0  0  0  0  0
    4.9452   -4.2580    8.0685 C   0  0  0  0  0  0  0  0  0  0  0  0
    5.7849   -2.7453    8.0385 S   0  0  0  0  0  0  0  0  0  0  0  0
    3.0781   -1.1821    8.5223 H   0  0  0  0  0  0  0  0  0  0  0  0
    2.6541    0.6204    6.6942 H   0  0  0  0  0  0  0  0  0  0  0  0
    3.3505    0.7601    4.1757 H   0  0  0  0  0  0  0  0  0  0  0  0
    4.1303    3.0738    4.0228 H   0  0  0  0  0  0  0  0  0  0  0  0
    4.8212    5.1758    3.3844 H   0  0  0  0  0  0  0  0  0  0  0  0
    4.6864    5.0003    5.1609 H   0  0  0  0  0  0  0  0  0  0  0  0
    4.4935    7.4744    5.3802 H   0  0  0  0  0  0  0  0  0  0  0  0
    6.0001    7.0422    4.5627 H   0  0  0  0  0  0  0  0  0  0  0  0
    4.6276    7.6520    3.6294 H   0  0  0  0  0  0  0  0  0  0  0  0
   -0.6928    2.1125    4.4726 H   0  0  0  0  0  0  0  0  0  0  0  0
   -2.5273   -3.8282    5.0299 H   0  0  0  0  0  0  0  0  0  0  0  0
   -3.2237   -6.1236    5.3334 H   0  0  0  0  0  0  0  0  0  0  0  0
   -3.6405   -9.7344    5.9704 H   0  0  0  0  0  0  0  0  0  0  0  0
   -3.8231   -8.1640    5.1764 H   0  0  0  0  0  0  0  0  0  0  0  0
   -3.6295   -8.6639    8.2029 H   0  0  0  0  0  0  0  0  0  0  0  0
   -5.1055   -8.2199    7.3376 H   0  0  0  0  0  0  0  0  0  0  0  0
   -3.7739   -7.0647    7.4740 H   0  0  0  0  0  0  0  0  0  0  0  0
    1.5122   -4.9275    5.9306 H   0  0  0  0  0  0  0  0  0  0  0  0
   -1.7448   -3.5696    2.9664 H   0  0  0  0  0  0  0  0  0  0  0  0
   -1.8268   -4.6023    1.3359 H   0  0  0  0  0  0  0  0  0  0  0  0
   -2.4498   -7.4022   -0.4976 H   0  0  0  0  0  0  0  0  0  0  0  0
   -2.0926   -6.8519    1.1402 H   0  0  0  0  0  0  0  0  0  0  0  0
   -3.7301   -7.3668    0.7075 H   0  0  0  0  0  0  0  0  0  0  0  0
   -3.9548   -6.9813   -2.2906 H   0  0  0  0  0  0  0  0  0  0  0  0
   -5.3843   -5.9946   -2.6134 H   0  0  0  0  0  0  0  0  0  0  0  0
   -5.2861   -6.9692   -1.1412 H   0  0  0  0  0  0  0  0  0  0  0  0
   -4.9654   -3.7369   -2.3689 H   0  0  0  0  0  0  0  0  0  0  0  0
   -4.3001    0.0247   -2.6708 H   0  0  0  0  0  0  0  0  0  0  0  0
   -6.3223   -2.1494   -1.9557 H   0  0  0  0  0  0  0  0  0  0  0  0
   -8.4908   -2.4893   -2.2296 H   0  0  0  0  0  0  0  0  0  0  0  0
  -10.5190   -3.5276   -1.8327 H   0  0  0  0  0  0  0  0  0  0  0  0
  -11.9037   -2.7143   -2.5684 H   0  0  0  0  0  0  0  0  0  0  0  0
  -11.2932   -4.2089   -3.2676 H   0  0  0  0  0  0  0  0  0  0  0  0
  -12.6292   -1.9907   -4.7393 H   0  0  0  0  0  0  0  0  0  0  0  0
  -12.0520   -2.0156   -6.4084 H   0  0  0  0  0  0  0  0  0  0  0  0
  -12.0220   -3.4889   -5.4340 H   0  0  0  0  0  0  0  0  0  0  0  0
  -10.0004   -1.0177   -6.7088 H   0  0  0  0  0  0  0  0  0  0  0  0
   -8.3688   -0.3292   -7.8540 H   0  0  0  0  0  0  0  0  0  0  0  0
   -6.8117    0.6543   -9.2798 H   0  0  0  0  0  0  0  0  0  0  0  0
   -5.9545    2.3563   -6.0273 H   0  0  0  0  0  0  0  0  0  0  0  0
   -2.6428    2.1940   -3.1055 H   0  0  0  0  0  0  0  0  0  0  0  0
   -3.7590    2.4701   -0.9800 H   0  0  0  0  0  0  0  0  0  0  0  0
   -5.8038    3.3298    1.9155 H   0  0  0  0  0  0  0  0  0  0  0  0
   -4.3566    3.1191    0.9269 H   0  0  0  0  0  0  0  0  0  0  0  0
   -5.5042    1.1018   -0.1698 H   0  0  0  0  0  0  0  0  0  0  0  0
   -5.2536    0.8889    1.5648 H   0  0  0  0  0  0  0  0  0  0  0  0
   -6.8529    1.3250    0.9434 H   0  0  0  0  0  0  0  0  0  0  0  0
   -5.6004    4.6337   -5.0171 H   0  0  0  0  0  0  0  0  0  0  0  0
    0.4075    0.6132   -7.3350 H   0  0  0  0  0  0  0  0  0  0  0  0
    1.8427   -0.3840   -9.0676 H   0  0  0  0  0  0  0  0  0  0  0  0
    2.9138    0.4707  -13.8021 H   0  0  0  0  0  0  0  0  0  0  0  0
    1.2942    1.1799  -13.6649 H   0  0  0  0  0  0  0  0  0  0  0  0
    2.1363    2.7261  -11.8733 H   0  0  0  0  0  0  0  0  0  0  0  0
    3.7394    1.9937  -11.9955 H   0  0  0  0  0  0  0  0  0  0  0  0
    3.0821    2.9214  -13.3508 H   0  0  0  0  0  0  0  0  0  0  0  0
   -1.8485    2.5890  -10.3908 H   0  0  0  0  0  0  0  0  0  0  0  0
    1.1021    2.8804   -6.9211 H   0  0  0  0  0  0  0  0  0  0  0  0
    3.0522    2.3797   -5.1316 H   0  0  0  0  0  0  0  0  0  0  0  0
    4.5021   -1.0671   -3.1128 H   0  0  0  0  0  0  0  0  0  0  0  0
    5.6247   -2.1212   -4.9995 H   0  0  0  0  0  0  0  0  0  0  0  0
    6.5480   -2.8430   -8.5708 H   0  0  0  0  0  0  0  0  0  0  0  0
    6.0595   -3.1026   -6.8893 H   0  0  0  0  0  0  0  0  0  0  0  0
    4.0514   -2.8599   -8.3885 H   0  0  0  0  0  0  0  0  0  0  0  0
    4.1250   -1.5211   -7.2355 H   0  0  0  0  0  0  0  0  0  0  0  0
    4.6403   -1.2776   -8.9098 H   0  0  0  0  0  0  0  0  0  0  0  0
    5.6745    2.7865   -4.5700 H   0  0  0  0  0  0  0  0  0  0  0  0
    2.5090    5.2824    0.8027 H   0  0  0  0  0  0  0  0  0  0  0  0
    0.5323    6.1916    1.8828 H   0  0  0  0  0  0  0  0  0  0  0  0
   -2.7768    6.9514    3.3346 H   0  0  0  0  0  0  0  0  0  0  0  0
   -1.0227    6.7414    3.2536 H   0  0  0  0  0  0  0  0  0  0  0  0
   -1.1234    7.4681    0.8032 H   0  0  0  0  0  0  0  0  0  0  0  0
   -1.7431    8.7245    1.8824 H   0  0  0  0  0  0  0  0  0  0  0  0
   -2.8619    7.6961    0.9790 H   0  0  0  0  0  0  0  0  0  0  0  0
    0.3930    1.6592   -0.0497 H   0  0  0  0  0  0  0  0  0  0  0  0
    3.1723    1.5652    1.8618 H   0  0  0  0  0  0  0  0  0  0  0  0
    5.9009    0.5404    3.4770 H   0  0  0  0  0  0  0  0  0  0  0  0
    8.0774   -1.4105    6.8493 H   0  0  0  0  0  0  0  0  0  0  0  0
    9.2726    0.5222    7.7823 H   0  0  0  0  0  0  0  0  0  0  0  0
    9.0228    5.4801    7.4783 H   0  0  0  0  0  0  0  0  0  0  0  0
    7.3436    5.0145    7.1582 H   0  0  0  0  0  0  0  0  0  0  0  0
    8.6043    5.4847    5.0236 H   0  0  0  0  0  0  0  0  0  0  0  0
    9.7654    4.2199    5.4459 H   0  0  0  0  0  0  0  0  0  0  0  0
    8.0888    3.7980    5.0891 H   0  0  0  0  0  0  0  0  0  0  0  0
    4.8783    1.1874    5.6959 H   0  0  0  0  0  0  0  0  0  0  0  0
    4.6490   -6.2917    4.7284 H   0  0  0  0  0  0  0  0  0  0  0  0
    3.1986   -8.1113    4.0519 H   0  0  0  0  0  0  0  0  0  0  0  0
    0.0847  -10.1091    3.7151 H   0  0  0  0  0  0  0  0  0  0  0  0
    1.3930   -9.2683    4.5527 H   0  0  0  0  0  0  0  0  0  0  0  0
    2.9165   -9.8209    2.5693 H   0  0  0  0  0  0  0  0  0  0  0  0
    2.2776  -11.2782    3.3391 H   0  0  0  0  0  0  0  0  0  0  0  0
    1.5733  -10.6873    1.8295 H   0  0  0  0  0  0  0  0  0  0  0  0
    1.8897   -3.4615    3.0697 H   0  0  0  0  0  0  0  0  0  0  0  0
    3.8200   -5.4915    6.7431 H   0  0  0  0  0  0  0  0  0  0  0  0
    4.9112   -4.8062    8.9894 H   0  0  0  0  0  0  0  0  0  0  0  0
  1  2  2  0  0  0  0
  2  3  1  0  0  0  0
  3  4  2  0  0  0  0
  4  5  1  0  0  0  0
  5  6  2  0  0  0  0
  6  7  1  0  0  0  0
  7  8  2  0  0  0  0
  8  9  1  0  0  0  0
  9 10  1  0  0  0  0
 10 11  1  0  0  0  0
  8 12  1  0  0  0  0
 12 13  1  0  0  0  0
 12 14  2  0  0  0  0
  4 15  1  0  0  0  0
 15 16  2  0  0  0  0
 16 17  1  0  0  0  0
 17 18  1  0  0  0  0
 18 19  2  0  0  0  0
 19 20  1  0  0  0  0
 20 21  2  0  0  0  0
 21 22  1  0  0  0  0
 22 23  1  0  0  0  0
 23 24  1  0  0  0  0
 21 25  1  0  0  0  0
 25 26  2  0  0  0  0
 25 27  1  0  0  0  0
 17 28  2  0  0  0  0
 28 29  1  0  0  0  0
 16 30  1  0  0  0  0
 30 31  2  0  0  0  0
 31 32  1  0  0  0  0
 31 33  1  0  0  0  0
 33 34  1  0  0  0  0
 34 35  1  0  0  0  0
 35 36  2  0  0  0  0
 36 37  1  0  0  0  0
 37 38  1  0  0  0  0
 38 39  2  0  0  0  0
 39 40  1  0  0  0  0
 39 41  1  0  0  0  0
 41 42  1  0  0  0  0
 41 43  2  0  0  0  0
 35 44  1  0  0  0  0
 44 45  2  0  0  0  0
 45 46  1  0  0  0  0
 46 47  1  0  0  0  0
 47 48  1  0  0  0  0
 48 49  2  0  0  0  0
 49 50  1  0  0  0  0
 50 51  1  0  0  0  0
 51 52  2  0  0  0  0
 52 53  1  0  0  0  0
 52 54  1  0  0  0  0
 54 55  1  0  0  0  0
 54 56  2  0  0  0  0
 48 57  1  0  0  0  0
 57 58  2  0  0  0  0
 58 59  1  0  0  0  0
 59 60  2  0  0  0  0
 60 61  1  0  0  0  0
 61 62  2  0  0  0  0
 62 63  1  0  0  0  0
 63 64  2  0  0  0  0
 64 65  1  0  0  0  0
 65 66  2  0  0  0  0
 66 67  1  0  0  0  0
 67 68  1  0  0  0  0
 68 69  1  0  0  0  0
 66 70  1  0  0  0  0
 70 71  1  0  0  0  0
 70 72  2  0  0  0  0
 62 73  1  0  0  0  0
 73 74  2  0  0  0  0
 74 75  1  0  0  0  0
 75 76  1  0  0  0  0
 76 77  2  0  0  0  0
 77 78  1  0  0  0  0
 78 79  2  0  0  0  0
 79 80  1  0  0  0  0
 80 81  1  0  0  0  0
 81 82  1  0  0  0  0
 79 83  1  0  0  0  0
 83 84  2  0  0  0  0
 83 85  1  0  0  0  0
 75 86  2  0  0  0  0
 86 87  1  0  0  0  0
 74 88  1  0  0  0  0
 88 89  2  0  0  0  0
 89 90  1  0  0  0  0
 89 91  1  0  0  0  0
 91 92  2  0  0  0  0
 92 93  1  0  0  0  0
 93 94  2  0  0  0  0
 94 95  1  0  0  0  0
 95 96  2  0  0  0  0
 96 97  1  0  0  0  0
 97 98  2  0  0  0  0
 98 99  1  0  0  0  0
 99100  1  0  0  0  0
100101  1  0  0  0  0
 98102  1  0  0  0  0
102103  1  0  0  0  0
102104  2  0  0  0  0
 94105  1  0  0  0  0
105106  2  0  0  0  0
106107  1  0  0  0  0
107108  1  0  0  0  0
108109  2  0  0  0  0
109110  1  0  0  0  0
110111  2  0  0  0  0
111112  1  0  0  0  0
112113  1  0  0  0  0
113114  1  0  0  0  0
111115  1  0  0  0  0
115116  2  0  0  0  0
115117  1  0  0  0  0
107118  2  0  0  0  0
118119  1  0  0  0  0
106120  1  0  0  0  0
120121  2  0  0  0  0
121122  1  0  0  0  0
121123  1  0  0  0  0
123124  2  0  0  0  0
124125  1  0  0  0  0
125126  2  0  0  0  0
126127  1  0  0  0  0
127128  2  0  0  0  0
128129  1  0  0  0  0
129130  2  0  0  0  0
130131  1  0  0  0  0
131132  1  0  0  0  0
132133  1  0  0  0  0
130134  1  0  0  0  0
134135  1  0  0  0  0
134136  2  0  0  0  0
126137  1  0  0  0  0
137138  2  0  0  0  0
138139  1  0  0  0  0
139140  1  0  0  0  0
140141  2  0  0  0  0
141142  1  0  0  0  0
142143  2  0  0  0  0
143144  1  0  0  0  0
144145  1  0  0  0  0
145146  1  0  0  0  0
143147  1  0  0  0  0
147148  2  0  0  0  0
147149  1  0  0  0  0
139150  2  0  0  0  0
150151  1  0  0  0  0
138152  1  0  0  0  0
152153  2  0  0  0  0
153154  1  0  0  0  0
 29  1  1  0  0  0  0
 37 33  2  0  0  0  0
 50 46  2  0  0  0  0
 87 59  1  0  0  0  0
119 91  1  0  0  0  0
151123  1  0  0  0  0
 28  3  1  0  0  0  0
 43 36  1  0  0  0  0
 56 49  1  0  0  0  0
 86 61  1  0  0  0  0
118 93  1  0  0  0  0
150125  1  0  0  0  0
 14  5  1  0  0  0  0
 32 15  1  0  0  0  0
 72 63  1  0  0  0  0
 90 73  1  0  0  0  0
104 95  1  0  0  0  0
122105  1  0  0  0  0
136127  1  0  0  0  0
154137  1  0  0  0  0
 26 18  1  0  0  0  0
 84 76  1  0  0  0  0
116108  1  0  0  0  0
148140  1  0  0  0  0
  1155  1  0  0  0  0
  2156  1  0  0  0  0
  6157  1  0  0  0  0
  7158  1  0  0  0  0
 10159  1  0  0  0  0
 10160  1  0  0  0  0
 11161  1  0  0  0  0
 11162  1  0  0  0  0
 11163  1  0  0  0  0
 14164  1  0  0  0  0
 19165  1  0  0  0  0
 20166  1  0  0  0  0
 23167  1  0  0  0  0
 23168  1  0  0  0  0
 24169  1  0  0  0  0
 24170  1  0  0  0  0
 24171  1  0  0  0  0
 26172  1  0  0  0  0
 30173  1  0  0  0  0
 38174  1  0  0  0  0
 40175  1  0  0  0  0
 40176  1  0  0  0  0
 40177  1  0  0  0  0
 42178  1  0  0  0  0
 42179  1  0  0  0  0
 42180  1  0  0  0  0
 43181  1  0  0  0  0
 44182  1  0  0  0  0
 45183  1  0  0  0  0
 51184  1  0  0  0  0
 53185  1  0  0  0  0
 53186  1  0  0  0  0
 53187  1  0  0  0  0
 55188  1  0  0  0  0
 55189  1  0  0  0  0
 55190  1  0  0  0  0
 56191  1  0  0  0  0
 57192  1  0  0  0  0
 58193  1  0  0  0  0
 60194  1  0  0  0  0
 64195  1  0  0  0  0
 65196  1  0  0  0  0
 68197  1  0  0  0  0
 68198  1  0  0  0  0
 69199  1  0  0  0  0
 69200  1  0  0  0  0
 69201  1  0  0  0  0
 72202  1  0  0  0  0
 77203  1  0  0  0  0
 78204  1  0  0  0  0
 81205  1  0  0  0  0
 81206  1  0  0  0  0
 82207  1  0  0  0  0
 82208  1  0  0  0  0
 82209  1  0  0  0  0
 84210  1  0  0  0  0
 88211  1  0  0  0  0
 92212  1  0  0  0  0
 96213  1  0  0  0  0
 97214  1  0  0  0  0
100215  1  0  0  0  0
100216  1  0  0  0  0
101217  1  0  0  0  0
101218  1  0  0  0  0
101219  1  0  0  0  0
104220  1  0  0  0  0
109221  1  0  0  0  0
110222  1  0  0  0  0
113223  1  0  0  0  0
113224  1  0  0  0  0
114225  1  0  0  0  0
114226  1  0  0  0  0
114227  1  0  0  0  0
116228  1  0  0  0  0
120229  1  0  0  0  0
124230  1  0  0  0  0
128231  1  0  0  0  0
129232  1  0  0  0  0
132233  1  0  0  0  0
132234  1  0  0  0  0
133235  1  0  0  0  0
133236  1  0  0  0  0
133237  1  0  0  0  0
136238  1  0  0  0  0
141239  1  0  0  0  0
142240  1  0  0  0  0
145241  1  0  0  0  0
145242  1  0  0  0  0
146243  1  0  0  0  0
146244  1  0  0  0  0
146245  1  0  0  0  0
148246  1  0  0  0  0
152247  1  0  0  0  0
153248  1  0  0  0  0
M  END
