194

C          8.63380       -6.21790        7.24990
S          7.55960       -6.61870        8.51330
C          6.61430       -5.17600        8.28390
C          7.18440       -4.38780        7.28640
C          8.33250       -4.99950        6.68260
C          9.01360       -4.32610        5.64210
C          8.59810       -3.09720        5.22130
C          9.34840       -2.37460        4.14750
C          7.47000       -2.47350        5.84190
C          7.02810       -1.12180        5.37650
C          6.80110       -3.09840        6.85550
C          5.46700       -4.98550        9.12190
C          4.25200       -4.47540        8.82010
C          3.73030       -4.12100        7.53750
C          4.22650       -4.37410        6.29290
C          3.41980       -3.89820        5.23370
C          3.72660       -3.91160        3.86060
C          5.01220       -4.44180        3.39410
C          5.48600       -5.68110        3.81470
C          6.74580       -6.12620        3.46520
C          7.57400       -5.35410        2.66010
S          9.22450       -5.75130        2.19470
C          9.49470       -7.42970        2.85900
C          8.82670       -8.49980        2.01590
C          7.06320       -4.14150        2.19610
F          7.82590       -3.37880        1.38360
C          5.81860       -3.67780        2.55300
C          2.79120       -3.33980        3.01300
C          1.58070       -2.77440        3.48410
C          1.30140       -2.70320        4.86170
C          0.07550       -2.04160        5.32220
C         -0.79380       -2.64510        6.22960
C         -1.98500       -2.04080        6.56560
C         -2.37610       -0.81760        6.01420
S         -3.99460       -0.27130        6.46200
C         -4.10860        1.51110        6.07160
C         -3.21130        2.34950        6.95900
C         -1.48390       -0.21350        5.13460
C         -0.27800       -0.79860        4.80580
F         -1.75850        0.97400        4.54380
C          2.23330       -3.28160        5.70750
S          2.17520       -3.29840        7.45010
C          0.75770       -2.33790        2.42170
C          1.30920       -2.50770        1.18440
S          2.88870       -3.25750        1.26940
C          0.70920       -2.08570       -0.03940
C         -0.48120       -1.42450       -0.13650
C         -0.83700       -1.07020       -1.45690
C         -1.98230       -0.36480       -1.87290
C         -2.92890        0.13170       -0.86490
C         -2.46710        0.81920        0.25940
C         -3.31690        1.12850        1.29970
C         -4.66570        0.79000        1.24550
S         -5.68140        1.12910        2.65870
C         -6.51140       -0.48220        2.91860
C         -5.51860       -1.59710        3.17970
C         -5.13700        0.21190        0.07170
F         -6.45050       -0.06720       -0.07250
C         -4.29050       -0.13440       -0.96320
C         -2.14660       -0.21300       -3.23830
C         -1.20140       -0.68070       -4.18880
C         -0.02950       -1.33230       -3.76450
C          0.99570       -1.76210       -4.72270
C          1.50680       -0.87190       -5.66660
C          2.49010       -1.26710       -6.54720
C          2.99290       -2.56660       -6.53500
S          4.22180       -2.97460       -7.74110
C          5.41120       -4.01980       -6.82190
C          5.96660       -3.31290       -5.60220
C          2.45410       -3.45250       -5.60730
C          1.48830       -3.06220       -4.70180
F          2.85750       -4.74130       -5.56820
C          0.11200       -1.53290       -2.40000
S          1.45150       -2.32830       -1.60660
C         -1.61440       -0.42890       -5.51930
C         -2.80520        0.23690       -5.61690
S         -3.48060        0.57980       -4.02560
C         -3.50800        0.75130       -6.73700
S         -5.02340        1.52640       -6.41410
C         -5.10480        2.24880       -7.97800
C         -4.07110        1.77160       -8.78100
C         -3.14940        0.92800       -8.07890
C         -2.02130        0.45090       -8.77400
C         -1.79940        0.78550      -10.08240
C         -0.59030        0.26290      -10.79450
C         -2.71340        1.63340      -10.77340
C         -2.45810        1.99330      -12.20430
C         -3.81750        2.11110      -10.12580
C         -6.06350        3.29350       -8.23570
C         -6.31970        4.27960       -7.34730
C         -5.54040        4.46540       -6.15320
S         -6.28350        4.62280       -4.59330
C         -4.78750        4.34830       -3.74910
C         -3.73290        4.19970       -4.66630
C         -4.15640        4.31700       -6.01990
C         -3.19490        4.24590       -7.05000
C         -1.89930        3.91520       -6.76780
C         -0.89910        3.78280       -7.87390
C         -1.50220        3.67770       -5.42020
C         -0.10540        3.22440       -5.12830
C         -2.39380        3.86500       -4.39830
C         -4.70090        4.27670       -2.35030
C         -5.74670        4.34980       -1.47960
C         -5.61120        4.31190       -0.08170
S         -4.05150        4.27110        0.68370
C         -4.72490        4.26740        2.27920
C         -6.12210        4.30040        2.22220
C         -6.62650        4.32200        0.88900
C         -8.01610        4.33290        0.67930
C         -8.88400        4.32140        1.73820
C        -10.36250        4.32800        1.50040
C         -8.38210        4.29970        3.07080
C         -9.33890        4.28040        4.22310
C         -7.03330        4.29240        3.29650
C         -3.90090        4.21190        3.44160
C         -2.56750        4.13680        3.43950
H          9.43140       -6.88770        6.99620
H          9.88050       -4.79480        5.19930
H          8.68080       -2.03310        3.36040
H          9.84640       -1.49710        4.56050
H         10.10010       -3.02160        3.70320
H          6.73310       -1.16070        4.32830
H          7.83560       -0.39660        5.46760
H          6.17910       -0.77480        5.96020
H          5.97500       -2.60830        7.34680
H          5.59760       -5.34980       10.13480
H          3.54860       -4.36150        9.63510
H          5.14710       -4.89530        6.13030
H          4.85320       -6.31860        4.41350
H          7.07610       -7.08200        3.83710
H         10.57870       -7.54420        2.83700
H          9.16440       -7.44490        3.89700
H          9.02850       -9.48340        2.43620
H          9.21300       -8.47010        0.99980
H          7.74970       -8.35290        1.97480
H          5.49200       -2.71680        2.18820
H         -0.54430       -3.60500        6.65400
H         -2.66020       -2.52050        7.25730
H         -5.16070        1.72880        6.26010
H         -3.90960        1.66030        5.01300
H         -3.43070        2.16470        8.00890
H         -2.16310        2.12170        6.78020
H         -3.37220        3.40480        6.74860
H          0.38170       -0.26770        4.13660
H         -0.22440       -1.93210        2.57230
H         -1.10140       -1.20590        0.71180
H         -1.42690        1.10110        0.32120
H         -2.94300        1.62060        2.18440
H         -7.14410       -0.69040        2.05840
H         -7.14200       -0.30660        3.78980
H         -6.05160       -2.52700        3.36740
H         -4.90750       -1.36730        4.04970
H         -4.86350       -1.74190        2.32170
H         -4.70230       -0.63240       -1.82680
H          1.15170        0.14730       -5.68170
H          2.89510       -0.57040       -7.26500
H          4.92980       -4.96060       -6.56440
H          6.19290       -4.21030       -7.55740
H          6.41370       -2.36120       -5.88210
H          5.18320       -3.12500       -4.87020
H          6.72860       -3.93370       -5.13520
H          1.10590       -3.79270       -4.00630
H         -1.04530       -0.76450       -6.36460
H         -1.32210       -0.19870       -8.27240
H          0.03330        1.08390      -11.14700
H         -0.88050       -0.32790      -11.66260
H          0.00480       -0.36440      -10.13530
H         -1.50320        2.50750      -12.30830
H         -3.24350        2.64320      -12.58180
H         -2.42150        1.09860      -12.82490
H         -4.51770        2.75400      -10.63960
H         -6.59380        3.26690       -9.17850
H         -7.15130        4.95130       -7.51530
H         -3.50020        4.43910       -8.06750
H         -0.51610        2.76360       -7.91970
H         -1.35800        4.01580       -8.83150
H         -0.05480        4.45310       -7.71650
H          0.02730        3.04810       -4.06350
H          0.10490        2.29710       -5.66130
H          0.62370        3.96660       -5.45210
H         -2.07800        3.72300       -3.37540
H         -3.70650        4.14700       -1.94280
H         -6.75000        4.44680       -1.87250
H         -8.39850        4.34330       -0.33070
H        -10.82480        3.43900        1.92840
H        -10.57900        4.35010        0.43540
H        -10.82410        5.19860        1.96580
H         -9.98250        5.15950        4.20520
H         -9.97890        3.39990        4.17580
H         -8.80120        4.26550        5.16780
H         -6.65720        4.26920        4.30830
H         -4.43680        4.22490        4.38130
H         -2.00910        4.12320        2.51810
H         -2.00160        4.08520        4.35180
