167

C         -3.37570        1.26370        7.30920
C         -2.33230        2.01040        6.89340
C         -1.64330        1.43530        5.78510
C         -0.52050        1.92560        5.09840
C          0.20790        3.11880        5.54460
C          0.60640        3.25840        6.87350
C          1.36120        4.34050        7.27220
C          1.73980        5.33000        6.36740
S          2.71140        6.67870        6.96770
C          3.88050        6.97900        5.57920
C          5.17990        7.52660        6.13520
C          1.29980        5.20060        5.05450
F          1.58220        6.15340        4.13500
C          0.56240        4.11210        4.63810
C         -0.08480        1.18910        4.00840
C         -0.69150       -0.02180        3.59120
C         -1.79330       -0.52560        4.29930
C         -2.38800       -1.82470        3.94610
C         -2.29820       -2.89700        4.82980
C         -2.76690       -4.14360        4.46940
C         -3.37310       -4.34800        3.23470
S         -3.91800       -5.97930        2.80730
C         -3.26380       -6.17490        1.10520
C         -1.76540       -5.95960        1.03680
C         -3.53680       -3.24690        2.40150
C         -3.02520       -2.00690        2.72490
F         -4.21480       -3.37610        1.24230
C         -2.24120        0.21940        5.37710
S         -3.60420       -0.18700        6.38900
C          0.00180       -0.62290        2.51790
C          1.12340        0.05990        2.11700
S          1.32950        1.53700        3.04720
C          2.01480       -0.32720        1.09490
S          1.69990       -1.82210        0.25660
C          3.02440       -1.60910       -0.83990
C          3.72540       -0.42300       -0.51620
C          3.16750        0.28850        0.58320
C          3.80880        1.45490        1.03540
C          4.94580        1.91450        0.42700
C          5.65560        3.11200        0.97680
C          5.47150        1.23520       -0.70310
C          6.69350        1.76220       -1.39070
C          4.86530        0.09100       -1.15290
C          3.43090       -2.54260       -1.80070
C          2.84150       -3.68420       -2.29080
C          1.53330       -4.17650       -2.24510
S          0.12930       -3.26620       -1.78290
C         -0.98780       -4.51000       -2.26330
C         -0.26390       -5.64110       -2.73870
C          1.13850       -5.44810       -2.73910
C          1.97220       -6.47740       -3.19390
C          1.44850       -7.66390       -3.64610
C          2.35530       -8.74740       -4.14240
C          0.04750       -7.86120       -3.63870
C         -0.52870       -9.15730       -4.11970
C         -0.78120       -6.86310       -3.18520
C         -2.37470       -4.43300       -2.23620
C         -3.30180       -3.48250       -1.84430
C         -3.24860       -2.21220       -1.28770
S         -1.82080       -1.31560       -0.85460
C         -2.71370        0.04170       -0.23620
C         -4.11020       -0.20490       -0.35950
C         -4.40850       -1.44960       -0.96200
C         -5.74870       -1.79750       -1.16950
C         -6.76830       -0.95000       -0.80550
C         -8.19350       -1.34470       -1.04110
C         -6.46820        0.29760       -0.21050
C         -7.57480        1.22630        0.18360
C         -5.15750        0.65330        0.00130
C         -2.17270        1.16500        0.39200
C         -0.94270        1.78700        0.33790
C          0.15270        1.65560       -0.51350
S          0.34270        0.43850       -1.74000
C          1.75060        1.17790       -2.42550
C          2.07470        2.35990       -1.70920
C          1.20210        2.61020       -0.62160
C          1.41610        3.74310        0.17220
C          2.41840        4.63680       -0.12080
C          2.61680        5.85110        0.73230
C          3.25000        4.41630       -1.24400
C          4.27420        5.43980       -1.63180
C          3.08760        3.28170       -2.00190
C          2.51810        0.62930       -3.45990
C          2.33940       -0.46790       -4.26590
C          1.21880       -1.27110       -4.55010
S          1.54480       -2.87450       -5.16310
C         -0.12630       -3.30300       -5.24070
C         -0.92360       -2.21890       -4.84900
C         -0.16900       -1.05520       -4.51180
C         -0.85220        0.15140       -4.28340
C         -2.22420        0.18380       -4.23460
C         -2.93240        1.46490       -3.92290
C         -2.97380       -0.99750       -4.47570
C         -4.47030       -0.95030       -4.44190
C         -2.32830       -2.16110       -4.80400
C         -0.55350       -4.58500       -5.69740
C          0.24960       -5.54160       -6.16960
H         -4.05190        1.46800        8.11620
H         -2.05760        2.95030        7.33740
H          0.35410        2.49010        7.58820
H          1.68540        4.43430        8.29700
H          3.41860        7.68210        4.88730
H          4.03730        6.02240        5.08290
H          5.00550        8.46290        6.66030
H          5.88080        7.70760        5.32280
H          5.62510        6.81930        6.83130
H          0.24860        4.06020        3.60780
H         -1.82470       -2.75690        5.78960
H         -2.66270       -4.98410        5.13760
H         -3.79760       -5.49880        0.44050
H         -3.52530       -7.20300        0.85510
H         -1.40600       -6.19870        0.03780
H         -1.51130       -4.92270        1.25010
H         -1.25350       -6.59690        1.75500
H         -3.14810       -1.18660        2.03540
H         -0.30130       -1.54890        2.06270
H          3.41110        1.98590        1.88520
H          6.61510        2.81700        1.40330
H          5.06100        3.57950        1.75740
H          5.85190        3.84220        0.19580
H          6.97070        1.12300       -2.22550
H          7.53400        1.81210       -0.69930
H          6.51620        2.76860       -1.76930
H          5.27600       -0.42820       -2.00630
H          4.42640       -2.35360       -2.18370
H          3.50330       -4.30510       -2.88320
H          3.04310       -6.33910       -3.18910
H          2.22210       -9.65910       -3.56080
H          2.13600       -8.98360       -5.18330
H          3.39560       -8.44070       -4.07030
H         -0.24030       -9.34680       -5.15320
H         -0.16220       -9.98840       -3.51760
H         -1.61410       -9.14190       -4.06120
H         -1.84820       -7.03150       -3.17900
H         -2.83860       -5.33460       -2.62090
H         -4.32300       -3.81100       -1.99770
H         -5.99530       -2.74530       -1.62300
H         -8.69130       -0.62490       -1.69060
H         -8.74250       -1.37720       -0.10060
H         -8.24890       -2.32580       -1.50580
H         -8.23160        0.75210        0.91220
H         -7.17520        2.13780        0.62090
H         -8.18000        1.49400       -0.68230
H         -4.93460        1.61050        0.44960
H         -2.89020        1.68120        1.02170
H         -0.85170        2.62960        1.01300
H          0.78080        3.92910        1.02480
H          2.49130        6.75940        0.14360
H          1.90470        5.87120        1.55200
H          3.62170        5.86710        1.15310
H          3.78010        6.35120       -1.97050
H          4.89960        5.07200       -2.44210
H          4.90950        5.70940       -0.78990
H          3.73080        3.11330       -2.85310
H          3.47770        1.11940       -3.57700
H          3.23580       -0.79850       -4.78040
H         -0.28900        1.06690       -4.19500
H         -3.49440        1.36680       -2.99310
H         -2.22020        2.27820       -3.80740
H         -3.63770        1.72560       -4.71120
H         -4.84810       -0.31150       -5.24070
H         -4.82740       -0.54650       -3.49630
H         -4.88710       -1.94580       -4.57210
H         -2.90220       -3.04450       -5.04090
H         -1.62100       -4.75570       -5.65600
H         -0.13740       -6.48530       -6.50820
H          1.31630       -5.40320       -6.22270
