88

C          4.02200        7.19580        3.28820
O          3.03750        6.36780        2.92440
C          3.60180        5.22590        2.45810
C          4.97590        5.32870        2.52650
C          5.23740        6.60980        3.06570
C          6.57400        7.19590        3.33450
F          7.34650        7.24830        2.23440
F          7.27450        6.49480        4.24450
F          6.49500        8.45210        3.80320
C          2.79620        4.15080        1.98980
S          3.56570        2.71850        1.39470
C          2.05230        1.94970        1.03660
C          0.98160        2.79360        1.37630
C          1.40290        4.04320        1.91860
C          0.43040        4.98680        2.30460
C         -0.90270        4.71010        2.16340
C         -1.92680        5.71980        2.57870
C         -1.32410        3.46070        1.62320
C         -2.78430        3.16590        1.47630
C         -0.39380        2.53160        1.24150
C          1.95630        0.66250        0.47490
C          2.99390       -0.18130        0.22840
C          2.82450       -1.46580       -0.33930
S          3.93210       -2.74010        0.06940
C          2.94390       -3.95050       -0.66820
C          1.86240       -3.36930       -1.33140
C          1.79190       -1.95480       -1.15330
C          0.79210       -1.23640       -1.83690
C         -0.11340       -1.87590       -2.64040
C         -1.16140       -1.08720       -3.36370
C         -0.03540       -3.28680       -2.82360
C         -0.97540       -3.96850       -3.77120
C          0.93870       -4.00570       -2.18860
C          3.12920       -5.36300       -0.40840
C          2.13470       -6.06600        0.14870
C          0.96580       -5.32930        0.64140
O         -0.17890       -5.30230       -0.04470
C         -0.98210       -4.35930        0.50360
C         -0.37320       -3.80690        1.60310
C          0.88630       -4.43840        1.69380
C          1.88030       -4.17200        2.76690
F          3.02570       -4.84960        2.61750
F          2.20740       -2.87150        2.84730
F          1.40210       -4.50680        3.98060
C         -2.19110       -4.02030       -0.18590
O         -2.69630       -4.86790       -1.08810
C         -3.75770       -4.27400       -1.67830
C         -3.95370       -3.02110       -1.14540
C         -2.93920       -2.85310       -0.18050
C         -2.70610       -1.63220        0.63220
F         -2.87380       -1.83970        1.95140
F         -1.45810       -1.14370        0.49470
F         -3.53340       -0.63570        0.29850
C         -4.44620       -4.99320       -2.71320
O         -4.17660       -6.29450       -2.89690
C         -4.92080       -6.73240       -3.92000
C         -5.68730       -5.72880       -4.42800
C         -5.38300       -4.58680       -3.64690
C         -5.93420       -3.22140       -3.83710
F         -6.68560       -2.80820       -2.79810
F         -6.70360       -3.13100       -4.92430
F         -4.96240       -2.29530       -3.97330
H          3.75740        8.15560        3.68380
H          5.69470        4.59300        2.23270
H          0.75000        5.93140        2.71460
H         -2.57360        5.31250        3.35490
H         -2.55740        5.99710        1.73470
H         -1.44770        6.61640        2.96260
H         -3.26170        3.89900        0.82700
H         -2.93740        2.17780        1.05080
H         -3.28330        3.20660        2.44380
H         -0.71560        1.58420        0.83690
H          0.95280        0.31740        0.27620
H          3.99020        0.09310        0.55050
H          0.77140       -0.16080       -1.76430
H         -2.16260       -1.39780       -3.06350
H         -1.05460       -0.02700       -3.15050
H         -1.08090       -1.23460       -4.43970
H         -1.99730       -3.61870       -3.63830
H         -0.94800       -5.04610       -3.62830
H         -0.68750       -3.75100       -4.80050
H          1.03210       -5.06850       -2.35860
H          4.07340       -5.82700       -0.65490
H          2.17420       -7.13490        0.28570
H         -0.75420       -3.06200        2.26890
H         -4.71200       -2.30720       -1.38890
H         -4.82270       -7.76320       -4.19500
H         -6.37570       -5.77230       -5.24560
