221

C          3.41490       -2.64390        8.86420
C          3.11300       -2.10300        7.66710
C          2.43160       -3.01090        6.80220
C          2.00090       -2.79430        5.48470
C          2.10240       -1.47020        4.85500
C          1.56560       -0.35320        5.48820
C          1.61420        0.89790        4.90330
C          2.21610        1.07910        3.66370
S          2.34410        2.60770        2.79100
C          1.44810        3.81140        3.83290
C          2.27960        4.32910        4.99310
C          2.75940       -0.04880        3.04410
F          3.35930        0.09450        1.84590
C          2.70280       -1.30320        3.60940
C          1.42680       -3.87500        4.83280
C          1.23090       -5.13820        5.44580
C          1.65010       -5.34960        6.76950
C          1.45630       -6.64170        7.43780
C          0.84590       -6.71440        8.68640
C          0.64800       -7.92690        9.31770
C          1.06690       -9.11370        8.72760
S          0.85610      -10.72480        9.41060
C          0.52940      -10.41730       11.18060
C          1.74630       -9.87350       11.90430
C          1.67720       -9.02650        7.47500
C          1.87400       -7.82560        6.83190
F          2.09220      -10.15750        6.86850
C          2.24350       -4.27250        7.41320
S          2.89490       -4.28690        9.03360
C          0.53970       -6.04100        4.59770
C          0.21430       -5.51880        3.37880
S          0.77960       -3.85720        3.21590
C         -0.49550       -6.09420        2.28670
S         -0.30410       -5.38740        0.72030
C         -1.49890       -6.41370       -0.00160
C         -1.99000       -7.32330        0.94000
C         -1.42640       -7.14120        2.24310
C         -1.87890       -7.96500        3.29270
C         -2.78970       -8.96080        3.06600
C         -3.24760       -9.83040        4.19500
C         -3.29470       -9.18550        1.75280
C         -4.25450      -10.30700        1.50590
C         -2.90390       -8.37290        0.72420
C         -1.88030       -6.09200       -1.33160
C         -3.09840       -6.24390       -1.89930
C         -3.40270       -5.56800       -3.12450
C         -2.55690       -5.20260       -4.13010
C         -3.07320       -4.18450       -4.97130
C         -2.35570       -3.43060       -5.91550
C         -1.01410       -3.84210       -6.35010
C         -0.79920       -5.11920       -6.86620
C          0.44870       -5.49380       -7.31580
C          1.53630       -4.62400       -7.24850
S          3.09270       -5.23090       -7.82750
C          3.88170       -3.78230       -8.62340
C          3.01830       -3.18900       -9.71800
C          1.31760       -3.37180       -6.68310
F          2.33410       -2.49460       -6.52320
C          0.06760       -2.97330       -6.25600
C         -2.93100       -2.23610       -6.31620
C         -4.20630       -1.80150       -5.87290
C         -4.96610       -2.60870       -5.00950
C         -6.23850       -2.13590       -4.44280
C         -6.29470       -0.92520       -3.75240
C         -7.48450       -0.47040       -3.22710
C         -8.65930       -1.20760       -3.35670
S        -10.12270       -0.53570       -2.61950
C        -11.42730       -0.86950       -3.85970
C        -11.10790       -0.24000       -5.20080
C         -8.57750       -2.43800       -4.00030
C         -7.39480       -2.89830       -4.54620
F         -9.66630       -3.22920       -4.11790
C         -4.37320       -3.78200       -4.57440
S         -4.97150       -4.77980       -3.27240
C         -4.45850       -0.45330       -6.22580
C         -3.39740        0.15920       -6.83210
S         -2.12540       -0.98500       -7.22940
C         -3.06060        1.54520       -6.73290
C         -3.62090        2.39540       -5.81890
C         -2.75720        3.44100       -5.42020
C         -2.88770        4.24340       -4.27490
C         -4.08280        4.13270       -3.41990
C         -4.37480        2.91390       -2.81030
C         -5.49670        2.77360       -2.02150
C         -6.36680        3.84000       -1.81810
S         -7.78240        3.58190       -0.77710
C         -9.14630        4.16630       -1.84900
C         -9.30520        3.29210       -3.07720
C         -6.04130        5.06080       -2.39920
F         -6.82600        6.14130       -2.20180
C         -4.92120        5.21570       -3.19410
C         -1.77470        4.96470       -3.89240
C         -0.54620        4.94610       -4.60440
C         -0.43490        4.18450       -5.78090
C          0.82740        4.00640       -6.51190
C          1.97260        3.54410       -5.87020
C          3.12120        3.26440       -6.58400
C          3.16390        3.43630       -7.96270
S          4.57460        3.08650       -8.96500
C          5.40270        1.73380       -8.05600
C          4.54170        0.48860       -7.96980
C          2.02080        3.93360       -8.58760
C          0.86500        4.20630       -7.88930
F          2.03260        4.14000       -9.91890
C         -1.54170        3.43580       -6.14600
S         -1.52180        2.14640       -7.32710
C          0.48410        5.59050       -3.88520
C          0.11490        6.01780       -2.63360
S         -1.60970        5.78750       -2.36390
C          0.99550        6.40170       -1.59420
S          2.70970        6.32000       -1.89020
C          3.10560        6.46260       -0.20910
C          1.94460        6.67160        0.54770
C          0.75010        6.64710       -0.23510
C         -0.48300        6.87210        0.40410
C         -0.54430        7.13240        1.74720
C         -1.86770        7.37790        2.40230
C          0.65050        7.20230        2.51690
C          0.57860        7.55510        3.97120
C          1.86190        6.97230        1.92040
C          4.44780        6.29990        0.21030
C          4.81500        5.70110        1.37440
C          6.14590        5.54190        1.81290
S          7.45400        6.45860        1.13520
C          8.62660        5.75210        2.19590
C          8.02380        4.81340        3.04020
C          6.61980        4.68850        2.82100
C          5.88920        3.73670        3.55410
C          6.50530        2.95130        4.49050
C          5.71720        1.92540        5.24570
C          7.89980        3.10160        4.74070
C          8.56340        2.24780        5.77700
C          8.63220        4.00930        4.02540
C         10.00330        6.12720        2.14670
C         10.52620        7.02430        1.30770
H          3.92300       -2.18260        9.68840
H          3.37390       -1.10030        7.37990
H          1.07820       -0.46850        6.44480
H          1.16860        1.72950        5.42410
H          0.51900        3.34660        4.16000
H          1.20770        4.62030        3.14160
H          1.68520        5.01380        5.59500
H          3.15360        4.86250        4.62700
H          2.62220        3.51700        5.63060
H          3.13710       -2.13740        3.08160
H          0.49820       -5.81080        9.16320
H          0.15190       -7.93920       10.27450
H          0.25860      -11.40210       11.56150
H         -0.33650       -9.76230       11.26960
H          2.57880      -10.56680       11.81010
H          2.05080       -8.91390       11.49170
H          1.52010       -9.74220       12.96080
H          2.37520       -7.81630        5.87660
H          0.31250       -7.04820        4.88950
H         -1.50700       -7.80500        4.29180
H         -2.78000       -9.52760        5.12840
H         -4.32890       -9.77020        4.31260
H         -2.99250      -10.87220        4.00390
H         -5.15850      -10.17820        2.10010
H         -4.53370      -10.34860        0.45620
H         -3.80870      -11.26130        1.78400
H         -3.27590       -8.54430       -0.27400
H         -1.14220       -5.51820       -1.87930
H         -3.91840       -6.68970       -1.35710
H         -1.56210       -5.59680       -4.23520
H         -1.62630       -5.80920       -6.93930
H          0.60680       -6.47540       -7.73480
H          4.13120       -3.04990       -7.85900
H          4.80270       -4.19920       -9.03140
H          3.56740       -2.40100      -10.22950
H          2.74450       -3.95140      -10.44430
H          2.10710       -2.75920       -9.30650
H         -0.03730       -1.99230       -5.82060
H         -5.39370       -0.34650       -3.61660
H         -7.52680        0.47020       -2.70040
H        -11.57430       -1.94430       -3.93780
H        -12.31590       -0.42080       -3.41560
H        -11.93870       -0.39630       -5.88580
H        -10.94020        0.82960       -5.09130
H        -10.21550       -0.68670       -5.63580
H         -7.38860       -3.85370       -5.04770
H         -5.35930        0.06630       -5.95650
H         -4.56820        2.20900       -5.34710
H         -3.70730        2.07700       -2.95280
H         -5.71840        1.83090       -1.54510
H         -8.96570        5.20770       -2.10670
H        -10.02500        4.10540       -1.20780
H        -10.14050        3.65060       -3.67610
H         -8.40480        3.31920       -3.68990
H         -9.49980        2.26170       -2.78620
H         -4.71380        6.18090       -3.62970
H          1.95560        3.36900       -4.80520
H          3.98920        2.90220       -6.05670
H          5.70350        2.09700       -7.07420
H          6.30010        1.54810       -8.64630
H          5.09310       -0.30840       -7.47480
H          3.63180        0.67940       -7.40470
H          4.26260        0.15420       -8.96630
H          0.00100        4.57160       -8.42230
H          1.49270        5.67870       -4.24750
H         -1.39150        6.86670       -0.17680
H         -2.67440        7.28560        1.68010
H         -2.03890        6.66100        3.20480
H         -1.90300        8.37640        2.83680
H          0.14560        8.54650        4.10010
H          1.57060        7.55300        4.41590
H         -0.05040        6.84860        4.51200
H          2.77330        7.05830        2.49290
H          5.21870        6.59000       -0.49280
H          4.05190        5.25230        1.99470
H          4.83910        3.60490        3.34660
H          4.68730        1.90370        4.89900
H          6.14420        0.93290        5.10680
H          5.72220        2.14270        6.31400
H          8.48090        1.19350        5.51440
H          8.09220        2.38510        6.74970
H          9.61740        2.49910        5.86470
H          9.69210        4.10710        4.20840
H         10.64330        5.62350        2.85900
H         11.57470        7.26230        1.31800
H          9.91630        7.53930        0.58420
