
  xtb     03042204483D
 energy: -418.544505004688 gnorm: 0.000205767287 xtb: 6.4.1 (unknown)
248271  0     0  0            999 V2000
    3.3910   -2.1996   10.7235 C   0  0  0  0  0  0  0  0  0  0  0  0
    3.6926   -1.2862    9.7796 C   0  0  0  0  0  0  0  0  0  0  0  0
    2.6866   -1.1760    8.7746 C   0  0  0  0  0  0  0  0  0  0  0  0
    2.6680   -0.3355    7.6553 C   0  0  0  0  0  0  0  0  0  0  0  0
    3.7394    0.6298    7.3731 C   0  0  0  0  0  0  0  0  0  0  0  0
    5.0668    0.2405    7.2127 C   0  0  0  0  0  0  0  0  0  0  0  0
    6.0430    1.1809    6.9640 C   0  0  0  0  0  0  0  0  0  0  0  0
    5.7488    2.5445    6.8876 C   0  0  0  0  0  0  0  0  0  0  0  0
    7.1296    3.6234    6.6894 S   0  0  0  0  0  0  0  0  0  0  0  0
    6.4940    5.1636    5.9341 C   0  0  0  0  0  0  0  0  0  0  0  0
    5.8709    4.9300    4.5734 C   0  0  0  0  0  0  0  0  0  0  0  0
    4.4176    2.9124    7.0525 C   0  0  0  0  0  0  0  0  0  0  0  0
    4.0351    4.2110    7.0262 F   0  0  0  0  0  0  0  0  0  0  0  0
    3.4248    1.9790    7.2692 C   0  0  0  0  0  0  0  0  0  0  0  0
    1.5710   -0.4436    6.8186 C   0  0  0  0  0  0  0  0  0  0  0  0
    0.4973   -1.3417    7.0360 C   0  0  0  0  0  0  0  0  0  0  0  0
    0.4889   -2.1433    8.1894 C   0  0  0  0  0  0  0  0  0  0  0  0
   -0.6323   -3.0384    8.5031 C   0  0  0  0  0  0  0  0  0  0  0  0
   -1.1259   -3.9402    7.5630 C   0  0  0  0  0  0  0  0  0  0  0  0
   -2.1901   -4.7617    7.8620 C   0  0  0  0  0  0  0  0  0  0  0  0
   -2.8050   -4.7269    9.1123 C   0  0  0  0  0  0  0  0  0  0  0  0
   -4.1322   -5.8640    9.3816 S   0  0  0  0  0  0  0  0  0  0  0  0
   -5.3216   -4.9480   10.4285 C   0  0  0  0  0  0  0  0  0  0  0  0
   -5.7859   -3.6641    9.7711 C   0  0  0  0  0  0  0  0  0  0  0  0
   -2.2821   -3.8452   10.0533 C   0  0  0  0  0  0  0  0  0  0  0  0
   -1.2269   -3.0048    9.7601 C   0  0  0  0  0  0  0  0  0  0  0  0
   -2.7972   -3.7764   11.3005 F   0  0  0  0  0  0  0  0  0  0  0  0
    1.5946   -2.0412    9.0248 C   0  0  0  0  0  0  0  0  0  0  0  0
    1.8656   -2.9794   10.4719 S   0  0  0  0  0  0  0  0  0  0  0  0
   -0.4482   -1.2867    5.9781 C   0  0  0  0  0  0  0  0  0  0  0  0
   -0.1061   -0.4192    4.9847 C   0  0  0  0  0  0  0  0  0  0  0  0
    1.3815    0.4408    5.3324 S   0  0  0  0  0  0  0  0  0  0  0  0
   -0.7391   -0.2024    3.7281 C   0  0  0  0  0  0  0  0  0  0  0  0
   -0.3627    0.6955    2.7733 C   0  0  0  0  0  0  0  0  0  0  0  0
   -1.0928    0.5903    1.5664 C   0  0  0  0  0  0  0  0  0  0  0  0
   -0.9553    1.3616    0.3958 C   0  0  0  0  0  0  0  0  0  0  0  0
    0.0213    2.4561    0.3076 C   0  0  0  0  0  0  0  0  0  0  0  0
    1.3461    2.2715    0.6969 C   0  0  0  0  0  0  0  0  0  0  0  0
    2.2550    3.3067    0.6511 C   0  0  0  0  0  0  0  0  0  0  0  0
    1.8758    4.5719    0.2172 C   0  0  0  0  0  0  0  0  0  0  0  0
    3.0989    5.8578    0.2009 S   0  0  0  0  0  0  0  0  0  0  0  0
    2.2474    7.2314    1.0558 C   0  0  0  0  0  0  0  0  0  0  0  0
    1.8437    6.8499    2.4657 C   0  0  0  0  0  0  0  0  0  0  0  0
    0.5620    4.7390   -0.2087 C   0  0  0  0  0  0  0  0  0  0  0  0
    0.1429    5.9350   -0.6743 F   0  0  0  0  0  0  0  0  0  0  0  0
   -0.3585    3.7110   -0.1600 C   0  0  0  0  0  0  0  0  0  0  0  0
   -1.8009    1.0418   -0.6529 C   0  0  0  0  0  0  0  0  0  0  0  0
   -2.7912    0.0298   -0.5744 C   0  0  0  0  0  0  0  0  0  0  0  0
   -2.9690   -0.6974    0.6154 C   0  0  0  0  0  0  0  0  0  0  0  0
   -4.0747   -1.6503    0.7581 C   0  0  0  0  0  0  0  0  0  0  0  0
   -3.8801   -2.9423    1.2344 C   0  0  0  0  0  0  0  0  0  0  0  0
   -4.9422   -3.8128    1.3897 C   0  0  0  0  0  0  0  0  0  0  0  0
   -6.2402   -3.4173    1.0874 C   0  0  0  0  0  0  0  0  0  0  0  0
   -7.6766   -4.4212    1.2561 S   0  0  0  0  0  0  0  0  0  0  0  0
   -7.1500   -5.7636    2.3732 C   0  0  0  0  0  0  0  0  0  0  0  0
   -6.8575   -5.2684    3.7762 C   0  0  0  0  0  0  0  0  0  0  0  0
   -6.4181   -2.1240    0.5927 C   0  0  0  0  0  0  0  0  0  0  0  0
   -5.3697   -1.2496    0.4269 C   0  0  0  0  0  0  0  0  0  0  0  0
   -7.6607   -1.7081    0.2689 F   0  0  0  0  0  0  0  0  0  0  0  0
   -2.0851   -0.4200    1.6444 C   0  0  0  0  0  0  0  0  0  0  0  0
   -2.0723   -1.2094    3.2012 S   0  0  0  0  0  0  0  0  0  0  0  0
   -3.4995   -0.1279   -1.7859 C   0  0  0  0  0  0  0  0  0  0  0  0
   -3.1147    0.7385   -2.7742 C   0  0  0  0  0  0  0  0  0  0  0  0
   -1.7900    1.7725   -2.2337 S   0  0  0  0  0  0  0  0  0  0  0  0
   -3.5931    0.9212   -4.0909 C   0  0  0  0  0  0  0  0  0  0  0  0
   -2.7337    2.0531   -5.0832 S   0  0  0  0  0  0  0  0  0  0  0  0
   -3.7181    1.7387   -6.4776 C   0  0  0  0  0  0  0  0  0  0  0  0
   -4.7356    0.8248   -6.1481 C   0  0  0  0  0  0  0  0  0  0  0  0
   -4.6598    0.3481   -4.8043 C   0  0  0  0  0  0  0  0  0  0  0  0
   -5.6061   -0.6009   -4.3772 C   0  0  0  0  0  0  0  0  0  0  0  0
   -6.5739   -1.0700   -5.2261 C   0  0  0  0  0  0  0  0  0  0  0  0
   -7.5517   -2.0970   -4.7494 C   0  0  0  0  0  0  0  0  0  0  0  0
   -6.6467   -0.5899   -6.5621 C   0  0  0  0  0  0  0  0  0  0  0  0
   -7.7193   -1.0928   -7.4781 C   0  0  0  0  0  0  0  0  0  0  0  0
   -5.7414    0.3405   -7.0004 C   0  0  0  0  0  0  0  0  0  0  0  0
   -3.3010    2.1702   -7.7512 C   0  0  0  0  0  0  0  0  0  0  0  0
   -2.1286    2.8554   -7.8944 C   0  0  0  0  0  0  0  0  0  0  0  0
   -1.2684    2.9231   -9.0025 C   0  0  0  0  0  0  0  0  0  0  0  0
    0.4032    3.1513   -8.5767 S   0  0  0  0  0  0  0  0  0  0  0  0
    0.9718    2.5607  -10.0963 C   0  0  0  0  0  0  0  0  0  0  0  0
   -0.1019    2.3739  -10.9761 C   0  0  0  0  0  0  0  0  0  0  0  0
   -1.3758    2.5645  -10.3570 C   0  0  0  0  0  0  0  0  0  0  0  0
   -2.5397    2.3923  -11.1229 C   0  0  0  0  0  0  0  0  0  0  0  0
   -2.4640    2.0292  -12.4428 C   0  0  0  0  0  0  0  0  0  0  0  0
   -3.7143    1.8663  -13.2506 C   0  0  0  0  0  0  0  0  0  0  0  0
   -1.1964    1.8119  -13.0522 C   0  0  0  0  0  0  0  0  0  0  0  0
   -1.1239    1.4127  -14.4936 C   0  0  0  0  0  0  0  0  0  0  0  0
   -0.0478    1.9784  -12.3253 C   0  0  0  0  0  0  0  0  0  0  0  0
    2.3596    2.2796  -10.2824 C   0  0  0  0  0  0  0  0  0  0  0  0
    3.1905    1.8661   -9.3031 C   0  0  0  0  0  0  0  0  0  0  0  0
    2.7931    1.4559   -7.9728 C   0  0  0  0  0  0  0  0  0  0  0  0
    3.3609    1.7971   -6.7879 C   0  0  0  0  0  0  0  0  0  0  0  0
    2.7337    1.2111   -5.6548 C   0  0  0  0  0  0  0  0  0  0  0  0
    3.0835    1.3603   -4.3096 C   0  0  0  0  0  0  0  0  0  0  0  0
    4.1834    2.2045   -3.8284 C   0  0  0  0  0  0  0  0  0  0  0  0
    3.9273    3.1432   -2.8322 C   0  0  0  0  0  0  0  0  0  0  0  0
    4.9445    3.8867   -2.2721 C   0  0  0  0  0  0  0  0  0  0  0  0
    6.2621    3.7041   -2.6763 C   0  0  0  0  0  0  0  0  0  0  0  0
    7.6440    4.5444   -1.9789 S   0  0  0  0  0  0  0  0  0  0  0  0
    6.9906    5.2001   -0.4040 C   0  0  0  0  0  0  0  0  0  0  0  0
    6.6636    4.1033    0.5908 C   0  0  0  0  0  0  0  0  0  0  0  0
    6.4986    2.7929   -3.7069 C   0  0  0  0  0  0  0  0  0  0  0  0
    7.7616    2.6089   -4.1460 F   0  0  0  0  0  0  0  0  0  0  0  0
    5.4895    2.0524   -4.2840 C   0  0  0  0  0  0  0  0  0  0  0  0
    2.3393    0.6368   -3.3919 C   0  0  0  0  0  0  0  0  0  0  0  0
    1.2266   -0.1746   -3.7199 C   0  0  0  0  0  0  0  0  0  0  0  0
    0.8394   -0.2828   -5.0743 C   0  0  0  0  0  0  0  0  0  0  0  0
   -0.3268   -1.0699   -5.4917 C   0  0  0  0  0  0  0  0  0  0  0  0
   -0.6321   -2.3094   -4.9258 C   0  0  0  0  0  0  0  0  0  0  0  0
   -1.7651   -2.9989   -5.2970 C   0  0  0  0  0  0  0  0  0  0  0  0
   -2.6274   -2.5158   -6.2816 C   0  0  0  0  0  0  0  0  0  0  0  0
   -4.0791   -3.4630   -6.5990 S   0  0  0  0  0  0  0  0  0  0  0  0
   -4.5217   -3.0896   -8.3425 C   0  0  0  0  0  0  0  0  0  0  0  0
   -5.4358   -4.1844   -8.8569 C   0  0  0  0  0  0  0  0  0  0  0  0
   -2.2785   -1.3133   -6.8863 C   0  0  0  0  0  0  0  0  0  0  0  0
   -1.1719   -0.5919   -6.4908 C   0  0  0  0  0  0  0  0  0  0  0  0
   -3.0149   -0.8040   -7.9012 F   0  0  0  0  0  0  0  0  0  0  0  0
    1.6296    0.3931   -6.0030 C   0  0  0  0  0  0  0  0  0  0  0  0
    1.4654    0.3194   -7.7409 S   0  0  0  0  0  0  0  0  0  0  0  0
    0.7064   -0.8182   -2.5599 C   0  0  0  0  0  0  0  0  0  0  0  0
    1.4418   -0.5971   -1.4318 C   0  0  0  0  0  0  0  0  0  0  0  0
    2.7496    0.5385   -1.7063 S   0  0  0  0  0  0  0  0  0  0  0  0
    1.3757   -1.2049   -0.1409 C   0  0  0  0  0  0  0  0  0  0  0  0
    2.2813   -1.0121    0.8619 C   0  0  0  0  0  0  0  0  0  0  0  0
    2.0423   -1.7883    2.0219 C   0  0  0  0  0  0  0  0  0  0  0  0
    2.8057   -1.8229    3.2010 C   0  0  0  0  0  0  0  0  0  0  0  0
    3.9636   -0.9387    3.3799 C   0  0  0  0  0  0  0  0  0  0  0  0
    3.8792    0.4297    3.1233 C   0  0  0  0  0  0  0  0  0  0  0  0
    4.9929    1.2344    3.2108 C   0  0  0  0  0  0  0  0  0  0  0  0
    6.2360    0.7175    3.5712 C   0  0  0  0  0  0  0  0  0  0  0  0
    7.6026    1.8343    3.6015 S   0  0  0  0  0  0  0  0  0  0  0  0
    9.0178    0.8505    2.9892 C   0  0  0  0  0  0  0  0  0  0  0  0
    8.7604    0.2701    1.6134 C   0  0  0  0  0  0  0  0  0  0  0  0
    6.2891   -0.6326    3.9012 C   0  0  0  0  0  0  0  0  0  0  0  0
    7.4395   -1.1958    4.3328 F   0  0  0  0  0  0  0  0  0  0  0  0
    5.1872   -1.4556    3.7914 C   0  0  0  0  0  0  0  0  0  0  0  0
    2.4317   -2.7647    4.1494 C   0  0  0  0  0  0  0  0  0  0  0  0
    1.3330   -3.6380    3.9734 C   0  0  0  0  0  0  0  0  0  0  0  0
    0.5491   -3.5739    2.8103 C   0  0  0  0  0  0  0  0  0  0  0  0
   -0.5744   -4.5022    2.6258 C   0  0  0  0  0  0  0  0  0  0  0  0
   -1.5671   -4.6299    3.5960 C   0  0  0  0  0  0  0  0  0  0  0  0
   -2.5705   -5.5651    3.4565 C   0  0  0  0  0  0  0  0  0  0  0  0
   -2.6231   -6.3993    2.3435 C   0  0  0  0  0  0  0  0  0  0  0  0
   -3.9430   -7.5812    2.2372 S   0  0  0  0  0  0  0  0  0  0  0  0
   -3.0663   -9.1268    1.8103 C   0  0  0  0  0  0  0  0  0  0  0  0
   -2.0411   -9.4981    2.8625 C   0  0  0  0  0  0  0  0  0  0  0  0
   -1.6613   -6.2224    1.3547 C   0  0  0  0  0  0  0  0  0  0  0  0
   -0.6420   -5.3015    1.4897 C   0  0  0  0  0  0  0  0  0  0  0  0
   -1.6898   -6.9688    0.2314 F   0  0  0  0  0  0  0  0  0  0  0  0
    0.9299   -2.6489    1.8507 C   0  0  0  0  0  0  0  0  0  0  0  0
    0.1679   -2.3968    0.2938 S   0  0  0  0  0  0  0  0  0  0  0  0
    1.2153   -4.5544    5.0610 C   0  0  0  0  0  0  0  0  0  0  0  0
    2.1375   -4.3525    6.0241 C   0  0  0  0  0  0  0  0  0  0  0  0
    3.2276   -3.0581    5.6759 S   0  0  0  0  0  0  0  0  0  0  0  0
    3.9693   -2.4786   11.5825 H   0  0  0  0  0  0  0  0  0  0  0  0
    4.5911   -0.6964    9.7777 H   0  0  0  0  0  0  0  0  0  0  0  0
    5.3251   -0.8064    7.2641 H   0  0  0  0  0  0  0  0  0  0  0  0
    7.0708    0.8783    6.8360 H   0  0  0  0  0  0  0  0  0  0  0  0
    7.3933    5.7742    5.8491 H   0  0  0  0  0  0  0  0  0  0  0  0
    5.8056    5.6427    6.6266 H   0  0  0  0  0  0  0  0  0  0  0  0
    4.9545    4.3505    4.6598 H   0  0  0  0  0  0  0  0  0  0  0  0
    6.5650    4.3902    3.9332 H   0  0  0  0  0  0  0  0  0  0  0  0
    5.6314    5.8873    4.1134 H   0  0  0  0  0  0  0  0  0  0  0  0
    2.4106    2.3247    7.3978 H   0  0  0  0  0  0  0  0  0  0  0  0
   -0.6493   -4.0071    6.5993 H   0  0  0  0  0  0  0  0  0  0  0  0
   -2.5676   -5.4567    7.1277 H   0  0  0  0  0  0  0  0  0  0  0  0
   -4.8730   -4.7698   11.4031 H   0  0  0  0  0  0  0  0  0  0  0  0
   -6.1457   -5.6529   10.5405 H   0  0  0  0  0  0  0  0  0  0  0  0
   -4.9605   -2.9633    9.6601 H   0  0  0  0  0  0  0  0  0  0  0  0
   -6.5522   -3.1958   10.3853 H   0  0  0  0  0  0  0  0  0  0  0  0
   -6.2017   -3.8670    8.7862 H   0  0  0  0  0  0  0  0  0  0  0  0
   -0.8823   -2.3256   10.5240 H   0  0  0  0  0  0  0  0  0  0  0  0
   -1.3533   -1.8660    5.9486 H   0  0  0  0  0  0  0  0  0  0  0  0
    0.4125    1.4203    2.9457 H   0  0  0  0  0  0  0  0  0  0  0  0
    1.6658    1.2966    1.0218 H   0  0  0  0  0  0  0  0  0  0  0  0
    3.2779    3.1480    0.9551 H   0  0  0  0  0  0  0  0  0  0  0  0
    2.9876    8.0315    1.0582 H   0  0  0  0  0  0  0  0  0  0  0  0
    1.3942    7.5395    0.4551 H   0  0  0  0  0  0  0  0  0  0  0  0
    1.1157    6.0401    2.4546 H   0  0  0  0  0  0  0  0  0  0  0  0
    2.7102    6.5263    3.0393 H   0  0  0  0  0  0  0  0  0  0  0  0
    1.3963    7.7078    2.9634 H   0  0  0  0  0  0  0  0  0  0  0  0
   -1.3697    3.9073   -0.4799 H   0  0  0  0  0  0  0  0  0  0  0  0
   -2.8822   -3.2814    1.4653 H   0  0  0  0  0  0  0  0  0  0  0  0
   -4.7500   -4.8125    1.7416 H   0  0  0  0  0  0  0  0  0  0  0  0
   -6.2973   -6.2761    1.9316 H   0  0  0  0  0  0  0  0  0  0  0  0
   -8.0025   -6.4425    2.3714 H   0  0  0  0  0  0  0  0  0  0  0  0
   -6.5630   -6.1073    4.4033 H   0  0  0  0  0  0  0  0  0  0  0  0
   -6.0514   -4.5376    3.7710 H   0  0  0  0  0  0  0  0  0  0  0  0
   -7.7418   -4.8025    4.2051 H   0  0  0  0  0  0  0  0  0  0  0  0
   -5.5686   -0.2511    0.0694 H   0  0  0  0  0  0  0  0  0  0  0  0
   -4.2450   -0.8875   -1.9152 H   0  0  0  0  0  0  0  0  0  0  0  0
   -5.5790   -0.9676   -3.3650 H   0  0  0  0  0  0  0  0  0  0  0  0
   -8.5758   -1.7674   -4.9174 H   0  0  0  0  0  0  0  0  0  0  0  0
   -7.4200   -2.2917   -3.6884 H   0  0  0  0  0  0  0  0  0  0  0  0
   -7.4075   -3.0330   -5.2891 H   0  0  0  0  0  0  0  0  0  0  0  0
   -7.7024   -2.1801   -7.5347 H   0  0  0  0  0  0  0  0  0  0  0  0
   -8.7019   -0.7975   -7.1103 H   0  0  0  0  0  0  0  0  0  0  0  0
   -7.5926   -0.6884   -8.4796 H   0  0  0  0  0  0  0  0  0  0  0  0
   -5.7935    0.7122   -8.0131 H   0  0  0  0  0  0  0  0  0  0  0  0
   -3.8353    1.7855   -8.6049 H   0  0  0  0  0  0  0  0  0  0  0  0
   -1.6717    3.2135   -6.9764 H   0  0  0  0  0  0  0  0  0  0  0  0
   -3.5011    2.5753  -10.6679 H   0  0  0  0  0  0  0  0  0  0  0  0
   -3.7915    0.8517  -13.6402 H   0  0  0  0  0  0  0  0  0  0  0  0
   -4.5926    2.0712  -12.6438 H   0  0  0  0  0  0  0  0  0  0  0  0
   -3.7150    2.5481  -14.1004 H   0  0  0  0  0  0  0  0  0  0  0  0
   -1.6506    0.4735  -14.6593 H   0  0  0  0  0  0  0  0  0  0  0  0
   -0.0902    1.2884  -14.8058 H   0  0  0  0  0  0  0  0  0  0  0  0
   -1.5879    2.1688  -15.1261 H   0  0  0  0  0  0  0  0  0  0  0  0
    0.9155    1.8234  -12.7888 H   0  0  0  0  0  0  0  0  0  0  0  0
    2.7549    2.4200  -11.2803 H   0  0  0  0  0  0  0  0  0  0  0  0
    4.2506    1.7940   -9.5104 H   0  0  0  0  0  0  0  0  0  0  0  0
    4.1808    2.4884   -6.7083 H   0  0  0  0  0  0  0  0  0  0  0  0
    2.9140    3.3021   -2.4952 H   0  0  0  0  0  0  0  0  0  0  0  0
    4.6967    4.6097   -1.5136 H   0  0  0  0  0  0  0  0  0  0  0  0
    6.1279    5.8296   -0.6174 H   0  0  0  0  0  0  0  0  0  0  0  0
    7.7997    5.8306   -0.0358 H   0  0  0  0  0  0  0  0  0  0  0  0
    7.5629    3.5590    0.8678 H   0  0  0  0  0  0  0  0  0  0  0  0
    6.2335    4.5434    1.4875 H   0  0  0  0  0  0  0  0  0  0  0  0
    5.9474    3.3993    0.1722 H   0  0  0  0  0  0  0  0  0  0  0  0
    5.7334    1.3358   -5.0528 H   0  0  0  0  0  0  0  0  0  0  0  0
    0.0432   -2.7574   -4.2146 H   0  0  0  0  0  0  0  0  0  0  0  0
   -2.0007   -3.9452   -4.8347 H   0  0  0  0  0  0  0  0  0  0  0  0
   -3.5954   -3.0527   -8.9130 H   0  0  0  0  0  0  0  0  0  0  0  0
   -5.0129   -2.1185   -8.3674 H   0  0  0  0  0  0  0  0  0  0  0  0
   -6.3335   -4.2525   -8.2466 H   0  0  0  0  0  0  0  0  0  0  0  0
   -4.9318   -5.1478   -8.8305 H   0  0  0  0  0  0  0  0  0  0  0  0
   -5.7267   -3.9685   -9.8827 H   0  0  0  0  0  0  0  0  0  0  0  0
   -0.9970    0.3591   -6.9675 H   0  0  0  0  0  0  0  0  0  0  0  0
   -0.1731   -1.4367   -2.5503 H   0  0  0  0  0  0  0  0  0  0  0  0
    3.1400   -0.3735    0.7501 H   0  0  0  0  0  0  0  0  0  0  0  0
    2.9293    0.8652    2.8600 H   0  0  0  0  0  0  0  0  0  0  0  0
    4.9252    2.2873    2.9859 H   0  0  0  0  0  0  0  0  0  0  0  0
    9.8295    1.5778    2.9641 H   0  0  0  0  0  0  0  0  0  0  0  0
    9.2568    0.0807    3.7195 H   0  0  0  0  0  0  0  0  0  0  0  0
    7.9417   -0.4467    1.6394 H   0  0  0  0  0  0  0  0  0  0  0  0
    8.5079    1.0550    0.9034 H   0  0  0  0  0  0  0  0  0  0  0  0
    9.6532   -0.2428    1.2619 H   0  0  0  0  0  0  0  0  0  0  0  0
    5.3063   -2.5045    4.0131 H   0  0  0  0  0  0  0  0  0  0  0  0
   -1.5567   -3.9807    4.4567 H   0  0  0  0  0  0  0  0  0  0  0  0
   -3.3313   -5.6701    4.2145 H   0  0  0  0  0  0  0  0  0  0  0  0
   -2.6202   -9.0149    0.8244 H   0  0  0  0  0  0  0  0  0  0  0  0
   -3.8653   -9.8663    1.7578 H   0  0  0  0  0  0  0  0  0  0  0  0
   -1.2516   -8.7497    2.9163 H   0  0  0  0  0  0  0  0  0  0  0  0
   -1.5902  -10.4562    2.6119 H   0  0  0  0  0  0  0  0  0  0  0  0
   -2.5091   -9.5782    3.8417 H   0  0  0  0  0  0  0  0  0  0  0  0
    0.0976   -5.2247    0.7083 H   0  0  0  0  0  0  0  0  0  0  0  0
    0.4877   -5.3458    5.0888 H   0  0  0  0  0  0  0  0  0  0  0  0
    2.2627   -4.8955    6.9406 H   0  0  0  0  0  0  0  0  0  0  0  0
  1  2  2  0  0  0  0
  2  3  1  0  0  0  0
  3  4  2  0  0  0  0
  4  5  1  0  0  0  0
  5  6  2  0  0  0  0
  6  7  1  0  0  0  0
  7  8  2  0  0  0  0
  8  9  1  0  0  0  0
  9 10  1  0  0  0  0
 10 11  1  0  0  0  0
  8 12  1  0  0  0  0
 12 13  1  0  0  0  0
 12 14  2  0  0  0  0
  4 15  1  0  0  0  0
 15 16  2  0  0  0  0
 16 17  1  0  0  0  0
 17 18  1  0  0  0  0
 18 19  2  0  0  0  0
 19 20  1  0  0  0  0
 20 21  2  0  0  0  0
 21 22  1  0  0  0  0
 22 23  1  0  0  0  0
 23 24  1  0  0  0  0
 21 25  1  0  0  0  0
 25 26  2  0  0  0  0
 25 27  1  0  0  0  0
 17 28  2  0  0  0  0
 28 29  1  0  0  0  0
 16 30  1  0  0  0  0
 30 31  2  0  0  0  0
 31 32  1  0  0  0  0
 31 33  1  0  0  0  0
 33 34  2  0  0  0  0
 34 35  1  0  0  0  0
 35 36  2  0  0  0  0
 36 37  1  0  0  0  0
 37 38  2  0  0  0  0
 38 39  1  0  0  0  0
 39 40  2  0  0  0  0
 40 41  1  0  0  0  0
 41 42  1  0  0  0  0
 42 43  1  0  0  0  0
 40 44  1  0  0  0  0
 44 45  1  0  0  0  0
 44 46  2  0  0  0  0
 36 47  1  0  0  0  0
 47 48  2  0  0  0  0
 48 49  1  0  0  0  0
 49 50  1  0  0  0  0
 50 51  2  0  0  0  0
 51 52  1  0  0  0  0
 52 53  2  0  0  0  0
 53 54  1  0  0  0  0
 54 55  1  0  0  0  0
 55 56  1  0  0  0  0
 53 57  1  0  0  0  0
 57 58  2  0  0  0  0
 57 59  1  0  0  0  0
 49 60  2  0  0  0  0
 60 61  1  0  0  0  0
 48 62  1  0  0  0  0
 62 63  2  0  0  0  0
 63 64  1  0  0  0  0
 63 65  1  0  0  0  0
 65 66  1  0  0  0  0
 66 67  1  0  0  0  0
 67 68  2  0  0  0  0
 68 69  1  0  0  0  0
 69 70  1  0  0  0  0
 70 71  2  0  0  0  0
 71 72  1  0  0  0  0
 71 73  1  0  0  0  0
 73 74  1  0  0  0  0
 73 75  2  0  0  0  0
 67 76  1  0  0  0  0
 76 77  2  0  0  0  0
 77 78  1  0  0  0  0
 78 79  1  0  0  0  0
 79 80  1  0  0  0  0
 80 81  2  0  0  0  0
 81 82  1  0  0  0  0
 82 83  1  0  0  0  0
 83 84  2  0  0  0  0
 84 85  1  0  0  0  0
 84 86  1  0  0  0  0
 86 87  1  0  0  0  0
 86 88  2  0  0  0  0
 80 89  1  0  0  0  0
 89 90  2  0  0  0  0
 90 91  1  0  0  0  0
 91 92  2  0  0  0  0
 92 93  1  0  0  0  0
 93 94  2  0  0  0  0
 94 95  1  0  0  0  0
 95 96  2  0  0  0  0
 96 97  1  0  0  0  0
 97 98  2  0  0  0  0
 98 99  1  0  0  0  0
 99100  1  0  0  0  0
100101  1  0  0  0  0
 98102  1  0  0  0  0
102103  1  0  0  0  0
102104  2  0  0  0  0
 94105  1  0  0  0  0
105106  2  0  0  0  0
106107  1  0  0  0  0
107108  1  0  0  0  0
108109  2  0  0  0  0
109110  1  0  0  0  0
110111  2  0  0  0  0
111112  1  0  0  0  0
112113  1  0  0  0  0
113114  1  0  0  0  0
111115  1  0  0  0  0
115116  2  0  0  0  0
115117  1  0  0  0  0
107118  2  0  0  0  0
118119  1  0  0  0  0
106120  1  0  0  0  0
120121  2  0  0  0  0
121122  1  0  0  0  0
121123  1  0  0  0  0
123124  2  0  0  0  0
124125  1  0  0  0  0
125126  2  0  0  0  0
126127  1  0  0  0  0
127128  2  0  0  0  0
128129  1  0  0  0  0
129130  2  0  0  0  0
130131  1  0  0  0  0
131132  1  0  0  0  0
132133  1  0  0  0  0
130134  1  0  0  0  0
134135  1  0  0  0  0
134136  2  0  0  0  0
126137  1  0  0  0  0
137138  2  0  0  0  0
138139  1  0  0  0  0
139140  1  0  0  0  0
140141  2  0  0  0  0
141142  1  0  0  0  0
142143  2  0  0  0  0
143144  1  0  0  0  0
144145  1  0  0  0  0
145146  1  0  0  0  0
143147  1  0  0  0  0
147148  2  0  0  0  0
147149  1  0  0  0  0
139150  2  0  0  0  0
150151  1  0  0  0  0
138152  1  0  0  0  0
152153  2  0  0  0  0
153154  1  0  0  0  0
 29  1  1  0  0  0  0
 61 33  1  0  0  0  0
 69 65  2  0  0  0  0
 82 78  2  0  0  0  0
119 91  1  0  0  0  0
151123  1  0  0  0  0
 28  3  1  0  0  0  0
 60 35  1  0  0  0  0
 75 68  1  0  0  0  0
 88 81  1  0  0  0  0
118 93  1  0  0  0  0
150125  1  0  0  0  0
 14  5  1  0  0  0  0
 32 15  1  0  0  0  0
 46 37  1  0  0  0  0
 64 47  1  0  0  0  0
104 95  1  0  0  0  0
122105  1  0  0  0  0
136127  1  0  0  0  0
154137  1  0  0  0  0
 26 18  1  0  0  0  0
 58 50  1  0  0  0  0
116108  1  0  0  0  0
148140  1  0  0  0  0
  1155  1  0  0  0  0
  2156  1  0  0  0  0
  6157  1  0  0  0  0
  7158  1  0  0  0  0
 10159  1  0  0  0  0
 10160  1  0  0  0  0
 11161  1  0  0  0  0
 11162  1  0  0  0  0
 11163  1  0  0  0  0
 14164  1  0  0  0  0
 19165  1  0  0  0  0
 20166  1  0  0  0  0
 23167  1  0  0  0  0
 23168  1  0  0  0  0
 24169  1  0  0  0  0
 24170  1  0  0  0  0
 24171  1  0  0  0  0
 26172  1  0  0  0  0
 30173  1  0  0  0  0
 34174  1  0  0  0  0
 38175  1  0  0  0  0
 39176  1  0  0  0  0
 42177  1  0  0  0  0
 42178  1  0  0  0  0
 43179  1  0  0  0  0
 43180  1  0  0  0  0
 43181  1  0  0  0  0
 46182  1  0  0  0  0
 51183  1  0  0  0  0
 52184  1  0  0  0  0
 55185  1  0  0  0  0
 55186  1  0  0  0  0
 56187  1  0  0  0  0
 56188  1  0  0  0  0
 56189  1  0  0  0  0
 58190  1  0  0  0  0
 62191  1  0  0  0  0
 70192  1  0  0  0  0
 72193  1  0  0  0  0
 72194  1  0  0  0  0
 72195  1  0  0  0  0
 74196  1  0  0  0  0
 74197  1  0  0  0  0
 74198  1  0  0  0  0
 75199  1  0  0  0  0
 76200  1  0  0  0  0
 77201  1  0  0  0  0
 83202  1  0  0  0  0
 85203  1  0  0  0  0
 85204  1  0  0  0  0
 85205  1  0  0  0  0
 87206  1  0  0  0  0
 87207  1  0  0  0  0
 87208  1  0  0  0  0
 88209  1  0  0  0  0
 89210  1  0  0  0  0
 90211  1  0  0  0  0
 92212  1  0  0  0  0
 96213  1  0  0  0  0
 97214  1  0  0  0  0
100215  1  0  0  0  0
100216  1  0  0  0  0
101217  1  0  0  0  0
101218  1  0  0  0  0
101219  1  0  0  0  0
104220  1  0  0  0  0
109221  1  0  0  0  0
110222  1  0  0  0  0
113223  1  0  0  0  0
113224  1  0  0  0  0
114225  1  0  0  0  0
114226  1  0  0  0  0
114227  1  0  0  0  0
116228  1  0  0  0  0
120229  1  0  0  0  0
124230  1  0  0  0  0
128231  1  0  0  0  0
129232  1  0  0  0  0
132233  1  0  0  0  0
132234  1  0  0  0  0
133235  1  0  0  0  0
133236  1  0  0  0  0
133237  1  0  0  0  0
136238  1  0  0  0  0
141239  1  0  0  0  0
142240  1  0  0  0  0
145241  1  0  0  0  0
145242  1  0  0  0  0
146243  1  0  0  0  0
146244  1  0  0  0  0
146245  1  0  0  0  0
148246  1  0  0  0  0
152247  1  0  0  0  0
153248  1  0  0  0  0
M  END
