
  xtb     03042209573D
 energy: -311.881908641446 gnorm: 0.000298497056 xtb: 6.4.1 (unknown)
194211  0     0  0            999 V2000
    5.3378    0.9533    3.9146 C   0  0  0  0  0  0  0  0  0  0  0  0
    4.7791   -0.6378    4.1646 S   0  0  0  0  0  0  0  0  0  0  0  0
    5.6304   -0.7961    5.6665 C   0  0  0  0  0  0  0  0  0  0  0  0
    6.3307    0.3824    5.9443 C   0  0  0  0  0  0  0  0  0  0  0  0
    6.1532    1.3851    4.9374 C   0  0  0  0  0  0  0  0  0  0  0  0
    6.7987    2.6351    5.0758 C   0  0  0  0  0  0  0  0  0  0  0  0
    7.5889    2.8906    6.1579 C   0  0  0  0  0  0  0  0  0  0  0  0
    8.2765    4.2135    6.2982 C   0  0  0  0  0  0  0  0  0  0  0  0
    7.7649    1.8931    7.1667 C   0  0  0  0  0  0  0  0  0  0  0  0
    8.6310    2.1880    8.3519 C   0  0  0  0  0  0  0  0  0  0  0  0
    7.1463    0.6793    7.0549 C   0  0  0  0  0  0  0  0  0  0  0  0
    5.7067   -2.0072    6.4115 C   0  0  0  0  0  0  0  0  0  0  0  0
    5.0122   -3.1512    6.2583 C   0  0  0  0  0  0  0  0  0  0  0  0
    3.8742   -3.3947    5.4045 C   0  0  0  0  0  0  0  0  0  0  0  0
    3.6863   -4.4666    4.5912 C   0  0  0  0  0  0  0  0  0  0  0  0
    2.4390   -4.4701    3.9108 C   0  0  0  0  0  0  0  0  0  0  0  0
    1.9932   -5.3735    2.9334 C   0  0  0  0  0  0  0  0  0  0  0  0
    2.7666   -6.5732    2.5932 C   0  0  0  0  0  0  0  0  0  0  0  0
    3.2022   -7.4313    3.6028 C   0  0  0  0  0  0  0  0  0  0  0  0
    3.9221   -8.5659    3.2985 C   0  0  0  0  0  0  0  0  0  0  0  0
    4.2294   -8.8948    1.9799 C   0  0  0  0  0  0  0  0  0  0  0  0
    5.1285  -10.3953    1.7121 S   0  0  0  0  0  0  0  0  0  0  0  0
    6.2914   -9.9853    0.3583 C   0  0  0  0  0  0  0  0  0  0  0  0
    7.1713   -8.8007    0.7032 C   0  0  0  0  0  0  0  0  0  0  0  0
    3.7598   -8.0471    0.9812 C   0  0  0  0  0  0  0  0  0  0  0  0
    3.9882   -8.3257   -0.3193 F   0  0  0  0  0  0  0  0  0  0  0  0
    3.0517   -6.8981    1.2716 C   0  0  0  0  0  0  0  0  0  0  0  0
    0.7797   -5.0851    2.3294 C   0  0  0  0  0  0  0  0  0  0  0  0
   -0.0309   -3.9830    2.7008 C   0  0  0  0  0  0  0  0  0  0  0  0
    0.4045   -3.0928    3.7003 C   0  0  0  0  0  0  0  0  0  0  0  0
   -0.3951   -1.9289    4.0997 C   0  0  0  0  0  0  0  0  0  0  0  0
   -0.6251   -1.6439    5.4453 C   0  0  0  0  0  0  0  0  0  0  0  0
   -1.3720   -0.5470    5.8180 C   0  0  0  0  0  0  0  0  0  0  0  0
   -1.9278    0.3110    4.8712 C   0  0  0  0  0  0  0  0  0  0  0  0
   -2.9347    1.6458    5.4575 S   0  0  0  0  0  0  0  0  0  0  0  0
   -2.4092    3.0720    4.4352 C   0  0  0  0  0  0  0  0  0  0  0  0
   -0.9438    3.4014    4.6357 C   0  0  0  0  0  0  0  0  0  0  0  0
   -1.7063    0.0050    3.5339 C   0  0  0  0  0  0  0  0  0  0  0  0
   -0.9449   -1.0774    3.1457 C   0  0  0  0  0  0  0  0  0  0  0  0
   -2.2374    0.7681    2.5465 F   0  0  0  0  0  0  0  0  0  0  0  0
    1.6416   -3.3580    4.2716 C   0  0  0  0  0  0  0  0  0  0  0  0
    2.4607   -2.3480    5.4360 S   0  0  0  0  0  0  0  0  0  0  0  0
   -1.2465   -3.9530    1.9751 C   0  0  0  0  0  0  0  0  0  0  0  0
   -1.3578   -4.9451    1.0411 C   0  0  0  0  0  0  0  0  0  0  0  0
    0.0333   -6.0183    1.0638 S   0  0  0  0  0  0  0  0  0  0  0  0
   -2.3817   -5.1670    0.0811 C   0  0  0  0  0  0  0  0  0  0  0  0
   -2.5099   -6.7194   -0.6823 S   0  0  0  0  0  0  0  0  0  0  0  0
   -3.7610   -6.1935   -1.7486 C   0  0  0  0  0  0  0  0  0  0  0  0
   -4.1209   -4.8771   -1.4682 C   0  0  0  0  0  0  0  0  0  0  0  0
   -3.3119   -4.2724   -0.4584 C   0  0  0  0  0  0  0  0  0  0  0  0
   -3.4541   -2.8885   -0.2292 C   0  0  0  0  0  0  0  0  0  0  0  0
   -4.3674   -2.1474   -0.9255 C   0  0  0  0  0  0  0  0  0  0  0  0
   -4.4422   -0.6659   -0.7267 C   0  0  0  0  0  0  0  0  0  0  0  0
   -5.2546   -2.7806   -1.8460 C   0  0  0  0  0  0  0  0  0  0  0  0
   -6.2988   -1.9712   -2.5489 C   0  0  0  0  0  0  0  0  0  0  0  0
   -5.1318   -4.1165   -2.0949 C   0  0  0  0  0  0  0  0  0  0  0  0
   -4.1485   -6.9956   -2.8879 C   0  0  0  0  0  0  0  0  0  0  0  0
   -4.1499   -6.5229   -4.1468 C   0  0  0  0  0  0  0  0  0  0  0  0
   -3.6959   -5.1892   -4.4701 C   0  0  0  0  0  0  0  0  0  0  0  0
   -2.6671   -4.5139   -3.8941 C   0  0  0  0  0  0  0  0  0  0  0  0
   -2.6290   -3.1341   -4.2092 C   0  0  0  0  0  0  0  0  0  0  0  0
   -1.7954   -2.1521   -3.6486 C   0  0  0  0  0  0  0  0  0  0  0  0
   -0.7394   -2.4816   -2.6844 C   0  0  0  0  0  0  0  0  0  0  0  0
   -0.6124   -1.7578   -1.5013 C   0  0  0  0  0  0  0  0  0  0  0  0
    0.4090   -2.0137   -0.6086 C   0  0  0  0  0  0  0  0  0  0  0  0
    1.3453   -3.0081   -0.8605 C   0  0  0  0  0  0  0  0  0  0  0  0
    2.7242   -3.3982    0.1668 S   0  0  0  0  0  0  0  0  0  0  0  0
    2.8526   -1.9863    1.3103 C   0  0  0  0  0  0  0  0  0  0  0  0
    3.3214   -0.7185    0.6237 C   0  0  0  0  0  0  0  0  0  0  0  0
    1.1810   -3.7567   -2.0269 C   0  0  0  0  0  0  0  0  0  0  0  0
    2.0565   -4.7465   -2.2927 F   0  0  0  0  0  0  0  0  0  0  0  0
    0.1726   -3.5067   -2.9307 C   0  0  0  0  0  0  0  0  0  0  0  0
   -2.0620   -0.8430   -4.0161 C   0  0  0  0  0  0  0  0  0  0  0  0
   -3.0805   -0.4754   -4.9292 C   0  0  0  0  0  0  0  0  0  0  0  0
   -3.8877   -1.4658   -5.5174 C   0  0  0  0  0  0  0  0  0  0  0  0
   -4.8967   -1.1200   -6.5250 C   0  0  0  0  0  0  0  0  0  0  0  0
   -4.5553   -0.3211   -7.6167 C   0  0  0  0  0  0  0  0  0  0  0  0
   -5.4835   -0.0287   -8.5919 C   0  0  0  0  0  0  0  0  0  0  0  0
   -6.7920   -0.5019   -8.5133 C   0  0  0  0  0  0  0  0  0  0  0  0
   -7.9060   -0.0311   -9.8044 S   0  0  0  0  0  0  0  0  0  0  0  0
   -8.8926   -1.5435  -10.1083 C   0  0  0  0  0  0  0  0  0  0  0  0
   -8.0200   -2.7302  -10.4643 C   0  0  0  0  0  0  0  0  0  0  0  0
   -7.1279   -1.2673   -7.4015 C   0  0  0  0  0  0  0  0  0  0  0  0
   -6.2010   -1.5922   -6.4322 C   0  0  0  0  0  0  0  0  0  0  0  0
   -8.3897   -1.7202   -7.2265 F   0  0  0  0  0  0  0  0  0  0  0  0
   -3.6637   -2.7715   -5.1060 C   0  0  0  0  0  0  0  0  0  0  0  0
   -4.6064   -4.1668   -5.5673 S   0  0  0  0  0  0  0  0  0  0  0  0
   -3.1841    0.9304   -5.0697 C   0  0  0  0  0  0  0  0  0  0  0  0
   -2.2609    1.6360   -4.3473 C   0  0  0  0  0  0  0  0  0  0  0  0
   -1.1962    0.5616   -3.4511 S   0  0  0  0  0  0  0  0  0  0  0  0
   -2.1831    3.0448   -4.1950 C   0  0  0  0  0  0  0  0  0  0  0  0
   -3.5840    4.0064   -4.5648 S   0  0  0  0  0  0  0  0  0  0  0  0
   -2.8728    5.4561   -3.9263 C   0  0  0  0  0  0  0  0  0  0  0  0
   -1.5431    5.2202   -3.5695 C   0  0  0  0  0  0  0  0  0  0  0  0
   -1.1637    3.8479   -3.6752 C   0  0  0  0  0  0  0  0  0  0  0  0
    0.1230    3.4681   -3.2451 C   0  0  0  0  0  0  0  0  0  0  0  0
    0.9944    4.3907   -2.7357 C   0  0  0  0  0  0  0  0  0  0  0  0
    2.3358    3.9582   -2.2310 C   0  0  0  0  0  0  0  0  0  0  0  0
    0.6427    5.7712   -2.7092 C   0  0  0  0  0  0  0  0  0  0  0  0
    1.6222    6.7832   -2.2030 C   0  0  0  0  0  0  0  0  0  0  0  0
   -0.5897    6.1669   -3.1451 C   0  0  0  0  0  0  0  0  0  0  0  0
   -3.6934    6.6061   -3.7215 C   0  0  0  0  0  0  0  0  0  0  0  0
   -3.6265    7.4855   -2.6899 C   0  0  0  0  0  0  0  0  0  0  0  0
   -2.7950    7.4088   -1.5316 C   0  0  0  0  0  0  0  0  0  0  0  0
   -2.1463    8.8774   -0.8676 S   0  0  0  0  0  0  0  0  0  0  0  0
   -1.0886    8.0369    0.2168 C   0  0  0  0  0  0  0  0  0  0  0  0
   -1.2681    6.6571    0.0988 C   0  0  0  0  0  0  0  0  0  0  0  0
   -2.2761    6.3059   -0.8498 C   0  0  0  0  0  0  0  0  0  0  0  0
   -2.6476    4.9523   -0.9809 C   0  0  0  0  0  0  0  0  0  0  0  0
   -1.9375    3.9694   -0.3540 C   0  0  0  0  0  0  0  0  0  0  0  0
   -2.3096    2.5340   -0.5435 C   0  0  0  0  0  0  0  0  0  0  0  0
   -0.8286    4.3116    0.4753 C   0  0  0  0  0  0  0  0  0  0  0  0
    0.0112    3.2194    1.0604 C   0  0  0  0  0  0  0  0  0  0  0  0
   -0.5468    5.6235    0.7338 C   0  0  0  0  0  0  0  0  0  0  0  0
   -0.1766    8.7340    1.0671 C   0  0  0  0  0  0  0  0  0  0  0  0
   -0.0562   10.0604    1.1464 C   0  0  0  0  0  0  0  0  0  0  0  0
    5.0403    1.4921    3.0370 H   0  0  0  0  0  0  0  0  0  0  0  0
    6.6557    3.3806    4.3070 H   0  0  0  0  0  0  0  0  0  0  0  0
    8.0396    4.8587    5.4560 H   0  0  0  0  0  0  0  0  0  0  0  0
    7.9670    4.7133    7.2153 H   0  0  0  0  0  0  0  0  0  0  0  0
    9.3572    4.0828    6.3400 H   0  0  0  0  0  0  0  0  0  0  0  0
    9.6443    2.4348    8.0369 H   0  0  0  0  0  0  0  0  0  0  0  0
    8.6759    1.3298    9.0176 H   0  0  0  0  0  0  0  0  0  0  0  0
    8.2414    3.0384    8.9107 H   0  0  0  0  0  0  0  0  0  0  0  0
    7.2815   -0.0634    7.8276 H   0  0  0  0  0  0  0  0  0  0  0  0
    6.4873   -2.0054    7.1618 H   0  0  0  0  0  0  0  0  0  0  0  0
    5.3279   -4.0124    6.8347 H   0  0  0  0  0  0  0  0  0  0  0  0
    4.4444   -5.2126    4.4314 H   0  0  0  0  0  0  0  0  0  0  0  0
    2.9599   -7.2103    4.6314 H   0  0  0  0  0  0  0  0  0  0  0  0
    4.2605   -9.2266    4.0817 H   0  0  0  0  0  0  0  0  0  0  0  0
    5.7269   -9.8204   -0.5566 H   0  0  0  0  0  0  0  0  0  0  0  0
    6.8809  -10.8963    0.2541 H   0  0  0  0  0  0  0  0  0  0  0  0
    7.9064   -8.6497   -0.0848 H   0  0  0  0  0  0  0  0  0  0  0  0
    7.6940   -8.9729    1.6420 H   0  0  0  0  0  0  0  0  0  0  0  0
    6.5793   -7.8923    0.7973 H   0  0  0  0  0  0  0  0  0  0  0  0
    2.7433   -6.2623    0.4569 H   0  0  0  0  0  0  0  0  0  0  0  0
   -0.2247   -2.2977    6.2040 H   0  0  0  0  0  0  0  0  0  0  0  0
   -1.5467   -0.3358    6.8613 H   0  0  0  0  0  0  0  0  0  0  0  0
   -3.0453    3.8831    4.7889 H   0  0  0  0  0  0  0  0  0  0  0  0
   -2.6464    2.8730    3.3926 H   0  0  0  0  0  0  0  0  0  0  0  0
   -0.6857    4.2808    4.0492 H   0  0  0  0  0  0  0  0  0  0  0  0
   -0.3118    2.5732    4.3188 H   0  0  0  0  0  0  0  0  0  0  0  0
   -0.7399    3.6055    5.6846 H   0  0  0  0  0  0  0  0  0  0  0  0
   -0.7923   -1.2468    2.0911 H   0  0  0  0  0  0  0  0  0  0  0  0
   -2.0341   -3.2556    2.1871 H   0  0  0  0  0  0  0  0  0  0  0  0
   -2.8053   -2.4006    0.4787 H   0  0  0  0  0  0  0  0  0  0  0  0
   -4.2310   -0.1488   -1.6632 H   0  0  0  0  0  0  0  0  0  0  0  0
   -5.4369   -0.3653   -0.4010 H   0  0  0  0  0  0  0  0  0  0  0  0
   -3.7238   -0.3388    0.0204 H   0  0  0  0  0  0  0  0  0  0  0  0
   -6.9459   -1.4669   -1.8324 H   0  0  0  0  0  0  0  0  0  0  0  0
   -6.9148   -2.6096   -3.1771 H   0  0  0  0  0  0  0  0  0  0  0  0
   -5.8340   -1.2071   -3.1725 H   0  0  0  0  0  0  0  0  0  0  0  0
   -5.7943   -4.6090   -2.7913 H   0  0  0  0  0  0  0  0  0  0  0  0
   -4.4010   -8.0313   -2.7038 H   0  0  0  0  0  0  0  0  0  0  0  0
   -4.5244   -7.1334   -4.9563 H   0  0  0  0  0  0  0  0  0  0  0  0
   -1.9724   -4.9787   -3.2195 H   0  0  0  0  0  0  0  0  0  0  0  0
   -1.3302   -0.9870   -1.2699 H   0  0  0  0  0  0  0  0  0  0  0  0
    0.4807   -1.4215    0.2889 H   0  0  0  0  0  0  0  0  0  0  0  0
    1.8975   -1.8575    1.8168 H   0  0  0  0  0  0  0  0  0  0  0  0
    3.5850   -2.3208    2.0450 H   0  0  0  0  0  0  0  0  0  0  0  0
    3.3998    0.0816    1.3571 H   0  0  0  0  0  0  0  0  0  0  0  0
    2.6260   -0.4128   -0.1556 H   0  0  0  0  0  0  0  0  0  0  0  0
    4.2976   -0.8751    0.1711 H   0  0  0  0  0  0  0  0  0  0  0  0
    0.1295   -4.0874   -3.8387 H   0  0  0  0  0  0  0  0  0  0  0  0
   -3.5437    0.0421   -7.7149 H   0  0  0  0  0  0  0  0  0  0  0  0
   -5.2095    0.5738   -9.4440 H   0  0  0  0  0  0  0  0  0  0  0  0
   -9.5152   -1.7413   -9.2386 H   0  0  0  0  0  0  0  0  0  0  0  0
   -9.5309   -1.2592  -10.9449 H   0  0  0  0  0  0  0  0  0  0  0  0
   -7.3868   -2.4968  -11.3179 H   0  0  0  0  0  0  0  0  0  0  0  0
   -8.6475   -3.5827  -10.7165 H   0  0  0  0  0  0  0  0  0  0  0  0
   -7.3827   -3.0094   -9.6272 H   0  0  0  0  0  0  0  0  0  0  0  0
   -6.5205   -2.1903   -5.5943 H   0  0  0  0  0  0  0  0  0  0  0  0
   -3.9345    1.4127   -5.6709 H   0  0  0  0  0  0  0  0  0  0  0  0
    0.4235    2.4343   -3.3204 H   0  0  0  0  0  0  0  0  0  0  0  0
    2.4453    2.8792   -2.3076 H   0  0  0  0  0  0  0  0  0  0  0  0
    2.4598    4.2496   -1.1886 H   0  0  0  0  0  0  0  0  0  0  0  0
    3.1346    4.4280   -2.8037 H   0  0  0  0  0  0  0  0  0  0  0  0
    1.8612    6.5866   -1.1583 H   0  0  0  0  0  0  0  0  0  0  0  0
    1.2081    7.7856   -2.2751 H   0  0  0  0  0  0  0  0  0  0  0  0
    2.5507    6.7475   -2.7715 H   0  0  0  0  0  0  0  0  0  0  0  0
   -0.8460    7.2146   -3.1723 H   0  0  0  0  0  0  0  0  0  0  0  0
   -4.4787    6.7528   -4.4528 H   0  0  0  0  0  0  0  0  0  0  0  0
   -4.2432    8.3738   -2.7552 H   0  0  0  0  0  0  0  0  0  0  0  0
   -3.5053    4.7010   -1.5855 H   0  0  0  0  0  0  0  0  0  0  0  0
   -2.5306    2.0606    0.4112 H   0  0  0  0  0  0  0  0  0  0  0  0
   -1.4881    1.9892   -1.0077 H   0  0  0  0  0  0  0  0  0  0  0  0
   -3.1841    2.4486   -1.1835 H   0  0  0  0  0  0  0  0  0  0  0  0
    0.4700    2.6382    0.2604 H   0  0  0  0  0  0  0  0  0  0  0  0
   -0.5947    2.5398    1.6550 H   0  0  0  0  0  0  0  0  0  0  0  0
    0.7984    3.6282    1.6897 H   0  0  0  0  0  0  0  0  0  0  0  0
    0.2543    5.8790    1.4130 H   0  0  0  0  0  0  0  0  0  0  0  0
    0.4478    8.1018    1.6851 H   0  0  0  0  0  0  0  0  0  0  0  0
    0.6492   10.5247    1.8118 H   0  0  0  0  0  0  0  0  0  0  0  0
   -0.6659   10.7164    0.5476 H   0  0  0  0  0  0  0  0  0  0  0  0
  1  2  1  0  0  0  0
  2  3  1  0  0  0  0
  3  4  2  0  0  0  0
  4  5  1  0  0  0  0
  5  6  1  0  0  0  0
  6  7  2  0  0  0  0
  7  8  1  0  0  0  0
  7  9  1  0  0  0  0
  9 10  1  0  0  0  0
  9 11  2  0  0  0  0
  3 12  1  0  0  0  0
 12 13  2  0  0  0  0
 13 14  1  0  0  0  0
 14 15  2  0  0  0  0
 15 16  1  0  0  0  0
 16 17  2  0  0  0  0
 17 18  1  0  0  0  0
 18 19  2  0  0  0  0
 19 20  1  0  0  0  0
 20 21  2  0  0  0  0
 21 22  1  0  0  0  0
 22 23  1  0  0  0  0
 23 24  1  0  0  0  0
 21 25  1  0  0  0  0
 25 26  1  0  0  0  0
 25 27  2  0  0  0  0
 17 28  1  0  0  0  0
 28 29  2  0  0  0  0
 29 30  1  0  0  0  0
 30 31  1  0  0  0  0
 31 32  2  0  0  0  0
 32 33  1  0  0  0  0
 33 34  2  0  0  0  0
 34 35  1  0  0  0  0
 35 36  1  0  0  0  0
 36 37  1  0  0  0  0
 34 38  1  0  0  0  0
 38 39  2  0  0  0  0
 38 40  1  0  0  0  0
 30 41  2  0  0  0  0
 41 42  1  0  0  0  0
 29 43  1  0  0  0  0
 43 44  2  0  0  0  0
 44 45  1  0  0  0  0
 44 46  1  0  0  0  0
 46 47  1  0  0  0  0
 47 48  1  0  0  0  0
 48 49  2  0  0  0  0
 49 50  1  0  0  0  0
 50 51  1  0  0  0  0
 51 52  2  0  0  0  0
 52 53  1  0  0  0  0
 52 54  1  0  0  0  0
 54 55  1  0  0  0  0
 54 56  2  0  0  0  0
 48 57  1  0  0  0  0
 57 58  2  0  0  0  0
 58 59  1  0  0  0  0
 59 60  2  0  0  0  0
 60 61  1  0  0  0  0
 61 62  2  0  0  0  0
 62 63  1  0  0  0  0
 63 64  2  0  0  0  0
 64 65  1  0  0  0  0
 65 66  2  0  0  0  0
 66 67  1  0  0  0  0
 67 68  1  0  0  0  0
 68 69  1  0  0  0  0
 66 70  1  0  0  0  0
 70 71  1  0  0  0  0
 70 72  2  0  0  0  0
 62 73  1  0  0  0  0
 73 74  2  0  0  0  0
 74 75  1  0  0  0  0
 75 76  1  0  0  0  0
 76 77  2  0  0  0  0
 77 78  1  0  0  0  0
 78 79  2  0  0  0  0
 79 80  1  0  0  0  0
 80 81  1  0  0  0  0
 81 82  1  0  0  0  0
 79 83  1  0  0  0  0
 83 84  2  0  0  0  0
 83 85  1  0  0  0  0
 75 86  2  0  0  0  0
 86 87  1  0  0  0  0
 74 88  1  0  0  0  0
 88 89  2  0  0  0  0
 89 90  1  0  0  0  0
 89 91  1  0  0  0  0
 91 92  1  0  0  0  0
 92 93  1  0  0  0  0
 93 94  2  0  0  0  0
 94 95  1  0  0  0  0
 95 96  1  0  0  0  0
 96 97  2  0  0  0  0
 97 98  1  0  0  0  0
 97 99  1  0  0  0  0
 99100  1  0  0  0  0
 99101  2  0  0  0  0
 93102  1  0  0  0  0
102103  2  0  0  0  0
103104  1  0  0  0  0
104105  1  0  0  0  0
105106  1  0  0  0  0
106107  2  0  0  0  0
107108  1  0  0  0  0
108109  1  0  0  0  0
109110  2  0  0  0  0
110111  1  0  0  0  0
110112  1  0  0  0  0
112113  1  0  0  0  0
112114  2  0  0  0  0
106115  1  0  0  0  0
115116  2  0  0  0  0
  5  1  2  0  0  0  0
 42 14  1  0  0  0  0
 50 46  2  0  0  0  0
 87 59  1  0  0  0  0
 95 91  2  0  0  0  0
108104  2  0  0  0  0
 11  4  1  0  0  0  0
 41 16  1  0  0  0  0
 56 49  1  0  0  0  0
 86 61  1  0  0  0  0
101 94  1  0  0  0  0
114107  1  0  0  0  0
 27 18  1  0  0  0  0
 45 28  1  0  0  0  0
 72 63  1  0  0  0  0
 90 73  1  0  0  0  0
 39 31  1  0  0  0  0
 84 76  1  0  0  0  0
  1117  1  0  0  0  0
  6118  1  0  0  0  0
  8119  1  0  0  0  0
  8120  1  0  0  0  0
  8121  1  0  0  0  0
 10122  1  0  0  0  0
 10123  1  0  0  0  0
 10124  1  0  0  0  0
 11125  1  0  0  0  0
 12126  1  0  0  0  0
 13127  1  0  0  0  0
 15128  1  0  0  0  0
 19129  1  0  0  0  0
 20130  1  0  0  0  0
 23131  1  0  0  0  0
 23132  1  0  0  0  0
 24133  1  0  0  0  0
 24134  1  0  0  0  0
 24135  1  0  0  0  0
 27136  1  0  0  0  0
 32137  1  0  0  0  0
 33138  1  0  0  0  0
 36139  1  0  0  0  0
 36140  1  0  0  0  0
 37141  1  0  0  0  0
 37142  1  0  0  0  0
 37143  1  0  0  0  0
 39144  1  0  0  0  0
 43145  1  0  0  0  0
 51146  1  0  0  0  0
 53147  1  0  0  0  0
 53148  1  0  0  0  0
 53149  1  0  0  0  0
 55150  1  0  0  0  0
 55151  1  0  0  0  0
 55152  1  0  0  0  0
 56153  1  0  0  0  0
 57154  1  0  0  0  0
 58155  1  0  0  0  0
 60156  1  0  0  0  0
 64157  1  0  0  0  0
 65158  1  0  0  0  0
 68159  1  0  0  0  0
 68160  1  0  0  0  0
 69161  1  0  0  0  0
 69162  1  0  0  0  0
 69163  1  0  0  0  0
 72164  1  0  0  0  0
 77165  1  0  0  0  0
 78166  1  0  0  0  0
 81167  1  0  0  0  0
 81168  1  0  0  0  0
 82169  1  0  0  0  0
 82170  1  0  0  0  0
 82171  1  0  0  0  0
 84172  1  0  0  0  0
 88173  1  0  0  0  0
 96174  1  0  0  0  0
 98175  1  0  0  0  0
 98176  1  0  0  0  0
 98177  1  0  0  0  0
100178  1  0  0  0  0
100179  1  0  0  0  0
100180  1  0  0  0  0
101181  1  0  0  0  0
102182  1  0  0  0  0
103183  1  0  0  0  0
109184  1  0  0  0  0
111185  1  0  0  0  0
111186  1  0  0  0  0
111187  1  0  0  0  0
113188  1  0  0  0  0
113189  1  0  0  0  0
113190  1  0  0  0  0
114191  1  0  0  0  0
115192  1  0  0  0  0
116193  1  0  0  0  0
116194  1  0  0  0  0
M  END
