
  xtb     03042221533D
 energy: -227.751800785757 gnorm: 0.000314708814 xtb: 6.4.1 (unknown)
132143  0     0  0            999 V2000
    3.3725    4.6872   -3.0717 C   0  0  0  0  0  0  0  0  0  0  0  0
    2.4509    5.0952   -2.1427 C   0  0  0  0  0  0  0  0  0  0  0  0
    2.0228    6.3747   -2.1672 F   0  0  0  0  0  0  0  0  0  0  0  0
    1.9482    4.2583   -1.1515 C   0  0  0  0  0  0  0  0  0  0  0  0
    2.3738    2.9419   -1.0645 C   0  0  0  0  0  0  0  0  0  0  0  0
    3.2560    2.4537   -2.0729 C   0  0  0  0  0  0  0  0  0  0  0  0
    3.5549    1.1387   -2.1339 N   0  0  0  0  0  0  0  0  0  0  0  0
    4.3579    0.7292   -3.0653 C   0  0  0  0  0  0  0  0  0  0  0  0
    4.9629    1.6364   -3.9850 C   0  0  0  0  0  0  0  0  0  0  0  0
    5.8597    1.1408   -4.8346 O   0  0  0  0  0  0  0  0  0  0  0  0
    6.5000    2.0553   -5.7212 C   0  0  0  0  0  0  0  0  0  0  0  0
    5.5915    2.5049   -6.8552 C   0  0  0  0  0  0  0  0  0  0  0  0
    4.6631    2.9104   -3.9766 N   0  0  0  0  0  0  0  0  0  0  0  0
    3.7755    3.3434   -3.0513 C   0  0  0  0  0  0  0  0  0  0  0  0
    1.9151    2.0907   -0.0024 C   0  0  0  0  0  0  0  0  0  0  0  0
    0.2886    2.2448    0.5788 S   0  0  0  0  0  0  0  0  0  0  0  0
    0.4616    0.9293    1.6936 C   0  0  0  0  0  0  0  0  0  0  0  0
    1.7705    0.4267    1.6514 C   0  0  0  0  0  0  0  0  0  0  0  0
    2.5985    1.0986    0.7036 C   0  0  0  0  0  0  0  0  0  0  0  0
    3.9652    0.7582    0.6428 C   0  0  0  0  0  0  0  0  0  0  0  0
    4.4749   -0.2421    1.4234 C   0  0  0  0  0  0  0  0  0  0  0  0
    5.9286   -0.5938    1.3358 C   0  0  0  0  0  0  0  0  0  0  0  0
    3.6339   -0.9431    2.3352 C   0  0  0  0  0  0  0  0  0  0  0  0
    4.2033   -2.0402    3.1806 C   0  0  0  0  0  0  0  0  0  0  0  0
    2.3167   -0.5934    2.4512 C   0  0  0  0  0  0  0  0  0  0  0  0
   -0.6116    0.4299    2.4597 C   0  0  0  0  0  0  0  0  0  0  0  0
   -1.7637    1.0835    2.7604 C   0  0  0  0  0  0  0  0  0  0  0  0
   -2.8617    0.4673    3.4004 C   0  0  0  0  0  0  0  0  0  0  0  0
   -3.0308   -1.2642    3.3734 S   0  0  0  0  0  0  0  0  0  0  0  0
   -4.6024   -1.2157    4.0995 C   0  0  0  0  0  0  0  0  0  0  0  0
   -4.9407    0.0853    4.4503 C   0  0  0  0  0  0  0  0  0  0  0  0
   -3.9698    1.0471    4.0283 C   0  0  0  0  0  0  0  0  0  0  0  0
   -4.2116    2.4118    4.2717 C   0  0  0  0  0  0  0  0  0  0  0  0
   -5.3572    2.8176    4.9003 C   0  0  0  0  0  0  0  0  0  0  0  0
   -5.5994    4.2729    5.1558 C   0  0  0  0  0  0  0  0  0  0  0  0
   -6.3292    1.8575    5.3144 C   0  0  0  0  0  0  0  0  0  0  0  0
   -7.5783    2.3178    6.0003 C   0  0  0  0  0  0  0  0  0  0  0  0
   -6.1209    0.5273    5.0852 C   0  0  0  0  0  0  0  0  0  0  0  0
   -5.4328   -2.4057    4.1003 C   0  0  0  0  0  0  0  0  0  0  0  0
   -5.6559   -3.1005    2.9781 C   0  0  0  0  0  0  0  0  0  0  0  0
   -5.1429   -2.6113    1.6936 C   0  0  0  0  0  0  0  0  0  0  0  0
   -5.4081   -1.3244    1.2622 C   0  0  0  0  0  0  0  0  0  0  0  0
   -6.3520   -0.5969    1.8952 F   0  0  0  0  0  0  0  0  0  0  0  0
   -4.6920   -0.6925    0.2506 C   0  0  0  0  0  0  0  0  0  0  0  0
   -3.6980   -1.3712   -0.4216 C   0  0  0  0  0  0  0  0  0  0  0  0
   -3.5480   -2.7590   -0.1752 C   0  0  0  0  0  0  0  0  0  0  0  0
   -2.7616   -3.5075   -0.9798 N   0  0  0  0  0  0  0  0  0  0  0  0
   -2.5941   -4.7584   -0.6850 C   0  0  0  0  0  0  0  0  0  0  0  0
   -3.1955   -5.3396    0.4708 C   0  0  0  0  0  0  0  0  0  0  0  0
   -2.9108   -6.6106    0.7550 O   0  0  0  0  0  0  0  0  0  0  0  0
   -3.5475   -7.1533    1.9092 C   0  0  0  0  0  0  0  0  0  0  0  0
   -3.0290   -8.5641    2.1181 C   0  0  0  0  0  0  0  0  0  0  0  0
   -4.0197   -4.6606    1.2264 N   0  0  0  0  0  0  0  0  0  0  0  0
   -4.2450   -3.3663    0.9051 C   0  0  0  0  0  0  0  0  0  0  0  0
   -2.7576   -0.6528   -1.2814 C   0  0  0  0  0  0  0  0  0  0  0  0
   -3.1516    0.2966   -2.2011 C   0  0  0  0  0  0  0  0  0  0  0  0
   -4.4672    0.5188   -2.4036 F   0  0  0  0  0  0  0  0  0  0  0  0
   -2.2593    1.0298   -2.9808 C   0  0  0  0  0  0  0  0  0  0  0  0
   -0.9024    0.8314   -2.8556 C   0  0  0  0  0  0  0  0  0  0  0  0
   -0.4375   -0.1132   -1.9100 C   0  0  0  0  0  0  0  0  0  0  0  0
    0.8929   -0.2872   -1.7424 N   0  0  0  0  0  0  0  0  0  0  0  0
    1.2992   -1.1672   -0.8851 C   0  0  0  0  0  0  0  0  0  0  0  0
    0.3727   -1.9088   -0.0914 C   0  0  0  0  0  0  0  0  0  0  0  0
    0.8599   -2.7797    0.7907 O   0  0  0  0  0  0  0  0  0  0  0  0
   -0.0955   -3.4985    1.5653 C   0  0  0  0  0  0  0  0  0  0  0  0
    0.6447   -4.2897    2.6274 C   0  0  0  0  0  0  0  0  0  0  0  0
   -0.9175   -1.7306   -0.2008 N   0  0  0  0  0  0  0  0  0  0  0  0
   -1.3614   -0.8521   -1.1260 C   0  0  0  0  0  0  0  0  0  0  0  0
    0.0379    1.5557   -3.7171 C   0  0  0  0  0  0  0  0  0  0  0  0
   -0.0163    2.9237   -3.8741 C   0  0  0  0  0  0  0  0  0  0  0  0
   -0.9100    3.6361   -3.1578 F   0  0  0  0  0  0  0  0  0  0  0  0
    0.8199    3.6343   -4.7404 C   0  0  0  0  0  0  0  0  0  0  0  0
    1.7560    2.9619   -5.4770 C   0  0  0  0  0  0  0  0  0  0  0  0
    1.8773    1.5684   -5.3438 C   0  0  0  0  0  0  0  0  0  0  0  0
    2.8203    0.9089   -6.0619 N   0  0  0  0  0  0  0  0  0  0  0  0
    2.9116   -0.3751   -5.9157 C   0  0  0  0  0  0  0  0  0  0  0  0
    2.0229   -1.0939   -5.0601 C   0  0  0  0  0  0  0  0  0  0  0  0
    2.1548   -2.4161   -4.9900 O   0  0  0  0  0  0  0  0  0  0  0  0
    1.2466   -3.0933   -4.1230 C   0  0  0  0  0  0  0  0  0  0  0  0
    1.5577   -4.5776   -4.1748 C   0  0  0  0  0  0  0  0  0  0  0  0
    1.0892   -0.4863   -4.3755 N   0  0  0  0  0  0  0  0  0  0  0  0
    1.0155    0.8574   -4.4679 C   0  0  0  0  0  0  0  0  0  0  0  0
    3.7725    5.3613   -3.8102 H   0  0  0  0  0  0  0  0  0  0  0  0
    1.2457    4.6547   -0.4346 H   0  0  0  0  0  0  0  0  0  0  0  0
    4.5721   -0.3286   -3.1203 H   0  0  0  0  0  0  0  0  0  0  0  0
    6.8446    2.9229   -5.1484 H   0  0  0  0  0  0  0  0  0  0  0  0
    7.3595    1.4998   -6.1046 H   0  0  0  0  0  0  0  0  0  0  0  0
    6.1674    3.0820   -7.5733 H   0  0  0  0  0  0  0  0  0  0  0  0
    5.1520    1.6433   -7.3493 H   0  0  0  0  0  0  0  0  0  0  0  0
    4.7905    3.1193   -6.4576 H   0  0  0  0  0  0  0  0  0  0  0  0
    4.6134    1.3040   -0.0231 H   0  0  0  0  0  0  0  0  0  0  0  0
    6.4226    0.0142    0.5822 H   0  0  0  0  0  0  0  0  0  0  0  0
    6.4243   -0.4293    2.2923 H   0  0  0  0  0  0  0  0  0  0  0  0
    6.0557   -1.6431    1.0725 H   0  0  0  0  0  0  0  0  0  0  0  0
    3.4500   -2.4332    3.8585 H   0  0  0  0  0  0  0  0  0  0  0  0
    4.5626   -2.8563    2.5544 H   0  0  0  0  0  0  0  0  0  0  0  0
    5.0442   -1.6788    3.7712 H   0  0  0  0  0  0  0  0  0  0  0  0
    1.6861   -1.0893    3.1737 H   0  0  0  0  0  0  0  0  0  0  0  0
   -0.4840   -0.5745    2.8444 H   0  0  0  0  0  0  0  0  0  0  0  0
   -1.8695    2.1262    2.4921 H   0  0  0  0  0  0  0  0  0  0  0  0
   -3.4767    3.1389    3.9587 H   0  0  0  0  0  0  0  0  0  0  0  0
   -4.7718    4.8705    4.7824 H   0  0  0  0  0  0  0  0  0  0  0  0
   -5.7107    4.4638    6.2227 H   0  0  0  0  0  0  0  0  0  0  0  0
   -6.5137    4.6021    4.6633 H   0  0  0  0  0  0  0  0  0  0  0  0
   -7.3389    2.8568    6.9166 H   0  0  0  0  0  0  0  0  0  0  0  0
   -8.1436    2.9908    5.3569 H   0  0  0  0  0  0  0  0  0  0  0  0
   -8.2103    1.4702    6.2523 H   0  0  0  0  0  0  0  0  0  0  0  0
   -6.8550   -0.2047    5.3871 H   0  0  0  0  0  0  0  0  0  0  0  0
   -5.8784   -2.7090    5.0388 H   0  0  0  0  0  0  0  0  0  0  0  0
   -6.2011   -4.0317    2.9848 H   0  0  0  0  0  0  0  0  0  0  0  0
   -4.8870    0.3511    0.0609 H   0  0  0  0  0  0  0  0  0  0  0  0
   -1.9952   -5.3632   -1.3515 H   0  0  0  0  0  0  0  0  0  0  0  0
   -3.3280   -6.5122    2.7706 H   0  0  0  0  0  0  0  0  0  0  0  0
   -4.6320   -7.1466    1.7518 H   0  0  0  0  0  0  0  0  0  0  0  0
   -3.2483   -9.1758    1.2473 H   0  0  0  0  0  0  0  0  0  0  0  0
   -3.5048   -9.0032    2.9900 H   0  0  0  0  0  0  0  0  0  0  0  0
   -1.9530   -8.5496    2.2690 H   0  0  0  0  0  0  0  0  0  0  0  0
   -2.6573    1.7367   -3.6922 H   0  0  0  0  0  0  0  0  0  0  0  0
    2.3643   -1.2982   -0.7638 H   0  0  0  0  0  0  0  0  0  0  0  0
   -0.6577   -4.1646    0.9003 H   0  0  0  0  0  0  0  0  0  0  0  0
   -0.8082   -2.7943    2.0097 H   0  0  0  0  0  0  0  0  0  0  0  0
    1.1955   -3.6188    3.2803 H   0  0  0  0  0  0  0  0  0  0  0  0
    1.3491   -4.9732    2.1615 H   0  0  0  0  0  0  0  0  0  0  0  0
   -0.0669   -4.8575    3.2198 H   0  0  0  0  0  0  0  0  0  0  0  0
    0.7045    4.7045   -4.8079 H   0  0  0  0  0  0  0  0  0  0  0  0
    2.4139    3.4748   -6.1593 H   0  0  0  0  0  0  0  0  0  0  0  0
    3.6737   -0.8979   -6.4758 H   0  0  0  0  0  0  0  0  0  0  0  0
    0.2206   -2.8874   -4.4485 H   0  0  0  0  0  0  0  0  0  0  0  0
    1.3624   -2.6944   -3.1090 H   0  0  0  0  0  0  0  0  0  0  0  0
    1.4413   -4.9509   -5.1887 H   0  0  0  0  0  0  0  0  0  0  0  0
    2.5802   -4.7579   -3.8540 H   0  0  0  0  0  0  0  0  0  0  0  0
    0.8786   -5.1131   -3.5180 H   0  0  0  0  0  0  0  0  0  0  0  0
  1  2  2  0  0  0  0
  2  3  1  0  0  0  0
  2  4  1  0  0  0  0
  4  5  2  0  0  0  0
  5  6  1  0  0  0  0
  6  7  2  0  0  0  0
  7  8  1  0  0  0  0
  8  9  2  0  0  0  0
  9 10  1  0  0  0  0
 10 11  1  0  0  0  0
 11 12  1  0  0  0  0
  9 13  1  0  0  0  0
 13 14  2  0  0  0  0
  5 15  1  0  0  0  0
 15 16  1  0  0  0  0
 16 17  1  0  0  0  0
 17 18  2  0  0  0  0
 18 19  1  0  0  0  0
 19 20  1  0  0  0  0
 20 21  2  0  0  0  0
 21 22  1  0  0  0  0
 21 23  1  0  0  0  0
 23 24  1  0  0  0  0
 23 25  2  0  0  0  0
 17 26  1  0  0  0  0
 26 27  2  0  0  0  0
 27 28  1  0  0  0  0
 28 29  1  0  0  0  0
 29 30  1  0  0  0  0
 30 31  2  0  0  0  0
 31 32  1  0  0  0  0
 32 33  1  0  0  0  0
 33 34  2  0  0  0  0
 34 35  1  0  0  0  0
 34 36  1  0  0  0  0
 36 37  1  0  0  0  0
 36 38  2  0  0  0  0
 30 39  1  0  0  0  0
 39 40  2  0  0  0  0
 40 41  1  0  0  0  0
 41 42  2  0  0  0  0
 42 43  1  0  0  0  0
 42 44  1  0  0  0  0
 44 45  2  0  0  0  0
 45 46  1  0  0  0  0
 46 47  2  0  0  0  0
 47 48  1  0  0  0  0
 48 49  2  0  0  0  0
 49 50  1  0  0  0  0
 50 51  1  0  0  0  0
 51 52  1  0  0  0  0
 49 53  1  0  0  0  0
 53 54  2  0  0  0  0
 45 55  1  0  0  0  0
 55 56  2  0  0  0  0
 56 57  1  0  0  0  0
 56 58  1  0  0  0  0
 58 59  2  0  0  0  0
 59 60  1  0  0  0  0
 60 61  2  0  0  0  0
 61 62  1  0  0  0  0
 62 63  2  0  0  0  0
 63 64  1  0  0  0  0
 64 65  1  0  0  0  0
 65 66  1  0  0  0  0
 63 67  1  0  0  0  0
 67 68  2  0  0  0  0
 59 69  1  0  0  0  0
 69 70  2  0  0  0  0
 70 71  1  0  0  0  0
 70 72  1  0  0  0  0
 72 73  2  0  0  0  0
 73 74  1  0  0  0  0
 74 75  2  0  0  0  0
 75 76  1  0  0  0  0
 76 77  2  0  0  0  0
 77 78  1  0  0  0  0
 78 79  1  0  0  0  0
 79 80  1  0  0  0  0
 77 81  1  0  0  0  0
 81 82  2  0  0  0  0
 14  1  1  0  0  0  0
 19 15  2  0  0  0  0
 32 28  2  0  0  0  0
 54 41  1  0  0  0  0
 68 55  1  0  0  0  0
 82 69  1  0  0  0  0
 14  6  1  0  0  0  0
 25 18  1  0  0  0  0
 38 31  1  0  0  0  0
 54 46  1  0  0  0  0
 68 60  1  0  0  0  0
 82 74  1  0  0  0  0
  1 83  1  0  0  0  0
  4 84  1  0  0  0  0
  8 85  1  0  0  0  0
 11 86  1  0  0  0  0
 11 87  1  0  0  0  0
 12 88  1  0  0  0  0
 12 89  1  0  0  0  0
 12 90  1  0  0  0  0
 20 91  1  0  0  0  0
 22 92  1  0  0  0  0
 22 93  1  0  0  0  0
 22 94  1  0  0  0  0
 24 95  1  0  0  0  0
 24 96  1  0  0  0  0
 24 97  1  0  0  0  0
 25 98  1  0  0  0  0
 26 99  1  0  0  0  0
 27100  1  0  0  0  0
 33101  1  0  0  0  0
 35102  1  0  0  0  0
 35103  1  0  0  0  0
 35104  1  0  0  0  0
 37105  1  0  0  0  0
 37106  1  0  0  0  0
 37107  1  0  0  0  0
 38108  1  0  0  0  0
 39109  1  0  0  0  0
 40110  1  0  0  0  0
 44111  1  0  0  0  0
 48112  1  0  0  0  0
 51113  1  0  0  0  0
 51114  1  0  0  0  0
 52115  1  0  0  0  0
 52116  1  0  0  0  0
 52117  1  0  0  0  0
 58118  1  0  0  0  0
 62119  1  0  0  0  0
 65120  1  0  0  0  0
 65121  1  0  0  0  0
 66122  1  0  0  0  0
 66123  1  0  0  0  0
 66124  1  0  0  0  0
 72125  1  0  0  0  0
 73126  1  0  0  0  0
 76127  1  0  0  0  0
 79128  1  0  0  0  0
 79129  1  0  0  0  0
 80130  1  0  0  0  0
 80131  1  0  0  0  0
 80132  1  0  0  0  0
M  END
