
  xtb     03042210553D
 energy: -398.759757447118 gnorm: 0.000303317542 xtb: 6.4.1 (unknown)
288303  0     0  0            999 V2000
    5.2961   -6.0138   11.2480 C   0  0  0  0  0  0  0  0  0  0  0  0
    3.7346   -6.2915   10.5484 S   0  0  0  0  0  0  0  0  0  0  0  0
    6.0189   -5.0781   10.6000 C   0  0  0  0  0  0  0  0  0  0  0  0
    5.3308   -4.5274    9.4792 C   0  0  0  0  0  0  0  0  0  0  0  0
    5.7871   -3.5190    8.6070 C   0  0  0  0  0  0  0  0  0  0  0  0
    7.0080   -3.0196    8.9275 O   0  0  0  0  0  0  0  0  0  0  0  0
    7.7449   -2.1874    8.0400 C   0  0  0  0  0  0  0  0  0  0  0  0
    8.2737   -3.0032    6.8542 C   0  0  0  0  0  0  0  0  0  0  0  0
    8.8637   -2.1240    5.7561 C   0  0  0  0  0  0  0  0  0  0  0  0
    9.2591   -2.9461    4.5358 C   0  0  0  0  0  0  0  0  0  0  0  0
    8.8662   -1.5600    8.8833 C   0  0  0  0  0  0  0  0  0  0  0  0
    8.9752   -0.0471    8.7070 C   0  0  0  0  0  0  0  0  0  0  0  0
   10.1151    0.5286    9.5383 C   0  0  0  0  0  0  0  0  0  0  0  0
    4.0554   -5.0987    9.3226 C   0  0  0  0  0  0  0  0  0  0  0  0
    3.1840   -4.7429    8.3024 C   0  0  0  0  0  0  0  0  0  0  0  0
    1.9914   -5.3944    8.2236 O   0  0  0  0  0  0  0  0  0  0  0  0
    0.7902   -4.6417    8.0263 C   0  0  0  0  0  0  0  0  0  0  0  0
    0.0546   -5.1896    6.7945 C   0  0  0  0  0  0  0  0  0  0  0  0
   -0.8731   -4.1627    6.1487 C   0  0  0  0  0  0  0  0  0  0  0  0
   -1.5508   -4.7243    4.9053 C   0  0  0  0  0  0  0  0  0  0  0  0
   -0.0612   -4.7606    9.2942 C   0  0  0  0  0  0  0  0  0  0  0  0
    0.5480   -4.0150   10.4790 C   0  0  0  0  0  0  0  0  0  0  0  0
   -0.3204   -4.1367   11.7243 C   0  0  0  0  0  0  0  0  0  0  0  0
    3.6509   -3.7774    7.3981 C   0  0  0  0  0  0  0  0  0  0  0  0
    2.9977   -3.3131    6.2256 C   0  0  0  0  0  0  0  0  0  0  0  0
    4.9226   -3.1578    7.5816 C   0  0  0  0  0  0  0  0  0  0  0  0
    5.1935   -1.9588    6.3226 S   0  0  0  0  0  0  0  0  0  0  0  0
    3.6821   -2.3590    5.5415 C   0  0  0  0  0  0  0  0  0  0  0  0
    3.2897   -1.7049    4.3399 C   0  0  0  0  0  0  0  0  0  0  0  0
    1.7101   -2.0339    3.6461 S   0  0  0  0  0  0  0  0  0  0  0  0
    3.9965   -0.8030    3.6034 C   0  0  0  0  0  0  0  0  0  0  0  0
    3.2981   -0.3368    2.4633 C   0  0  0  0  0  0  0  0  0  0  0  0
    3.7673    0.5808    1.5010 C   0  0  0  0  0  0  0  0  0  0  0  0
    5.0141    1.0478    1.7476 O   0  0  0  0  0  0  0  0  0  0  0  0
    5.8106    1.6672    0.7457 C   0  0  0  0  0  0  0  0  0  0  0  0
    6.1775    0.6674   -0.3560 C   0  0  0  0  0  0  0  0  0  0  0  0
    6.7925    1.3409   -1.5789 C   0  0  0  0  0  0  0  0  0  0  0  0
    7.0756    0.3317   -2.6847 C   0  0  0  0  0  0  0  0  0  0  0  0
    7.0120    2.2529    1.4995 C   0  0  0  0  0  0  0  0  0  0  0  0
    7.8677    1.2062    2.2286 C   0  0  0  0  0  0  0  0  0  0  0  0
    9.1728    0.8875    1.5075 C   0  0  0  0  0  0  0  0  0  0  0  0
    2.0139   -0.9083    2.3536 C   0  0  0  0  0  0  0  0  0  0  0  0
    1.1383   -0.5952    1.3281 C   0  0  0  0  0  0  0  0  0  0  0  0
   -0.1306   -1.1153    1.3178 O   0  0  0  0  0  0  0  0  0  0  0  0
   -0.4139   -2.1538    0.3773 C   0  0  0  0  0  0  0  0  0  0  0  0
   -1.9406   -2.2262    0.2775 C   0  0  0  0  0  0  0  0  0  0  0  0
   -2.6122   -2.6007    1.5965 C   0  0  0  0  0  0  0  0  0  0  0  0
   -4.1289   -2.4942    1.4980 C   0  0  0  0  0  0  0  0  0  0  0  0
    0.2052   -3.4932    0.8060 C   0  0  0  0  0  0  0  0  0  0  0  0
    1.6341   -3.6979    0.3055 C   0  0  0  0  0  0  0  0  0  0  0  0
    2.2438   -4.9687    0.8837 C   0  0  0  0  0  0  0  0  0  0  0  0
    1.5855    0.3391    0.3795 C   0  0  0  0  0  0  0  0  0  0  0  0
    0.8650    0.8363   -0.7332 C   0  0  0  0  0  0  0  0  0  0  0  0
    2.8886    0.9037    0.4769 C   0  0  0  0  0  0  0  0  0  0  0  0
    3.1456    2.0431   -0.8309 S   0  0  0  0  0  0  0  0  0  0  0  0
    1.5456    1.7527   -1.4895 C   0  0  0  0  0  0  0  0  0  0  0  0
    1.1376    2.3502   -2.7092 C   0  0  0  0  0  0  0  0  0  0  0  0
   -0.1101    1.5975   -3.6499 S   0  0  0  0  0  0  0  0  0  0  0  0
    0.1429    2.6452   -5.0107 C   0  0  0  0  0  0  0  0  0  0  0  0
    1.0845    3.6404   -4.6863 C   0  0  0  0  0  0  0  0  0  0  0  0
    1.6645    3.4561   -3.3945 C   0  0  0  0  0  0  0  0  0  0  0  0
    2.6303    4.3726   -2.9414 C   0  0  0  0  0  0  0  0  0  0  0  0
    3.0085    5.4386   -3.7132 C   0  0  0  0  0  0  0  0  0  0  0  0
    4.0333    6.4054   -3.2064 C   0  0  0  0  0  0  0  0  0  0  0  0
    2.4060    5.6435   -4.9833 C   0  0  0  0  0  0  0  0  0  0  0  0
    2.7872    6.8361   -5.8051 C   0  0  0  0  0  0  0  0  0  0  0  0
    1.4644    4.7607   -5.4448 C   0  0  0  0  0  0  0  0  0  0  0  0
   -0.4729    2.2647   -6.2181 C   0  0  0  0  0  0  0  0  0  0  0  0
   -0.1341    2.6440   -7.4851 C   0  0  0  0  0  0  0  0  0  0  0  0
   -0.6265    2.0016   -8.6374 C   0  0  0  0  0  0  0  0  0  0  0  0
   -1.8012    0.7367   -8.5212 S   0  0  0  0  0  0  0  0  0  0  0  0
   -1.5621    0.2118  -10.1537 C   0  0  0  0  0  0  0  0  0  0  0  0
   -0.6839    1.0880  -10.8142 C   0  0  0  0  0  0  0  0  0  0  0  0
   -0.1512    2.0979   -9.9594 C   0  0  0  0  0  0  0  0  0  0  0  0
    0.7671    3.0244  -10.4786 C   0  0  0  0  0  0  0  0  0  0  0  0
    1.1458    2.9770  -11.7949 C   0  0  0  0  0  0  0  0  0  0  0  0
    2.1151    3.9815  -12.3376 C   0  0  0  0  0  0  0  0  0  0  0  0
    0.6156    1.9717  -12.6494 C   0  0  0  0  0  0  0  0  0  0  0  0
    1.0298    1.9261  -14.0881 C   0  0  0  0  0  0  0  0  0  0  0  0
   -0.2711    1.0501  -12.1586 C   0  0  0  0  0  0  0  0  0  0  0  0
   -2.1690   -0.9582  -10.6892 C   0  0  0  0  0  0  0  0  0  0  0  0
   -2.8179   -1.9354  -10.0202 C   0  0  0  0  0  0  0  0  0  0  0  0
   -2.9902   -1.9740   -8.5809 C   0  0  0  0  0  0  0  0  0  0  0  0
   -1.5985   -2.0529   -7.4991 S   0  0  0  0  0  0  0  0  0  0  0  0
   -4.1554   -1.8835   -7.8937 C   0  0  0  0  0  0  0  0  0  0  0  0
   -3.9811   -1.7108   -6.4925 C   0  0  0  0  0  0  0  0  0  0  0  0
   -4.9851   -1.4721   -5.5361 C   0  0  0  0  0  0  0  0  0  0  0  0
   -6.2565   -1.5875   -5.9933 O   0  0  0  0  0  0  0  0  0  0  0  0
   -7.3305   -1.8647   -5.1013 C   0  0  0  0  0  0  0  0  0  0  0  0
   -7.1397   -3.2326   -4.4372 C   0  0  0  0  0  0  0  0  0  0  0  0
   -8.1466   -3.4943   -3.3219 C   0  0  0  0  0  0  0  0  0  0  0  0
   -7.8947   -4.8394   -2.6515 C   0  0  0  0  0  0  0  0  0  0  0  0
   -8.6299   -1.7089   -5.9040 C   0  0  0  0  0  0  0  0  0  0  0  0
   -8.9964   -2.8523   -6.8512 C   0  0  0  0  0  0  0  0  0  0  0  0
   -7.9906   -3.0504   -7.9775 C   0  0  0  0  0  0  0  0  0  0  0  0
   -2.6177   -1.6950   -6.1332 C   0  0  0  0  0  0  0  0  0  0  0  0
   -2.1816   -1.3382   -4.8694 C   0  0  0  0  0  0  0  0  0  0  0  0
   -0.8440   -1.2254   -4.5987 O   0  0  0  0  0  0  0  0  0  0  0  0
   -0.2757   -2.2321   -3.7598 C   0  0  0  0  0  0  0  0  0  0  0  0
   -0.2435   -3.5757   -4.4985 C   0  0  0  0  0  0  0  0  0  0  0  0
    0.3225   -4.7188   -3.6611 C   0  0  0  0  0  0  0  0  0  0  0  0
    0.1442   -6.0590   -4.3642 C   0  0  0  0  0  0  0  0  0  0  0  0
    1.0982   -1.7115   -3.3309 C   0  0  0  0  0  0  0  0  0  0  0  0
    2.0286   -1.3934   -4.4980 C   0  0  0  0  0  0  0  0  0  0  0  0
    3.2982   -0.7059   -4.0110 C   0  0  0  0  0  0  0  0  0  0  0  0
   -3.1717   -0.9653   -3.9475 C   0  0  0  0  0  0  0  0  0  0  0  0
   -2.9612   -0.3797   -2.6712 C   0  0  0  0  0  0  0  0  0  0  0  0
   -4.5495   -1.0730   -4.2763 C   0  0  0  0  0  0  0  0  0  0  0  0
   -5.5281   -0.4991   -2.9388 S   0  0  0  0  0  0  0  0  0  0  0  0
   -4.1067   -0.0539   -2.0157 C   0  0  0  0  0  0  0  0  0  0  0  0
   -4.2864    0.6206   -0.7710 C   0  0  0  0  0  0  0  0  0  0  0  0
   -2.9419    1.3928    0.0517 S   0  0  0  0  0  0  0  0  0  0  0  0
   -5.4590    0.7902   -0.1008 C   0  0  0  0  0  0  0  0  0  0  0  0
   -5.3397    1.5493    1.0916 C   0  0  0  0  0  0  0  0  0  0  0  0
   -6.3668    1.9184    1.9752 C   0  0  0  0  0  0  0  0  0  0  0  0
   -7.6687    1.5301    1.7953 O   0  0  0  0  0  0  0  0  0  0  0  0
   -8.5783    2.3938    1.0903 C   0  0  0  0  0  0  0  0  0  0  0  0
   -8.7243    1.9508   -0.3701 C   0  0  0  0  0  0  0  0  0  0  0  0
   -9.2327    0.5158   -0.4868 C   0  0  0  0  0  0  0  0  0  0  0  0
   -9.3424    0.0773   -1.9415 C   0  0  0  0  0  0  0  0  0  0  0  0
   -8.2119    3.8753    1.2040 C   0  0  0  0  0  0  0  0  0  0  0  0
   -9.3143    4.8138    0.7174 C   0  0  0  0  0  0  0  0  0  0  0  0
   -9.0006    6.2594    1.0853 C   0  0  0  0  0  0  0  0  0  0  0  0
   -3.9973    1.9451    1.3315 C   0  0  0  0  0  0  0  0  0  0  0  0
   -3.6273    2.6961    2.4399 C   0  0  0  0  0  0  0  0  0  0  0  0
   -2.3870    3.2067    2.6679 O   0  0  0  0  0  0  0  0  0  0  0  0
   -1.2917    2.2947    2.8006 C   0  0  0  0  0  0  0  0  0  0  0  0
   -0.0224    3.1005    2.5314 C   0  0  0  0  0  0  0  0  0  0  0  0
   -0.0500    3.7609    1.1548 C   0  0  0  0  0  0  0  0  0  0  0  0
    1.2011    4.5912    0.9026 C   0  0  0  0  0  0  0  0  0  0  0  0
   -1.3362    1.6908    4.2099 C   0  0  0  0  0  0  0  0  0  0  0  0
   -0.3437    0.5545    4.4205 C   0  0  0  0  0  0  0  0  0  0  0  0
   -0.4769   -0.0495    5.8129 C   0  0  0  0  0  0  0  0  0  0  0  0
   -4.6465    3.0129    3.3506 C   0  0  0  0  0  0  0  0  0  0  0  0
   -4.5151    3.7217    4.5815 C   0  0  0  0  0  0  0  0  0  0  0  0
   -5.9792    2.6168    3.1109 C   0  0  0  0  0  0  0  0  0  0  0  0
   -7.0210    3.1033    4.4239 S   0  0  0  0  0  0  0  0  0  0  0  0
   -5.6817    3.8358    5.2452 C   0  0  0  0  0  0  0  0  0  0  0  0
    5.5754   -6.5807   12.1143 H   0  0  0  0  0  0  0  0  0  0  0  0
    7.0083   -4.7681   10.8810 H   0  0  0  0  0  0  0  0  0  0  0  0
    7.0950   -1.3851    7.6675 H   0  0  0  0  0  0  0  0  0  0  0  0
    7.4505   -3.5872    6.4363 H   0  0  0  0  0  0  0  0  0  0  0  0
    9.0232   -3.7098    7.2181 H   0  0  0  0  0  0  0  0  0  0  0  0
    8.1221   -1.3772    5.4637 H   0  0  0  0  0  0  0  0  0  0  0  0
    9.7406   -1.5979    6.1366 H   0  0  0  0  0  0  0  0  0  0  0  0
    9.9966   -3.6995    4.8038 H   0  0  0  0  0  0  0  0  0  0  0  0
    9.6856   -2.3064    3.7665 H   0  0  0  0  0  0  0  0  0  0  0  0
    8.3900   -3.4502    4.1195 H   0  0  0  0  0  0  0  0  0  0  0  0
    8.6536   -1.7836    9.9305 H   0  0  0  0  0  0  0  0  0  0  0  0
    9.8206   -2.0268    8.6351 H   0  0  0  0  0  0  0  0  0  0  0  0
    9.1389    0.1883    7.6537 H   0  0  0  0  0  0  0  0  0  0  0  0
    8.0350    0.4192    9.0085 H   0  0  0  0  0  0  0  0  0  0  0  0
   11.0652    0.0916    9.2385 H   0  0  0  0  0  0  0  0  0  0  0  0
    9.9609    0.3187   10.5943 H   0  0  0  0  0  0  0  0  0  0  0  0
   10.1772    1.6063    9.4077 H   0  0  0  0  0  0  0  0  0  0  0  0
    1.0426   -3.5855    7.8702 H   0  0  0  0  0  0  0  0  0  0  0  0
   -0.5144   -6.0741    7.0862 H   0  0  0  0  0  0  0  0  0  0  0  0
    0.7985   -5.5159    6.0637 H   0  0  0  0  0  0  0  0  0  0  0  0
   -1.6336   -3.8516    6.8675 H   0  0  0  0  0  0  0  0  0  0  0  0
   -0.3021   -3.2743    5.8687 H   0  0  0  0  0  0  0  0  0  0  0  0
   -2.2030   -3.9776    4.4596 H   0  0  0  0  0  0  0  0  0  0  0  0
   -0.8070   -5.0145    4.1664 H   0  0  0  0  0  0  0  0  0  0  0  0
   -2.1459   -5.5998    5.1550 H   0  0  0  0  0  0  0  0  0  0  0  0
   -0.1563   -5.8192    9.5419 H   0  0  0  0  0  0  0  0  0  0  0  0
   -1.0558   -4.3632    9.0844 H   0  0  0  0  0  0  0  0  0  0  0  0
    1.5372   -4.4240   10.6902 H   0  0  0  0  0  0  0  0  0  0  0  0
    0.6689   -2.9597   10.2194 H   0  0  0  0  0  0  0  0  0  0  0  0
   -0.4322   -5.1805   12.0079 H   0  0  0  0  0  0  0  0  0  0  0  0
   -1.3099   -3.7217   11.5434 H   0  0  0  0  0  0  0  0  0  0  0  0
    0.1300   -3.6015   12.5568 H   0  0  0  0  0  0  0  0  0  0  0  0
    2.0639   -3.6993    5.8644 H   0  0  0  0  0  0  0  0  0  0  0  0
    4.9848   -0.4703    3.8636 H   0  0  0  0  0  0  0  0  0  0  0  0
    5.2575    2.5040    0.2951 H   0  0  0  0  0  0  0  0  0  0  0  0
    6.8575   -0.0831    0.0478 H   0  0  0  0  0  0  0  0  0  0  0  0
    5.2674    0.1471   -0.6650 H   0  0  0  0  0  0  0  0  0  0  0  0
    7.7219    1.8399   -1.2994 H   0  0  0  0  0  0  0  0  0  0  0  0
    6.1020    2.1011   -1.9509 H   0  0  0  0  0  0  0  0  0  0  0  0
    6.1544   -0.1489   -3.0049 H   0  0  0  0  0  0  0  0  0  0  0  0
    7.5213    0.8245   -3.5454 H   0  0  0  0  0  0  0  0  0  0  0  0
    7.7621   -0.4372   -2.3361 H   0  0  0  0  0  0  0  0  0  0  0  0
    7.6236    2.8182    0.7969 H   0  0  0  0  0  0  0  0  0  0  0  0
    6.6075    2.9578    2.2279 H   0  0  0  0  0  0  0  0  0  0  0  0
    7.2829    0.2951    2.3595 H   0  0  0  0  0  0  0  0  0  0  0  0
    8.1106    1.5771    3.2260 H   0  0  0  0  0  0  0  0  0  0  0  0
    9.7394    0.1453    2.0662 H   0  0  0  0  0  0  0  0  0  0  0  0
    9.7842    1.7834    1.4177 H   0  0  0  0  0  0  0  0  0  0  0  0
    8.9926    0.4979    0.5093 H   0  0  0  0  0  0  0  0  0  0  0  0
   -0.0049   -1.8724   -0.6049 H   0  0  0  0  0  0  0  0  0  0  0  0
   -2.3032   -1.2447   -0.0281 H   0  0  0  0  0  0  0  0  0  0  0  0
   -2.2100   -2.9437   -0.5010 H   0  0  0  0  0  0  0  0  0  0  0  0
   -2.2461   -1.9291    2.3740 H   0  0  0  0  0  0  0  0  0  0  0  0
   -2.3393   -3.6203    1.8732 H   0  0  0  0  0  0  0  0  0  0  0  0
   -4.5948   -2.7942    2.4337 H   0  0  0  0  0  0  0  0  0  0  0  0
   -4.5070   -3.1373    0.7055 H   0  0  0  0  0  0  0  0  0  0  0  0
   -4.4320   -1.4727    1.2802 H   0  0  0  0  0  0  0  0  0  0  0  0
    0.1893   -3.5409    1.8961 H   0  0  0  0  0  0  0  0  0  0  0  0
   -0.4169   -4.3054    0.4241 H   0  0  0  0  0  0  0  0  0  0  0  0
    2.2550   -2.8434    0.5810 H   0  0  0  0  0  0  0  0  0  0  0  0
    1.6251   -3.7616   -0.7856 H   0  0  0  0  0  0  0  0  0  0  0  0
    1.6436   -5.8358    0.6163 H   0  0  0  0  0  0  0  0  0  0  0  0
    2.2918   -4.9046    1.9685 H   0  0  0  0  0  0  0  0  0  0  0  0
    3.2519   -5.1173    0.5038 H   0  0  0  0  0  0  0  0  0  0  0  0
   -0.1528    0.5557   -0.9389 H   0  0  0  0  0  0  0  0  0  0  0  0
    3.0611    4.2472   -1.9605 H   0  0  0  0  0  0  0  0  0  0  0  0
    4.8830    6.4563   -3.8864 H   0  0  0  0  0  0  0  0  0  0  0  0
    4.3918    6.1028   -2.2258 H   0  0  0  0  0  0  0  0  0  0  0  0
    3.6119    7.4071   -3.1271 H   0  0  0  0  0  0  0  0  0  0  0  0
    2.5853    7.7586   -5.2616 H   0  0  0  0  0  0  0  0  0  0  0  0
    2.2275    6.8561   -6.7370 H   0  0  0  0  0  0  0  0  0  0  0  0
    3.8510    6.8167   -6.0403 H   0  0  0  0  0  0  0  0  0  0  0  0
    0.9777    4.9515   -6.3882 H   0  0  0  0  0  0  0  0  0  0  0  0
   -1.2078    1.4733   -6.1171 H   0  0  0  0  0  0  0  0  0  0  0  0
    0.6394    3.3784   -7.6465 H   0  0  0  0  0  0  0  0  0  0  0  0
    1.1691    3.7902   -9.8312 H   0  0  0  0  0  0  0  0  0  0  0  0
    3.0042    3.4869  -12.7276 H   0  0  0  0  0  0  0  0  0  0  0  0
    1.6669    4.5483  -13.1531 H   0  0  0  0  0  0  0  0  0  0  0  0
    2.4210    4.6778  -11.5607 H   0  0  0  0  0  0  0  0  0  0  0  0
    2.1084    1.7988  -14.1745 H   0  0  0  0  0  0  0  0  0  0  0  0
    0.7640    2.8538  -14.5942 H   0  0  0  0  0  0  0  0  0  0  0  0
    0.5428    1.1012  -14.6021 H   0  0  0  0  0  0  0  0  0  0  0  0
   -0.6682    0.2886  -12.8137 H   0  0  0  0  0  0  0  0  0  0  0  0
   -2.0868   -1.0581  -11.7638 H   0  0  0  0  0  0  0  0  0  0  0  0
   -3.2826   -2.7335  -10.5843 H   0  0  0  0  0  0  0  0  0  0  0  0
   -5.1198   -1.8347   -8.3650 H   0  0  0  0  0  0  0  0  0  0  0  0
   -7.3560   -1.0969   -4.3152 H   0  0  0  0  0  0  0  0  0  0  0  0
   -6.1320   -3.2654   -4.0140 H   0  0  0  0  0  0  0  0  0  0  0  0
   -7.1985   -4.0170   -5.1924 H   0  0  0  0  0  0  0  0  0  0  0  0
   -9.1600   -3.4766   -3.7260 H   0  0  0  0  0  0  0  0  0  0  0  0
   -8.0662   -2.6986   -2.5788 H   0  0  0  0  0  0  0  0  0  0  0  0
   -8.6160   -5.0101   -1.8560 H   0  0  0  0  0  0  0  0  0  0  0  0
   -7.9811   -5.6494   -3.3726 H   0  0  0  0  0  0  0  0  0  0  0  0
   -6.8963   -4.8697   -2.2210 H   0  0  0  0  0  0  0  0  0  0  0  0
   -8.5339   -0.7886   -6.4838 H   0  0  0  0  0  0  0  0  0  0  0  0
   -9.4428   -1.5689   -5.1893 H   0  0  0  0  0  0  0  0  0  0  0  0
   -9.9724   -2.6189   -7.2848 H   0  0  0  0  0  0  0  0  0  0  0  0
   -9.1088   -3.7807   -6.2891 H   0  0  0  0  0  0  0  0  0  0  0  0
   -7.8853   -2.1333   -8.5527 H   0  0  0  0  0  0  0  0  0  0  0  0
   -7.0152   -3.3169   -7.5817 H   0  0  0  0  0  0  0  0  0  0  0  0
   -8.3229   -3.8416   -8.6467 H   0  0  0  0  0  0  0  0  0  0  0  0
   -0.9031   -2.3496   -2.8597 H   0  0  0  0  0  0  0  0  0  0  0  0
    0.3284   -3.4610   -5.4203 H   0  0  0  0  0  0  0  0  0  0  0  0
   -1.2711   -3.8225   -4.7821 H   0  0  0  0  0  0  0  0  0  0  0  0
    1.3854   -4.5542   -3.4776 H   0  0  0  0  0  0  0  0  0  0  0  0
   -0.1853   -4.7439   -2.6932 H   0  0  0  0  0  0  0  0  0  0  0  0
    0.6464   -6.0504   -5.3289 H   0  0  0  0  0  0  0  0  0  0  0  0
   -0.9104   -6.2669   -4.5309 H   0  0  0  0  0  0  0  0  0  0  0  0
    0.5630   -6.8641   -3.7649 H   0  0  0  0  0  0  0  0  0  0  0  0
    1.5639   -2.4415   -2.6673 H   0  0  0  0  0  0  0  0  0  0  0  0
    0.9416   -0.7957   -2.7577 H   0  0  0  0  0  0  0  0  0  0  0  0
    2.2964   -2.3122   -5.0220 H   0  0  0  0  0  0  0  0  0  0  0  0
    1.5017   -0.7451   -5.1990 H   0  0  0  0  0  0  0  0  0  0  0  0
    3.0638    0.2408   -3.5287 H   0  0  0  0  0  0  0  0  0  0  0  0
    3.9685   -0.5060   -4.8438 H   0  0  0  0  0  0  0  0  0  0  0  0
    3.8188   -1.3362   -3.2913 H   0  0  0  0  0  0  0  0  0  0  0  0
   -1.9800   -0.1695   -2.2870 H   0  0  0  0  0  0  0  0  0  0  0  0
   -6.3835    0.3568   -0.4336 H   0  0  0  0  0  0  0  0  0  0  0  0
   -9.5339    2.2209    1.6034 H   0  0  0  0  0  0  0  0  0  0  0  0
   -7.7632    2.0538   -0.8776 H   0  0  0  0  0  0  0  0  0  0  0  0
   -9.4344    2.6162   -0.8621 H   0  0  0  0  0  0  0  0  0  0  0  0
  -10.2132    0.4481   -0.0103 H   0  0  0  0  0  0  0  0  0  0  0  0
   -8.5626   -0.1530    0.0564 H   0  0  0  0  0  0  0  0  0  0  0  0
   -9.7247   -0.9387   -2.0069 H   0  0  0  0  0  0  0  0  0  0  0  0
   -8.3689    0.1122   -2.4267 H   0  0  0  0  0  0  0  0  0  0  0  0
  -10.0179    0.7331   -2.4868 H   0  0  0  0  0  0  0  0  0  0  0  0
   -8.0212    4.1025    2.2539 H   0  0  0  0  0  0  0  0  0  0  0  0
   -7.2910    4.0651    0.6456 H   0  0  0  0  0  0  0  0  0  0  0  0
   -9.4248    4.7402   -0.3655 H   0  0  0  0  0  0  0  0  0  0  0  0
  -10.2629    4.5215    1.1731 H   0  0  0  0  0  0  0  0  0  0  0  0
   -9.7802    6.9242    0.7209 H   0  0  0  0  0  0  0  0  0  0  0  0
   -8.9296    6.3719    2.1647 H   0  0  0  0  0  0  0  0  0  0  0  0
   -8.0538    6.5665    0.6465 H   0  0  0  0  0  0  0  0  0  0  0  0
   -1.3736    1.4893    2.0589 H   0  0  0  0  0  0  0  0  0  0  0  0
    0.8373    2.4322    2.6001 H   0  0  0  0  0  0  0  0  0  0  0  0
    0.0720    3.8706    3.2996 H   0  0  0  0  0  0  0  0  0  0  0  0
   -0.1410    2.9871    0.3900 H   0  0  0  0  0  0  0  0  0  0  0  0
   -0.9315    4.4000    1.0870 H   0  0  0  0  0  0  0  0  0  0  0  0
    2.0940    3.9792    1.0110 H   0  0  0  0  0  0  0  0  0  0  0  0
    1.2649    5.4123    1.6135 H   0  0  0  0  0  0  0  0  0  0  0  0
    1.1862    5.0060   -0.1030 H   0  0  0  0  0  0  0  0  0  0  0  0
   -1.1531    2.4864    4.9364 H   0  0  0  0  0  0  0  0  0  0  0  0
   -2.3490    1.3128    4.3812 H   0  0  0  0  0  0  0  0  0  0  0  0
    0.6743    0.9261    4.2887 H   0  0  0  0  0  0  0  0  0  0  0  0
   -0.5202   -0.2147    3.6671 H   0  0  0  0  0  0  0  0  0  0  0  0
   -0.3137    0.7091    6.5758 H   0  0  0  0  0  0  0  0  0  0  0  0
    0.2568   -0.8396    5.9550 H   0  0  0  0  0  0  0  0  0  0  0  0
   -1.4694   -0.4715    5.9553 H   0  0  0  0  0  0  0  0  0  0  0  0
   -3.5751    4.1114    4.9261 H   0  0  0  0  0  0  0  0  0  0  0  0
   -5.8625    4.3095    6.1901 H   0  0  0  0  0  0  0  0  0  0  0  0
  1  2  1  0  0  0  0
  1  3  2  0  0  0  0
  3  4  1  0  0  0  0
  4  5  1  0  0  0  0
  5  6  1  0  0  0  0
  6  7  1  0  0  0  0
  7  8  1  0  0  0  0
  8  9  1  0  0  0  0
  9 10  1  0  0  0  0
  7 11  1  0  0  0  0
 11 12  1  0  0  0  0
 12 13  1  0  0  0  0
  4 14  2  0  0  0  0
 14 15  1  0  0  0  0
 15 16  1  0  0  0  0
 16 17  1  0  0  0  0
 17 18  1  0  0  0  0
 18 19  1  0  0  0  0
 19 20  1  0  0  0  0
 17 21  1  0  0  0  0
 21 22  1  0  0  0  0
 22 23  1  0  0  0  0
 15 24  2  0  0  0  0
 24 25  1  0  0  0  0
 24 26  1  0  0  0  0
 26 27  1  0  0  0  0
 27 28  1  0  0  0  0
 28 29  1  0  0  0  0
 29 30  1  0  0  0  0
 29 31  2  0  0  0  0
 31 32  1  0  0  0  0
 32 33  1  0  0  0  0
 33 34  1  0  0  0  0
 34 35  1  0  0  0  0
 35 36  1  0  0  0  0
 36 37  1  0  0  0  0
 37 38  1  0  0  0  0
 35 39  1  0  0  0  0
 39 40  1  0  0  0  0
 40 41  1  0  0  0  0
 32 42  2  0  0  0  0
 42 43  1  0  0  0  0
 43 44  1  0  0  0  0
 44 45  1  0  0  0  0
 45 46  1  0  0  0  0
 46 47  1  0  0  0  0
 47 48  1  0  0  0  0
 45 49  1  0  0  0  0
 49 50  1  0  0  0  0
 50 51  1  0  0  0  0
 43 52  2  0  0  0  0
 52 53  1  0  0  0  0
 52 54  1  0  0  0  0
 54 55  1  0  0  0  0
 55 56  1  0  0  0  0
 56 57  1  0  0  0  0
 57 58  1  0  0  0  0
 58 59  1  0  0  0  0
 59 60  2  0  0  0  0
 60 61  1  0  0  0  0
 61 62  1  0  0  0  0
 62 63  2  0  0  0  0
 63 64  1  0  0  0  0
 63 65  1  0  0  0  0
 65 66  1  0  0  0  0
 65 67  2  0  0  0  0
 59 68  1  0  0  0  0
 68 69  2  0  0  0  0
 69 70  1  0  0  0  0
 70 71  1  0  0  0  0
 71 72  1  0  0  0  0
 72 73  2  0  0  0  0
 73 74  1  0  0  0  0
 74 75  1  0  0  0  0
 75 76  2  0  0  0  0
 76 77  1  0  0  0  0
 76 78  1  0  0  0  0
 78 79  1  0  0  0  0
 78 80  2  0  0  0  0
 72 81  1  0  0  0  0
 81 82  2  0  0  0  0
 82 83  1  0  0  0  0
 83 84  1  0  0  0  0
 83 85  2  0  0  0  0
 85 86  1  0  0  0  0
 86 87  1  0  0  0  0
 87 88  1  0  0  0  0
 88 89  1  0  0  0  0
 89 90  1  0  0  0  0
 90 91  1  0  0  0  0
 91 92  1  0  0  0  0
 89 93  1  0  0  0  0
 93 94  1  0  0  0  0
 94 95  1  0  0  0  0
 86 96  2  0  0  0  0
 96 97  1  0  0  0  0
 97 98  1  0  0  0  0
 98 99  1  0  0  0  0
 99100  1  0  0  0  0
100101  1  0  0  0  0
101102  1  0  0  0  0
 99103  1  0  0  0  0
103104  1  0  0  0  0
104105  1  0  0  0  0
 97106  2  0  0  0  0
106107  1  0  0  0  0
106108  1  0  0  0  0
108109  1  0  0  0  0
109110  1  0  0  0  0
110111  1  0  0  0  0
111112  1  0  0  0  0
111113  2  0  0  0  0
113114  1  0  0  0  0
114115  1  0  0  0  0
115116  1  0  0  0  0
116117  1  0  0  0  0
117118  1  0  0  0  0
118119  1  0  0  0  0
119120  1  0  0  0  0
117121  1  0  0  0  0
121122  1  0  0  0  0
122123  1  0  0  0  0
114124  2  0  0  0  0
124125  1  0  0  0  0
125126  1  0  0  0  0
126127  1  0  0  0  0
127128  1  0  0  0  0
128129  1  0  0  0  0
129130  1  0  0  0  0
127131  1  0  0  0  0
131132  1  0  0  0  0
132133  1  0  0  0  0
125134  2  0  0  0  0
134135  1  0  0  0  0
134136  1  0  0  0  0
136137  1  0  0  0  0
137138  1  0  0  0  0
 14  2  1  0  0  0  0
 42 30  1  0  0  0  0
 61 57  2  0  0  0  0
 74 70  2  0  0  0  0
 96 84  1  0  0  0  0
124112  1  0  0  0  0
 26  5  2  0  0  0  0
 54 33  2  0  0  0  0
 67 60  1  0  0  0  0
 80 73  1  0  0  0  0
108 87  2  0  0  0  0
136115  2  0  0  0  0
 28 25  2  0  0  0  0
 56 53  2  0  0  0  0
110107  2  0  0  0  0
138135  2  0  0  0  0
  1139  1  0  0  0  0
  3140  1  0  0  0  0
  7141  1  0  0  0  0
  8142  1  0  0  0  0
  8143  1  0  0  0  0
  9144  1  0  0  0  0
  9145  1  0  0  0  0
 10146  1  0  0  0  0
 10147  1  0  0  0  0
 10148  1  0  0  0  0
 11149  1  0  0  0  0
 11150  1  0  0  0  0
 12151  1  0  0  0  0
 12152  1  0  0  0  0
 13153  1  0  0  0  0
 13154  1  0  0  0  0
 13155  1  0  0  0  0
 17156  1  0  0  0  0
 18157  1  0  0  0  0
 18158  1  0  0  0  0
 19159  1  0  0  0  0
 19160  1  0  0  0  0
 20161  1  0  0  0  0
 20162  1  0  0  0  0
 20163  1  0  0  0  0
 21164  1  0  0  0  0
 21165  1  0  0  0  0
 22166  1  0  0  0  0
 22167  1  0  0  0  0
 23168  1  0  0  0  0
 23169  1  0  0  0  0
 23170  1  0  0  0  0
 25171  1  0  0  0  0
 31172  1  0  0  0  0
 35173  1  0  0  0  0
 36174  1  0  0  0  0
 36175  1  0  0  0  0
 37176  1  0  0  0  0
 37177  1  0  0  0  0
 38178  1  0  0  0  0
 38179  1  0  0  0  0
 38180  1  0  0  0  0
 39181  1  0  0  0  0
 39182  1  0  0  0  0
 40183  1  0  0  0  0
 40184  1  0  0  0  0
 41185  1  0  0  0  0
 41186  1  0  0  0  0
 41187  1  0  0  0  0
 45188  1  0  0  0  0
 46189  1  0  0  0  0
 46190  1  0  0  0  0
 47191  1  0  0  0  0
 47192  1  0  0  0  0
 48193  1  0  0  0  0
 48194  1  0  0  0  0
 48195  1  0  0  0  0
 49196  1  0  0  0  0
 49197  1  0  0  0  0
 50198  1  0  0  0  0
 50199  1  0  0  0  0
 51200  1  0  0  0  0
 51201  1  0  0  0  0
 51202  1  0  0  0  0
 53203  1  0  0  0  0
 62204  1  0  0  0  0
 64205  1  0  0  0  0
 64206  1  0  0  0  0
 64207  1  0  0  0  0
 66208  1  0  0  0  0
 66209  1  0  0  0  0
 66210  1  0  0  0  0
 67211  1  0  0  0  0
 68212  1  0  0  0  0
 69213  1  0  0  0  0
 75214  1  0  0  0  0
 77215  1  0  0  0  0
 77216  1  0  0  0  0
 77217  1  0  0  0  0
 79218  1  0  0  0  0
 79219  1  0  0  0  0
 79220  1  0  0  0  0
 80221  1  0  0  0  0
 81222  1  0  0  0  0
 82223  1  0  0  0  0
 85224  1  0  0  0  0
 89225  1  0  0  0  0
 90226  1  0  0  0  0
 90227  1  0  0  0  0
 91228  1  0  0  0  0
 91229  1  0  0  0  0
 92230  1  0  0  0  0
 92231  1  0  0  0  0
 92232  1  0  0  0  0
 93233  1  0  0  0  0
 93234  1  0  0  0  0
 94235  1  0  0  0  0
 94236  1  0  0  0  0
 95237  1  0  0  0  0
 95238  1  0  0  0  0
 95239  1  0  0  0  0
 99240  1  0  0  0  0
100241  1  0  0  0  0
100242  1  0  0  0  0
101243  1  0  0  0  0
101244  1  0  0  0  0
102245  1  0  0  0  0
102246  1  0  0  0  0
102247  1  0  0  0  0
103248  1  0  0  0  0
103249  1  0  0  0  0
104250  1  0  0  0  0
104251  1  0  0  0  0
105252  1  0  0  0  0
105253  1  0  0  0  0
105254  1  0  0  0  0
107255  1  0  0  0  0
113256  1  0  0  0  0
117257  1  0  0  0  0
118258  1  0  0  0  0
118259  1  0  0  0  0
119260  1  0  0  0  0
119261  1  0  0  0  0
120262  1  0  0  0  0
120263  1  0  0  0  0
120264  1  0  0  0  0
121265  1  0  0  0  0
121266  1  0  0  0  0
122267  1  0  0  0  0
122268  1  0  0  0  0
123269  1  0  0  0  0
123270  1  0  0  0  0
123271  1  0  0  0  0
127272  1  0  0  0  0
128273  1  0  0  0  0
128274  1  0  0  0  0
129275  1  0  0  0  0
129276  1  0  0  0  0
130277  1  0  0  0  0
130278  1  0  0  0  0
130279  1  0  0  0  0
131280  1  0  0  0  0
131281  1  0  0  0  0
132282  1  0  0  0  0
132283  1  0  0  0  0
133284  1  0  0  0  0
133285  1  0  0  0  0
133286  1  0  0  0  0
135287  1  0  0  0  0
138288  1  0  0  0  0
M  END
