
  xtb     03042209173D
 energy: -311.887319919634 gnorm: 0.000316625879 xtb: 6.4.1 (unknown)
194211  0     0  0            999 V2000
    8.6338   -6.2179    7.2499 C   0  0  0  0  0  0  0  0  0  0  0  0
    7.5596   -6.6187    8.5133 S   0  0  0  0  0  0  0  0  0  0  0  0
    6.6143   -5.1760    8.2839 C   0  0  0  0  0  0  0  0  0  0  0  0
    7.1844   -4.3878    7.2864 C   0  0  0  0  0  0  0  0  0  0  0  0
    8.3325   -4.9995    6.6826 C   0  0  0  0  0  0  0  0  0  0  0  0
    9.0136   -4.3261    5.6421 C   0  0  0  0  0  0  0  0  0  0  0  0
    8.5981   -3.0972    5.2213 C   0  0  0  0  0  0  0  0  0  0  0  0
    9.3484   -2.3746    4.1475 C   0  0  0  0  0  0  0  0  0  0  0  0
    7.4700   -2.4735    5.8419 C   0  0  0  0  0  0  0  0  0  0  0  0
    7.0281   -1.1218    5.3765 C   0  0  0  0  0  0  0  0  0  0  0  0
    6.8011   -3.0984    6.8555 C   0  0  0  0  0  0  0  0  0  0  0  0
    5.4670   -4.9855    9.1219 C   0  0  0  0  0  0  0  0  0  0  0  0
    4.2520   -4.4754    8.8201 C   0  0  0  0  0  0  0  0  0  0  0  0
    3.7303   -4.1210    7.5375 C   0  0  0  0  0  0  0  0  0  0  0  0
    4.2265   -4.3741    6.2929 C   0  0  0  0  0  0  0  0  0  0  0  0
    3.4198   -3.8982    5.2337 C   0  0  0  0  0  0  0  0  0  0  0  0
    3.7266   -3.9116    3.8606 C   0  0  0  0  0  0  0  0  0  0  0  0
    5.0122   -4.4418    3.3941 C   0  0  0  0  0  0  0  0  0  0  0  0
    5.4860   -5.6811    3.8147 C   0  0  0  0  0  0  0  0  0  0  0  0
    6.7458   -6.1262    3.4652 C   0  0  0  0  0  0  0  0  0  0  0  0
    7.5740   -5.3541    2.6601 C   0  0  0  0  0  0  0  0  0  0  0  0
    9.2245   -5.7513    2.1947 S   0  0  0  0  0  0  0  0  0  0  0  0
    9.4947   -7.4297    2.8590 C   0  0  0  0  0  0  0  0  0  0  0  0
    8.8267   -8.4998    2.0159 C   0  0  0  0  0  0  0  0  0  0  0  0
    7.0632   -4.1415    2.1961 C   0  0  0  0  0  0  0  0  0  0  0  0
    7.8259   -3.3788    1.3836 F   0  0  0  0  0  0  0  0  0  0  0  0
    5.8186   -3.6778    2.5530 C   0  0  0  0  0  0  0  0  0  0  0  0
    2.7912   -3.3398    3.0130 C   0  0  0  0  0  0  0  0  0  0  0  0
    1.5807   -2.7744    3.4841 C   0  0  0  0  0  0  0  0  0  0  0  0
    1.3014   -2.7032    4.8617 C   0  0  0  0  0  0  0  0  0  0  0  0
    0.0755   -2.0416    5.3222 C   0  0  0  0  0  0  0  0  0  0  0  0
   -0.7938   -2.6451    6.2296 C   0  0  0  0  0  0  0  0  0  0  0  0
   -1.9850   -2.0408    6.5656 C   0  0  0  0  0  0  0  0  0  0  0  0
   -2.3761   -0.8176    6.0142 C   0  0  0  0  0  0  0  0  0  0  0  0
   -3.9946   -0.2713    6.4620 S   0  0  0  0  0  0  0  0  0  0  0  0
   -4.1086    1.5111    6.0716 C   0  0  0  0  0  0  0  0  0  0  0  0
   -3.2113    2.3495    6.9590 C   0  0  0  0  0  0  0  0  0  0  0  0
   -1.4839   -0.2135    5.1346 C   0  0  0  0  0  0  0  0  0  0  0  0
   -0.2780   -0.7986    4.8058 C   0  0  0  0  0  0  0  0  0  0  0  0
   -1.7585    0.9740    4.5438 F   0  0  0  0  0  0  0  0  0  0  0  0
    2.2333   -3.2816    5.7075 C   0  0  0  0  0  0  0  0  0  0  0  0
    2.1752   -3.2984    7.4501 S   0  0  0  0  0  0  0  0  0  0  0  0
    0.7577   -2.3379    2.4217 C   0  0  0  0  0  0  0  0  0  0  0  0
    1.3092   -2.5077    1.1844 C   0  0  0  0  0  0  0  0  0  0  0  0
    2.8887   -3.2575    1.2694 S   0  0  0  0  0  0  0  0  0  0  0  0
    0.7092   -2.0857   -0.0394 C   0  0  0  0  0  0  0  0  0  0  0  0
   -0.4812   -1.4245   -0.1365 C   0  0  0  0  0  0  0  0  0  0  0  0
   -0.8370   -1.0702   -1.4569 C   0  0  0  0  0  0  0  0  0  0  0  0
   -1.9823   -0.3648   -1.8729 C   0  0  0  0  0  0  0  0  0  0  0  0
   -2.9289    0.1317   -0.8649 C   0  0  0  0  0  0  0  0  0  0  0  0
   -2.4671    0.8192    0.2594 C   0  0  0  0  0  0  0  0  0  0  0  0
   -3.3169    1.1285    1.2997 C   0  0  0  0  0  0  0  0  0  0  0  0
   -4.6657    0.7900    1.2455 C   0  0  0  0  0  0  0  0  0  0  0  0
   -5.6814    1.1291    2.6587 S   0  0  0  0  0  0  0  0  0  0  0  0
   -6.5114   -0.4822    2.9186 C   0  0  0  0  0  0  0  0  0  0  0  0
   -5.5186   -1.5971    3.1797 C   0  0  0  0  0  0  0  0  0  0  0  0
   -5.1370    0.2119    0.0717 C   0  0  0  0  0  0  0  0  0  0  0  0
   -6.4505   -0.0672   -0.0725 F   0  0  0  0  0  0  0  0  0  0  0  0
   -4.2905   -0.1344   -0.9632 C   0  0  0  0  0  0  0  0  0  0  0  0
   -2.1466   -0.2130   -3.2383 C   0  0  0  0  0  0  0  0  0  0  0  0
   -1.2014   -0.6807   -4.1888 C   0  0  0  0  0  0  0  0  0  0  0  0
   -0.0295   -1.3323   -3.7645 C   0  0  0  0  0  0  0  0  0  0  0  0
    0.9957   -1.7621   -4.7227 C   0  0  0  0  0  0  0  0  0  0  0  0
    1.5068   -0.8719   -5.6666 C   0  0  0  0  0  0  0  0  0  0  0  0
    2.4901   -1.2671   -6.5472 C   0  0  0  0  0  0  0  0  0  0  0  0
    2.9929   -2.5666   -6.5350 C   0  0  0  0  0  0  0  0  0  0  0  0
    4.2218   -2.9746   -7.7411 S   0  0  0  0  0  0  0  0  0  0  0  0
    5.4112   -4.0198   -6.8219 C   0  0  0  0  0  0  0  0  0  0  0  0
    5.9666   -3.3129   -5.6022 C   0  0  0  0  0  0  0  0  0  0  0  0
    2.4541   -3.4525   -5.6073 C   0  0  0  0  0  0  0  0  0  0  0  0
    1.4883   -3.0622   -4.7018 C   0  0  0  0  0  0  0  0  0  0  0  0
    2.8575   -4.7413   -5.5682 F   0  0  0  0  0  0  0  0  0  0  0  0
    0.1120   -1.5329   -2.4000 C   0  0  0  0  0  0  0  0  0  0  0  0
    1.4515   -2.3283   -1.6066 S   0  0  0  0  0  0  0  0  0  0  0  0
   -1.6144   -0.4289   -5.5193 C   0  0  0  0  0  0  0  0  0  0  0  0
   -2.8052    0.2369   -5.6169 C   0  0  0  0  0  0  0  0  0  0  0  0
   -3.4806    0.5798   -4.0256 S   0  0  0  0  0  0  0  0  0  0  0  0
   -3.5080    0.7513   -6.7370 C   0  0  0  0  0  0  0  0  0  0  0  0
   -5.0234    1.5264   -6.4141 S   0  0  0  0  0  0  0  0  0  0  0  0
   -5.1048    2.2488   -7.9780 C   0  0  0  0  0  0  0  0  0  0  0  0
   -4.0711    1.7716   -8.7810 C   0  0  0  0  0  0  0  0  0  0  0  0
   -3.1494    0.9280   -8.0789 C   0  0  0  0  0  0  0  0  0  0  0  0
   -2.0213    0.4509   -8.7740 C   0  0  0  0  0  0  0  0  0  0  0  0
   -1.7994    0.7855  -10.0824 C   0  0  0  0  0  0  0  0  0  0  0  0
   -0.5903    0.2629  -10.7945 C   0  0  0  0  0  0  0  0  0  0  0  0
   -2.7134    1.6334  -10.7734 C   0  0  0  0  0  0  0  0  0  0  0  0
   -2.4581    1.9933  -12.2043 C   0  0  0  0  0  0  0  0  0  0  0  0
   -3.8175    2.1111  -10.1258 C   0  0  0  0  0  0  0  0  0  0  0  0
   -6.0635    3.2935   -8.2357 C   0  0  0  0  0  0  0  0  0  0  0  0
   -6.3197    4.2796   -7.3473 C   0  0  0  0  0  0  0  0  0  0  0  0
   -5.5404    4.4654   -6.1532 C   0  0  0  0  0  0  0  0  0  0  0  0
   -6.2835    4.6228   -4.5933 S   0  0  0  0  0  0  0  0  0  0  0  0
   -4.7875    4.3483   -3.7491 C   0  0  0  0  0  0  0  0  0  0  0  0
   -3.7329    4.1997   -4.6663 C   0  0  0  0  0  0  0  0  0  0  0  0
   -4.1564    4.3170   -6.0199 C   0  0  0  0  0  0  0  0  0  0  0  0
   -3.1949    4.2459   -7.0500 C   0  0  0  0  0  0  0  0  0  0  0  0
   -1.8993    3.9152   -6.7678 C   0  0  0  0  0  0  0  0  0  0  0  0
   -0.8991    3.7828   -7.8739 C   0  0  0  0  0  0  0  0  0  0  0  0
   -1.5022    3.6777   -5.4202 C   0  0  0  0  0  0  0  0  0  0  0  0
   -0.1054    3.2244   -5.1283 C   0  0  0  0  0  0  0  0  0  0  0  0
   -2.3938    3.8650   -4.3983 C   0  0  0  0  0  0  0  0  0  0  0  0
   -4.7009    4.2767   -2.3503 C   0  0  0  0  0  0  0  0  0  0  0  0
   -5.7467    4.3498   -1.4796 C   0  0  0  0  0  0  0  0  0  0  0  0
   -5.6112    4.3119   -0.0817 C   0  0  0  0  0  0  0  0  0  0  0  0
   -4.0515    4.2711    0.6837 S   0  0  0  0  0  0  0  0  0  0  0  0
   -4.7249    4.2674    2.2792 C   0  0  0  0  0  0  0  0  0  0  0  0
   -6.1221    4.3004    2.2222 C   0  0  0  0  0  0  0  0  0  0  0  0
   -6.6265    4.3220    0.8890 C   0  0  0  0  0  0  0  0  0  0  0  0
   -8.0161    4.3329    0.6793 C   0  0  0  0  0  0  0  0  0  0  0  0
   -8.8840    4.3214    1.7382 C   0  0  0  0  0  0  0  0  0  0  0  0
  -10.3625    4.3280    1.5004 C   0  0  0  0  0  0  0  0  0  0  0  0
   -8.3821    4.2997    3.0708 C   0  0  0  0  0  0  0  0  0  0  0  0
   -9.3389    4.2804    4.2231 C   0  0  0  0  0  0  0  0  0  0  0  0
   -7.0333    4.2924    3.2965 C   0  0  0  0  0  0  0  0  0  0  0  0
   -3.9009    4.2119    3.4416 C   0  0  0  0  0  0  0  0  0  0  0  0
   -2.5675    4.1368    3.4395 C   0  0  0  0  0  0  0  0  0  0  0  0
    9.4314   -6.8877    6.9962 H   0  0  0  0  0  0  0  0  0  0  0  0
    9.8805   -4.7948    5.1993 H   0  0  0  0  0  0  0  0  0  0  0  0
    8.6808   -2.0331    3.3604 H   0  0  0  0  0  0  0  0  0  0  0  0
    9.8464   -1.4971    4.5605 H   0  0  0  0  0  0  0  0  0  0  0  0
   10.1001   -3.0216    3.7032 H   0  0  0  0  0  0  0  0  0  0  0  0
    6.7331   -1.1607    4.3283 H   0  0  0  0  0  0  0  0  0  0  0  0
    7.8356   -0.3966    5.4676 H   0  0  0  0  0  0  0  0  0  0  0  0
    6.1791   -0.7748    5.9602 H   0  0  0  0  0  0  0  0  0  0  0  0
    5.9750   -2.6083    7.3468 H   0  0  0  0  0  0  0  0  0  0  0  0
    5.5976   -5.3498   10.1348 H   0  0  0  0  0  0  0  0  0  0  0  0
    3.5486   -4.3615    9.6351 H   0  0  0  0  0  0  0  0  0  0  0  0
    5.1471   -4.8953    6.1303 H   0  0  0  0  0  0  0  0  0  0  0  0
    4.8532   -6.3186    4.4135 H   0  0  0  0  0  0  0  0  0  0  0  0
    7.0761   -7.0820    3.8371 H   0  0  0  0  0  0  0  0  0  0  0  0
   10.5787   -7.5442    2.8370 H   0  0  0  0  0  0  0  0  0  0  0  0
    9.1644   -7.4449    3.8970 H   0  0  0  0  0  0  0  0  0  0  0  0
    9.0285   -9.4834    2.4362 H   0  0  0  0  0  0  0  0  0  0  0  0
    9.2130   -8.4701    0.9998 H   0  0  0  0  0  0  0  0  0  0  0  0
    7.7497   -8.3529    1.9748 H   0  0  0  0  0  0  0  0  0  0  0  0
    5.4920   -2.7168    2.1882 H   0  0  0  0  0  0  0  0  0  0  0  0
   -0.5443   -3.6050    6.6540 H   0  0  0  0  0  0  0  0  0  0  0  0
   -2.6602   -2.5205    7.2573 H   0  0  0  0  0  0  0  0  0  0  0  0
   -5.1607    1.7288    6.2601 H   0  0  0  0  0  0  0  0  0  0  0  0
   -3.9096    1.6603    5.0130 H   0  0  0  0  0  0  0  0  0  0  0  0
   -3.4307    2.1647    8.0089 H   0  0  0  0  0  0  0  0  0  0  0  0
   -2.1631    2.1217    6.7802 H   0  0  0  0  0  0  0  0  0  0  0  0
   -3.3722    3.4048    6.7486 H   0  0  0  0  0  0  0  0  0  0  0  0
    0.3817   -0.2677    4.1366 H   0  0  0  0  0  0  0  0  0  0  0  0
   -0.2244   -1.9321    2.5723 H   0  0  0  0  0  0  0  0  0  0  0  0
   -1.1014   -1.2059    0.7118 H   0  0  0  0  0  0  0  0  0  0  0  0
   -1.4269    1.1011    0.3212 H   0  0  0  0  0  0  0  0  0  0  0  0
   -2.9430    1.6206    2.1844 H   0  0  0  0  0  0  0  0  0  0  0  0
   -7.1441   -0.6904    2.0584 H   0  0  0  0  0  0  0  0  0  0  0  0
   -7.1420   -0.3066    3.7898 H   0  0  0  0  0  0  0  0  0  0  0  0
   -6.0516   -2.5270    3.3674 H   0  0  0  0  0  0  0  0  0  0  0  0
   -4.9075   -1.3673    4.0497 H   0  0  0  0  0  0  0  0  0  0  0  0
   -4.8635   -1.7419    2.3217 H   0  0  0  0  0  0  0  0  0  0  0  0
   -4.7023   -0.6324   -1.8268 H   0  0  0  0  0  0  0  0  0  0  0  0
    1.1517    0.1473   -5.6817 H   0  0  0  0  0  0  0  0  0  0  0  0
    2.8951   -0.5704   -7.2650 H   0  0  0  0  0  0  0  0  0  0  0  0
    4.9298   -4.9606   -6.5644 H   0  0  0  0  0  0  0  0  0  0  0  0
    6.1929   -4.2103   -7.5574 H   0  0  0  0  0  0  0  0  0  0  0  0
    6.4137   -2.3612   -5.8821 H   0  0  0  0  0  0  0  0  0  0  0  0
    5.1832   -3.1250   -4.8702 H   0  0  0  0  0  0  0  0  0  0  0  0
    6.7286   -3.9337   -5.1352 H   0  0  0  0  0  0  0  0  0  0  0  0
    1.1059   -3.7927   -4.0063 H   0  0  0  0  0  0  0  0  0  0  0  0
   -1.0453   -0.7645   -6.3646 H   0  0  0  0  0  0  0  0  0  0  0  0
   -1.3221   -0.1987   -8.2724 H   0  0  0  0  0  0  0  0  0  0  0  0
    0.0333    1.0839  -11.1470 H   0  0  0  0  0  0  0  0  0  0  0  0
   -0.8805   -0.3279  -11.6626 H   0  0  0  0  0  0  0  0  0  0  0  0
    0.0048   -0.3644  -10.1353 H   0  0  0  0  0  0  0  0  0  0  0  0
   -1.5032    2.5075  -12.3083 H   0  0  0  0  0  0  0  0  0  0  0  0
   -3.2435    2.6432  -12.5818 H   0  0  0  0  0  0  0  0  0  0  0  0
   -2.4215    1.0986  -12.8249 H   0  0  0  0  0  0  0  0  0  0  0  0
   -4.5177    2.7540  -10.6396 H   0  0  0  0  0  0  0  0  0  0  0  0
   -6.5938    3.2669   -9.1785 H   0  0  0  0  0  0  0  0  0  0  0  0
   -7.1513    4.9513   -7.5153 H   0  0  0  0  0  0  0  0  0  0  0  0
   -3.5002    4.4391   -8.0675 H   0  0  0  0  0  0  0  0  0  0  0  0
   -0.5161    2.7636   -7.9197 H   0  0  0  0  0  0  0  0  0  0  0  0
   -1.3580    4.0158   -8.8315 H   0  0  0  0  0  0  0  0  0  0  0  0
   -0.0548    4.4531   -7.7165 H   0  0  0  0  0  0  0  0  0  0  0  0
    0.0273    3.0481   -4.0635 H   0  0  0  0  0  0  0  0  0  0  0  0
    0.1049    2.2971   -5.6613 H   0  0  0  0  0  0  0  0  0  0  0  0
    0.6237    3.9666   -5.4521 H   0  0  0  0  0  0  0  0  0  0  0  0
   -2.0780    3.7230   -3.3754 H   0  0  0  0  0  0  0  0  0  0  0  0
   -3.7065    4.1470   -1.9428 H   0  0  0  0  0  0  0  0  0  0  0  0
   -6.7500    4.4468   -1.8725 H   0  0  0  0  0  0  0  0  0  0  0  0
   -8.3985    4.3433   -0.3307 H   0  0  0  0  0  0  0  0  0  0  0  0
  -10.8248    3.4390    1.9284 H   0  0  0  0  0  0  0  0  0  0  0  0
  -10.5790    4.3501    0.4354 H   0  0  0  0  0  0  0  0  0  0  0  0
  -10.8241    5.1986    1.9658 H   0  0  0  0  0  0  0  0  0  0  0  0
   -9.9825    5.1595    4.2052 H   0  0  0  0  0  0  0  0  0  0  0  0
   -9.9789    3.3999    4.1758 H   0  0  0  0  0  0  0  0  0  0  0  0
   -8.8012    4.2655    5.1678 H   0  0  0  0  0  0  0  0  0  0  0  0
   -6.6572    4.2692    4.3083 H   0  0  0  0  0  0  0  0  0  0  0  0
   -4.4368    4.2249    4.3813 H   0  0  0  0  0  0  0  0  0  0  0  0
   -2.0091    4.1232    2.5181 H   0  0  0  0  0  0  0  0  0  0  0  0
   -2.0016    4.0852    4.3518 H   0  0  0  0  0  0  0  0  0  0  0  0
  1  2  1  0  0  0  0
  2  3  1  0  0  0  0
  3  4  2  0  0  0  0
  4  5  1  0  0  0  0
  5  6  1  0  0  0  0
  6  7  2  0  0  0  0
  7  8  1  0  0  0  0
  7  9  1  0  0  0  0
  9 10  1  0  0  0  0
  9 11  2  0  0  0  0
  3 12  1  0  0  0  0
 12 13  2  0  0  0  0
 13 14  1  0  0  0  0
 14 15  2  0  0  0  0
 15 16  1  0  0  0  0
 16 17  2  0  0  0  0
 17 18  1  0  0  0  0
 18 19  2  0  0  0  0
 19 20  1  0  0  0  0
 20 21  2  0  0  0  0
 21 22  1  0  0  0  0
 22 23  1  0  0  0  0
 23 24  1  0  0  0  0
 21 25  1  0  0  0  0
 25 26  1  0  0  0  0
 25 27  2  0  0  0  0
 17 28  1  0  0  0  0
 28 29  2  0  0  0  0
 29 30  1  0  0  0  0
 30 31  1  0  0  0  0
 31 32  2  0  0  0  0
 32 33  1  0  0  0  0
 33 34  2  0  0  0  0
 34 35  1  0  0  0  0
 35 36  1  0  0  0  0
 36 37  1  0  0  0  0
 34 38  1  0  0  0  0
 38 39  2  0  0  0  0
 38 40  1  0  0  0  0
 30 41  2  0  0  0  0
 41 42  1  0  0  0  0
 29 43  1  0  0  0  0
 43 44  2  0  0  0  0
 44 45  1  0  0  0  0
 44 46  1  0  0  0  0
 46 47  2  0  0  0  0
 47 48  1  0  0  0  0
 48 49  2  0  0  0  0
 49 50  1  0  0  0  0
 50 51  2  0  0  0  0
 51 52  1  0  0  0  0
 52 53  2  0  0  0  0
 53 54  1  0  0  0  0
 54 55  1  0  0  0  0
 55 56  1  0  0  0  0
 53 57  1  0  0  0  0
 57 58  1  0  0  0  0
 57 59  2  0  0  0  0
 49 60  1  0  0  0  0
 60 61  2  0  0  0  0
 61 62  1  0  0  0  0
 62 63  1  0  0  0  0
 63 64  2  0  0  0  0
 64 65  1  0  0  0  0
 65 66  2  0  0  0  0
 66 67  1  0  0  0  0
 67 68  1  0  0  0  0
 68 69  1  0  0  0  0
 66 70  1  0  0  0  0
 70 71  2  0  0  0  0
 70 72  1  0  0  0  0
 62 73  2  0  0  0  0
 73 74  1  0  0  0  0
 61 75  1  0  0  0  0
 75 76  2  0  0  0  0
 76 77  1  0  0  0  0
 76 78  1  0  0  0  0
 78 79  1  0  0  0  0
 79 80  1  0  0  0  0
 80 81  2  0  0  0  0
 81 82  1  0  0  0  0
 82 83  1  0  0  0  0
 83 84  2  0  0  0  0
 84 85  1  0  0  0  0
 84 86  1  0  0  0  0
 86 87  1  0  0  0  0
 86 88  2  0  0  0  0
 80 89  1  0  0  0  0
 89 90  2  0  0  0  0
 90 91  1  0  0  0  0
 91 92  1  0  0  0  0
 92 93  1  0  0  0  0
 93 94  2  0  0  0  0
 94 95  1  0  0  0  0
 95 96  1  0  0  0  0
 96 97  2  0  0  0  0
 97 98  1  0  0  0  0
 97 99  1  0  0  0  0
 99100  1  0  0  0  0
 99101  2  0  0  0  0
 93102  1  0  0  0  0
102103  2  0  0  0  0
103104  1  0  0  0  0
104105  1  0  0  0  0
105106  1  0  0  0  0
106107  2  0  0  0  0
107108  1  0  0  0  0
108109  1  0  0  0  0
109110  2  0  0  0  0
110111  1  0  0  0  0
110112  1  0  0  0  0
112113  1  0  0  0  0
112114  2  0  0  0  0
106115  1  0  0  0  0
115116  2  0  0  0  0
  5  1  2  0  0  0  0
 42 14  1  0  0  0  0
 74 46  1  0  0  0  0
 82 78  2  0  0  0  0
 95 91  2  0  0  0  0
108104  2  0  0  0  0
 11  4  1  0  0  0  0
 41 16  1  0  0  0  0
 73 48  1  0  0  0  0
 88 81  1  0  0  0  0
101 94  1  0  0  0  0
114107  1  0  0  0  0
 27 18  1  0  0  0  0
 45 28  1  0  0  0  0
 59 50  1  0  0  0  0
 77 60  1  0  0  0  0
 39 31  1  0  0  0  0
 71 63  1  0  0  0  0
  1117  1  0  0  0  0
  6118  1  0  0  0  0
  8119  1  0  0  0  0
  8120  1  0  0  0  0
  8121  1  0  0  0  0
 10122  1  0  0  0  0
 10123  1  0  0  0  0
 10124  1  0  0  0  0
 11125  1  0  0  0  0
 12126  1  0  0  0  0
 13127  1  0  0  0  0
 15128  1  0  0  0  0
 19129  1  0  0  0  0
 20130  1  0  0  0  0
 23131  1  0  0  0  0
 23132  1  0  0  0  0
 24133  1  0  0  0  0
 24134  1  0  0  0  0
 24135  1  0  0  0  0
 27136  1  0  0  0  0
 32137  1  0  0  0  0
 33138  1  0  0  0  0
 36139  1  0  0  0  0
 36140  1  0  0  0  0
 37141  1  0  0  0  0
 37142  1  0  0  0  0
 37143  1  0  0  0  0
 39144  1  0  0  0  0
 43145  1  0  0  0  0
 47146  1  0  0  0  0
 51147  1  0  0  0  0
 52148  1  0  0  0  0
 55149  1  0  0  0  0
 55150  1  0  0  0  0
 56151  1  0  0  0  0
 56152  1  0  0  0  0
 56153  1  0  0  0  0
 59154  1  0  0  0  0
 64155  1  0  0  0  0
 65156  1  0  0  0  0
 68157  1  0  0  0  0
 68158  1  0  0  0  0
 69159  1  0  0  0  0
 69160  1  0  0  0  0
 69161  1  0  0  0  0
 71162  1  0  0  0  0
 75163  1  0  0  0  0
 83164  1  0  0  0  0
 85165  1  0  0  0  0
 85166  1  0  0  0  0
 85167  1  0  0  0  0
 87168  1  0  0  0  0
 87169  1  0  0  0  0
 87170  1  0  0  0  0
 88171  1  0  0  0  0
 89172  1  0  0  0  0
 90173  1  0  0  0  0
 96174  1  0  0  0  0
 98175  1  0  0  0  0
 98176  1  0  0  0  0
 98177  1  0  0  0  0
100178  1  0  0  0  0
100179  1  0  0  0  0
100180  1  0  0  0  0
101181  1  0  0  0  0
102182  1  0  0  0  0
103183  1  0  0  0  0
109184  1  0  0  0  0
111185  1  0  0  0  0
111186  1  0  0  0  0
111187  1  0  0  0  0
113188  1  0  0  0  0
113189  1  0  0  0  0
113190  1  0  0  0  0
114191  1  0  0  0  0
115192  1  0  0  0  0
116193  1  0  0  0  0
116194  1  0  0  0  0
M  END
