248

C         -1.63360        2.03880       18.05300
C         -2.47940        3.01570       17.66910
C         -2.79870        2.96370       16.27930
C         -3.61140        3.83940       15.54100
C         -4.33280        4.94780       16.17850
C         -4.24920        6.24360       15.67120
C         -4.92440        7.27980       16.27730
C         -5.72200        7.06980       17.40240
S         -6.56450        8.47420       18.05950
C         -6.70010        8.11870       19.85760
C         -6.87280        9.42850       20.60110
C         -5.82190        5.76560       17.87790
F         -6.61330        5.46770       18.93460
C         -5.13270        4.72220       17.29360
C         -3.70180        3.60360       14.17830
C         -3.03130        2.53640       13.53270
C         -2.21410        1.66270       14.26910
C         -1.48900        0.57630       13.60050
C         -0.71580        0.83000       12.46750
C         -0.05120       -0.19270       11.82580
C         -0.13910       -1.50660       12.27870
S          0.69250       -2.75820       11.34090
C          1.49130       -3.79220       12.62270
C          2.43170       -2.98380       13.49320
C         -0.92030       -1.74770       13.40410
C         -1.57220       -0.72980       14.07060
F         -1.07750       -3.00300       13.87720
C         -2.13050        1.89510       15.63370
S         -1.15900        0.98640       16.76350
C         -3.33360        2.48090       12.15450
C         -4.18480        3.46360       11.72300
S         -4.67410        4.51060       13.04530
C         -4.57920        3.64980       10.37340
S         -3.78750        2.69070        9.17120
C         -4.66000        3.41540        7.85550
C         -5.55590        4.37870        8.34630
C         -5.50580        4.51080        9.77090
C         -6.35000        5.43940       10.40750
C         -7.20800        6.22150        9.68320
C         -8.09770        7.20310       10.37850
C         -7.25220        6.10140        8.26590
C         -8.18820        6.96280        7.47730
C         -6.44360        5.19970        7.62650
C         -4.28890        2.94160        6.57700
C         -4.76490        3.24190        5.34300
C         -4.18850        2.68770        4.16450
C         -3.06190        1.91890        4.04530
C         -2.74700        1.54980        2.71890
C         -1.63020        0.81250        2.27980
C         -0.69710        0.23420        3.25300
C         -1.17300       -0.49770        4.33860
C         -0.31800       -0.99430        5.30290
C          1.05260       -0.77640        5.21760
S          2.25210       -1.28740        6.40000
C          1.27820       -1.97870        7.78230
C          0.88820       -3.42820        7.56590
C          1.51990       -0.07570        4.10270
F          2.84430        0.14300        3.98020
C          0.67850        0.42350        3.13460
C         -1.47420        0.68510        0.90890
C         -2.40250        1.22080       -0.01880
C         -3.52640        1.94390        0.41990
C         -4.45590        2.52500       -0.55730
C         -3.97610        3.31780       -1.60010
C         -4.82970        3.79820       -2.56900
C         -6.19360        3.51790       -2.53270
S         -7.19930        4.16780       -3.83710
C         -8.30280        2.76930       -4.26200
C         -7.52750        1.53080       -4.66000
C         -6.66860        2.78340       -1.45060
C         -5.82220        2.28130       -0.48150
F         -7.98760        2.52570       -1.31950
C         -3.67360        2.08660        1.78790
S         -4.92340        2.99450        2.59800
C         -2.04920        0.91860       -1.35300
C         -0.88290        0.21760       -1.47070
S         -0.17700       -0.14920        0.08860
C         -0.25190       -0.13020       -2.70240
C         -0.73820        0.15100       -3.94670
C          0.12950       -0.22230       -4.99800
C         -0.08360       -0.04050       -6.37480
C         -1.35880        0.51590       -6.84390
C         -1.41280        1.65750       -7.63630
C         -2.62460        2.22700       -7.97860
C         -3.82260        1.67330       -7.54200
S         -5.42110        2.33800       -7.89160
C         -5.10650        4.13220       -8.03140
C         -4.61470        4.72710       -6.72680
C         -3.75450        0.49670       -6.79650
F         -4.89680       -0.08960       -6.38200
C         -2.55440       -0.07720       -6.44300
C          0.95300       -0.40320       -7.21220
C          2.15040       -1.00340       -6.74320
C          2.34410       -1.22730       -5.36620
C          3.54000       -1.91120       -4.86350
C          3.98580       -3.09290       -5.45640
C          5.09420       -3.75080       -4.97220
C          5.80660       -3.26880       -3.87400
S          7.16840       -4.25320       -3.32690
C          8.38840       -3.06730       -2.65290
C          8.83010       -2.05180       -3.68710
C          5.34020       -2.10000       -3.28000
C          4.23980       -1.42240       -3.76520
F          5.95520       -1.57540       -2.19720
C          1.33450       -0.79220       -4.51960
S          1.32130       -0.89750       -2.77300
C          3.03920       -1.27860       -7.80480
C          2.56490       -0.92930       -9.04330
S          0.96030       -0.23210       -8.94400
C          3.25250       -1.11990      -10.26820
S          4.73850       -2.01620      -10.23010
C          4.95490       -1.93880      -11.94470
C          3.93310       -1.17310      -12.51880
C          2.95240       -0.73130      -11.57810
C          1.85000        0.01130      -12.04250
C          1.71240        0.30670      -13.37110
C          0.53360        1.09850      -13.84390
C          2.68740       -0.13930      -14.31020
C          2.52450        0.18770      -15.76190
C          3.76420       -0.86640      -13.88370
C          6.07660       -2.48510      -12.64080
C          6.75740       -3.64370      -12.47730
C          6.46670       -4.78830      -11.67240
C          5.45020       -5.06210      -10.80560
C          5.43100       -6.38980      -10.31750
C          4.50220       -6.96830       -9.43370
C          3.39280       -6.18810       -8.87230
C          3.11040       -6.23560       -7.50910
C          2.08090       -5.49520       -6.96110
C          1.29740       -4.66450       -7.75490
S         -0.03430       -3.67180       -7.16010
C         -0.57780       -4.55930       -5.65520
C          0.01600       -3.98860       -4.38170
C          1.59850       -4.61180       -9.11600
F          0.87230       -3.80950       -9.92110
C          2.60540       -5.36470       -9.67800
C          4.70930       -8.30390       -9.11230
C          5.77510       -9.07320       -9.63940
C          6.70530       -8.48990      -10.51180
C          7.81540       -9.25860      -11.08950
C          7.58780      -10.45450      -11.76800
C          8.63480      -11.14790      -12.33620
C          9.94750      -10.69050      -12.23670
S         11.21070      -11.69280      -12.96470
C         12.37620      -10.48400      -13.69490
C         11.69470       -9.56440      -14.68790
C         10.16220       -9.51130      -11.53030
C          9.12040       -8.79130      -10.98170
F         11.41150       -9.02860      -11.35030
C          6.51420       -7.15200      -10.82060
S          7.49830       -6.20110      -11.89840
C          5.74960      -10.41460       -9.15250
C          4.70880      -10.65560       -8.33120
S          3.69460       -9.27690       -8.07530
H         -1.24060        1.85340       19.03350
H         -2.85960        3.76860       18.33520
H         -3.62800        6.44290       14.81190
H         -4.84500        8.28360       15.89000
H         -5.78250        7.61430       20.15680
H         -7.55290        7.46060       20.01640
H         -7.77410        9.93900       20.26950
H         -6.95370        9.23600       21.66880
H         -6.02190       10.08300       20.42600
H         -5.25870        3.72880       17.69620
H         -0.61570        1.84190       12.10580
H          0.55200        0.01000       10.95440
H          0.71920       -4.28850       13.20640
H          2.03330       -4.53860       12.04210
H          1.88480       -2.23640       14.06570
H          2.94300       -3.64420       14.19060
H          3.17580       -2.47570       12.88310
H         -2.17180       -0.97550       14.93300
H         -2.95220        1.72180       11.49540
H         -6.31810        5.53040       11.48210
H         -7.94050        7.16710       11.45330
H         -7.89630        8.21610       10.03200
H         -9.14510        6.98520       10.17280
H         -8.09980        6.75550        6.41400
H         -7.97160        8.01730        7.64390
H         -9.21960        6.78520        7.78010
H         -6.48710        5.12050        6.55310
H         -3.48000        2.22260        6.62230
H         -5.59810        3.91040        5.19980
H         -2.43710        1.65500        4.87770
H         -2.23110       -0.69690        4.42200
H         -0.73350       -1.54920        6.12800
H          1.94430       -1.89310        8.64040
H          0.41600       -1.33530        7.95010
H          0.35300       -3.79010        8.44140
H          0.25360       -3.54480        6.69040
H          1.77760       -4.03730        7.42480
H          1.09890        0.98190        2.31350
H         -2.92470        3.55870       -1.64510
H         -4.45130        4.39840       -3.38210
H         -8.88420        3.15570       -5.09910
H         -8.96950        2.58510       -3.42200
H         -8.22100        0.74460       -4.95020
H         -6.87210        1.73680       -5.50260
H         -6.92360        1.16440       -3.83170
H         -6.24010        1.69250        0.32020
H         -2.64660        1.21260       -2.19530
H         -1.68130        0.63610       -4.11550
H         -0.49590        2.11980       -7.96860
H         -2.63230        3.11730       -8.58720
H         -6.08010        4.53970       -8.30270
H         -4.41500        4.30530       -8.85530
H         -5.34420        4.55720       -5.93790
H         -3.66680        4.28030       -6.43090
H         -4.47230        5.79990       -6.84140
H         -2.55400       -0.98590       -5.86160
H          3.44830       -3.50820       -6.29430
H          5.43080       -4.66340       -5.43950
H          9.21680       -3.71120       -2.35650
H          7.97240       -2.59470       -1.76610
H          9.21420       -2.55150       -4.57410
H          9.61510       -1.42430       -3.27000
H          8.00130       -1.41150       -3.98240
H          3.94620       -0.50770       -3.27470
H          4.01920       -1.69980       -7.66600
H          1.10520        0.34720      -11.33880
H          0.85740        2.01680      -14.33280
H         -0.11120        1.35790      -13.00850
H         -0.04830        0.52630      -14.56540
H          3.34660       -0.22270      -16.34280
H          2.49820        1.26640      -15.91240
H          1.59110       -0.22300      -16.14500
H          4.49860       -1.21470      -14.59480
H          6.40810       -1.86000      -13.46350
H          7.60990       -3.78950      -13.12960
H          4.71710       -4.34140      -10.51190
H          3.71840       -6.84270       -6.85680
H          1.90040       -5.56140       -5.90030
H         -1.66240       -4.44720       -5.65330
H         -0.33480       -5.61150       -5.79250
H          1.10370       -3.98390       -4.41320
H         -0.32290       -2.96610       -4.23850
H         -0.30450       -4.58120       -3.52680
H          2.74450       -5.32790      -10.74700
H          6.57880      -10.82220      -11.87710
H          8.45450      -12.06510      -12.87530
H         12.86290       -9.93160      -12.89430
H         13.11330      -11.11820      -14.18770
H         10.95710       -8.93550      -14.19280
H         12.43540       -8.91970      -15.15680
H         11.19290      -10.14200      -15.46160
H          9.34440       -7.88250      -10.44520
H          6.49200      -11.14870       -9.40780
H          4.45890      -11.57200       -7.83320
