
  xtb     03042214313D
 energy: -211.817448923200 gnorm: 0.000295629544 xtb: 6.4.1 (unknown)
144151  0     0  0            999 V2000
    7.4983    3.3870    0.8364 C   0  0  0  0  0  0  0  0  0  0  0  0
    7.1276    2.0538    0.9515 C   0  0  0  0  0  0  0  0  0  0  0  0
    5.8138    1.6909    1.1989 C   0  0  0  0  0  0  0  0  0  0  0  0
    5.3489    0.4126    1.3049 O   0  0  0  0  0  0  0  0  0  0  0  0
    6.2116   -0.6735    1.0523 C   0  0  0  0  0  0  0  0  0  0  0  0
    6.4315   -0.9115   -0.4393 C   0  0  0  0  0  0  0  0  0  0  0  0
    4.8514    2.7068    1.3424 C   0  0  0  0  0  0  0  0  0  0  0  0
    5.2267    4.0285    1.2083 C   0  0  0  0  0  0  0  0  0  0  0  0
    6.5502    4.3904    0.9568 C   0  0  0  0  0  0  0  0  0  0  0  0
    6.7845    5.7357    0.8717 O   0  0  0  0  0  0  0  0  0  0  0  0
    8.0641    6.1977    0.4992 C   0  0  0  0  0  0  0  0  0  0  0  0
    8.3365    6.0422   -0.9952 C   0  0  0  0  0  0  0  0  0  0  0  0
    3.4409    2.3548    1.5902 C   0  0  0  0  0  0  0  0  0  0  0  0
    2.4738    2.7407    0.6735 C   0  0  0  0  0  0  0  0  0  0  0  0
    1.1420    2.3833    0.8299 C   0  0  0  0  0  0  0  0  0  0  0  0
    0.1450    2.6640   -0.0596 O   0  0  0  0  0  0  0  0  0  0  0  0
    0.4644    3.2214   -1.3148 C   0  0  0  0  0  0  0  0  0  0  0  0
    1.0883    2.2076   -2.2716 C   0  0  0  0  0  0  0  0  0  0  0  0
    0.7734    1.6432    1.9626 C   0  0  0  0  0  0  0  0  0  0  0  0
    1.7404    1.2662    2.8855 C   0  0  0  0  0  0  0  0  0  0  0  0
    3.0743    1.6118    2.7191 C   0  0  0  0  0  0  0  0  0  0  0  0
    4.0712    1.3074    3.5954 O   0  0  0  0  0  0  0  0  0  0  0  0
    3.8024    0.4100    4.6480 C   0  0  0  0  0  0  0  0  0  0  0  0
    5.1228    0.1135    5.3426 C   0  0  0  0  0  0  0  0  0  0  0  0
   -0.6207    1.2010    2.1230 C   0  0  0  0  0  0  0  0  0  0  0  0
   -0.8928   -0.1570    2.2145 C   0  0  0  0  0  0  0  0  0  0  0  0
   -2.1877   -0.6401    2.2128 C   0  0  0  0  0  0  0  0  0  0  0  0
   -2.5160   -1.9646    2.2423 O   0  0  0  0  0  0  0  0  0  0  0  0
   -1.5447   -2.9482    1.9574 C   0  0  0  0  0  0  0  0  0  0  0  0
   -0.7995   -3.4129    3.2054 C   0  0  0  0  0  0  0  0  0  0  0  0
   -3.2718    0.2604    2.1251 C   0  0  0  0  0  0  0  0  0  0  0  0
   -2.9888    1.6311    2.0986 C   0  0  0  0  0  0  0  0  0  0  0  0
   -1.6890    2.1104    2.1052 C   0  0  0  0  0  0  0  0  0  0  0  0
   -1.3537    3.4273    2.1061 O   0  0  0  0  0  0  0  0  0  0  0  0
   -2.3582    4.3941    1.8967 C   0  0  0  0  0  0  0  0  0  0  0  0
   -1.6708    5.7467    1.7888 C   0  0  0  0  0  0  0  0  0  0  0  0
   -4.5987   -0.2386    1.8780 C   0  0  0  0  0  0  0  0  0  0  0  0
   -4.7488   -1.7950    1.1384 S   0  0  0  0  0  0  0  0  0  0  0  0
   -6.3713   -1.5200    0.6204 C   0  0  0  0  0  0  0  0  0  0  0  0
   -6.8493   -0.3206    1.1773 C   0  0  0  0  0  0  0  0  0  0  0  0
   -5.8439    0.4026    1.8947 C   0  0  0  0  0  0  0  0  0  0  0  0
   -6.2131    1.5936    2.5526 C   0  0  0  0  0  0  0  0  0  0  0  0
   -7.4856    2.0892    2.4601 C   0  0  0  0  0  0  0  0  0  0  0  0
   -7.8565    3.3502    3.1805 C   0  0  0  0  0  0  0  0  0  0  0  0
   -8.4643    1.4029    1.6892 C   0  0  0  0  0  0  0  0  0  0  0  0
   -9.8512    1.9585    1.5792 C   0  0  0  0  0  0  0  0  0  0  0  0
   -8.1414    0.2229    1.0738 C   0  0  0  0  0  0  0  0  0  0  0  0
   -7.0957   -2.4280   -0.1895 C   0  0  0  0  0  0  0  0  0  0  0  0
   -6.6665   -3.3976   -1.0492 C   0  0  0  0  0  0  0  0  0  0  0  0
   -5.3897   -3.7224   -1.5707 C   0  0  0  0  0  0  0  0  0  0  0  0
   -3.9921   -2.7118   -1.5040 S   0  0  0  0  0  0  0  0  0  0  0  0
   -2.9945   -3.7988   -2.4244 C   0  0  0  0  0  0  0  0  0  0  0  0
   -3.7480   -4.9129   -2.8248 C   0  0  0  0  0  0  0  0  0  0  0  0
   -5.0952   -4.8642   -2.3469 C   0  0  0  0  0  0  0  0  0  0  0  0
   -5.9675   -5.9233   -2.6548 C   0  0  0  0  0  0  0  0  0  0  0  0
   -5.5565   -6.9847   -3.4161 C   0  0  0  0  0  0  0  0  0  0  0  0
   -6.5078   -8.0953   -3.7411 C   0  0  0  0  0  0  0  0  0  0  0  0
   -4.2212   -7.0302   -3.8998 C   0  0  0  0  0  0  0  0  0  0  0  0
   -3.7724   -8.1867   -4.7401 C   0  0  0  0  0  0  0  0  0  0  0  0
   -3.3487   -6.0184   -3.6005 C   0  0  0  0  0  0  0  0  0  0  0  0
   -1.6363   -3.4029   -2.5321 C   0  0  0  0  0  0  0  0  0  0  0  0
   -0.6064   -4.0277   -3.1443 C   0  0  0  0  0  0  0  0  0  0  0  0
    0.7660   -3.5771   -3.1440 C   0  0  0  0  0  0  0  0  0  0  0  0
    1.2507   -2.6272   -2.2401 C   0  0  0  0  0  0  0  0  0  0  0  0
    2.5785   -2.2314   -2.2476 C   0  0  0  0  0  0  0  0  0  0  0  0
    3.1428   -1.3072   -1.4111 O   0  0  0  0  0  0  0  0  0  0  0  0
    2.4753   -0.9215   -0.2247 C   0  0  0  0  0  0  0  0  0  0  0  0
    2.4186   -2.0437    0.8069 C   0  0  0  0  0  0  0  0  0  0  0  0
    3.4400   -2.7888   -3.1900 C   0  0  0  0  0  0  0  0  0  0  0  0
    2.9854   -3.7325   -4.0911 C   0  0  0  0  0  0  0  0  0  0  0  0
    1.6619   -4.1477   -4.0773 C   0  0  0  0  0  0  0  0  0  0  0  0
    1.1344   -5.0979   -4.9084 O   0  0  0  0  0  0  0  0  0  0  0  0
    1.9183   -5.6453   -5.9450 C   0  0  0  0  0  0  0  0  0  0  0  0
    2.0713   -4.6997   -7.1335 C   0  0  0  0  0  0  0  0  0  0  0  0
    8.5373    3.6102    0.6508 H   0  0  0  0  0  0  0  0  0  0  0  0
    7.8987    1.3075    0.8398 H   0  0  0  0  0  0  0  0  0  0  0  0
    5.6983   -1.5351    1.4906 H   0  0  0  0  0  0  0  0  0  0  0  0
    7.1673   -0.5465    1.5773 H   0  0  0  0  0  0  0  0  0  0  0  0
    7.0495   -1.7940   -0.5840 H   0  0  0  0  0  0  0  0  0  0  0  0
    5.4723   -1.0607   -0.9291 H   0  0  0  0  0  0  0  0  0  0  0  0
    6.9229   -0.0562   -0.8970 H   0  0  0  0  0  0  0  0  0  0  0  0
    4.4914    4.8103    1.3163 H   0  0  0  0  0  0  0  0  0  0  0  0
    8.0570    7.2591    0.7645 H   0  0  0  0  0  0  0  0  0  0  0  0
    8.8451    5.7026    1.0903 H   0  0  0  0  0  0  0  0  0  0  0  0
    8.3143    4.9946   -1.2851 H   0  0  0  0  0  0  0  0  0  0  0  0
    9.3114    6.4568   -1.2371 H   0  0  0  0  0  0  0  0  0  0  0  0
    7.5756    6.5709   -1.5639 H   0  0  0  0  0  0  0  0  0  0  0  0
    2.8036    3.3070   -0.1832 H   0  0  0  0  0  0  0  0  0  0  0  0
    1.1126    4.0997   -1.2022 H   0  0  0  0  0  0  0  0  0  0  0  0
   -0.4986    3.5572   -1.7120 H   0  0  0  0  0  0  0  0  0  0  0  0
    1.2646    2.6741   -3.2372 H   0  0  0  0  0  0  0  0  0  0  0  0
    2.0320    1.8329   -1.8829 H   0  0  0  0  0  0  0  0  0  0  0  0
    0.4139    1.3654   -2.4071 H   0  0  0  0  0  0  0  0  0  0  0  0
    1.4179    0.7085    3.7515 H   0  0  0  0  0  0  0  0  0  0  0  0
    3.3664   -0.5189    4.2529 H   0  0  0  0  0  0  0  0  0  0  0  0
    3.0918    0.8551    5.3602 H   0  0  0  0  0  0  0  0  0  0  0  0
    5.5516    1.0347    5.7272 H   0  0  0  0  0  0  0  0  0  0  0  0
    4.9664   -0.5806    6.1637 H   0  0  0  0  0  0  0  0  0  0  0  0
    5.8204   -0.3205    4.6317 H   0  0  0  0  0  0  0  0  0  0  0  0
   -0.0543   -0.8343    2.2309 H   0  0  0  0  0  0  0  0  0  0  0  0
   -2.1124   -3.7841    1.5361 H   0  0  0  0  0  0  0  0  0  0  0  0
   -0.8450   -2.5876    1.1944 H   0  0  0  0  0  0  0  0  0  0  0  0
   -0.1043   -4.2057    2.9424 H   0  0  0  0  0  0  0  0  0  0  0  0
   -0.2473   -2.5945    3.6604 H   0  0  0  0  0  0  0  0  0  0  0  0
   -1.5100   -3.7923    3.9352 H   0  0  0  0  0  0  0  0  0  0  0  0
   -3.8108    2.3164    1.9898 H   0  0  0  0  0  0  0  0  0  0  0  0
   -2.9101    4.1747    0.9721 H   0  0  0  0  0  0  0  0  0  0  0  0
   -3.0688    4.3962    2.7370 H   0  0  0  0  0  0  0  0  0  0  0  0
   -0.9659    5.7325    0.9623 H   0  0  0  0  0  0  0  0  0  0  0  0
   -1.1239    5.9576    2.7037 H   0  0  0  0  0  0  0  0  0  0  0  0
   -2.4069    6.5281    1.6215 H   0  0  0  0  0  0  0  0  0  0  0  0
   -5.4924    2.0967    3.1797 H   0  0  0  0  0  0  0  0  0  0  0  0
   -8.1825    4.1147    2.4754 H   0  0  0  0  0  0  0  0  0  0  0  0
   -8.6753    3.1709    3.8766 H   0  0  0  0  0  0  0  0  0  0  0  0
   -7.0077    3.7366    3.7395 H   0  0  0  0  0  0  0  0  0  0  0  0
   -9.8327    2.9602    1.1507 H   0  0  0  0  0  0  0  0  0  0  0  0
  -10.3182    2.0271    2.5616 H   0  0  0  0  0  0  0  0  0  0  0  0
  -10.4690    1.3245    0.9481 H   0  0  0  0  0  0  0  0  0  0  0  0
   -8.8944   -0.3118    0.5132 H   0  0  0  0  0  0  0  0  0  0  0  0
   -8.1723   -2.3262   -0.1092 H   0  0  0  0  0  0  0  0  0  0  0  0
   -7.4535   -4.0200   -1.4591 H   0  0  0  0  0  0  0  0  0  0  0  0
   -6.9823   -5.8987   -2.2857 H   0  0  0  0  0  0  0  0  0  0  0  0
   -6.6327   -8.1924   -4.8193 H   0  0  0  0  0  0  0  0  0  0  0  0
   -6.1330   -9.0465   -3.3639 H   0  0  0  0  0  0  0  0  0  0  0  0
   -7.4822   -7.9081   -3.2966 H   0  0  0  0  0  0  0  0  0  0  0  0
   -3.8781   -9.1241   -4.1946 H   0  0  0  0  0  0  0  0  0  0  0  0
   -4.3744   -8.2606   -5.6455 H   0  0  0  0  0  0  0  0  0  0  0  0
   -2.7304   -8.0700   -5.0274 H   0  0  0  0  0  0  0  0  0  0  0  0
   -2.3396   -6.0674   -3.9751 H   0  0  0  0  0  0  0  0  0  0  0  0
   -1.4386   -2.4641   -2.0272 H   0  0  0  0  0  0  0  0  0  0  0  0
   -0.7744   -4.9295   -3.7078 H   0  0  0  0  0  0  0  0  0  0  0  0
    0.5647   -2.2109   -1.5208 H   0  0  0  0  0  0  0  0  0  0  0  0
    3.0779   -0.0987    0.1695 H   0  0  0  0  0  0  0  0  0  0  0  0
    1.4700   -0.5401   -0.4416 H   0  0  0  0  0  0  0  0  0  0  0  0
    2.0428   -1.6468    1.7455 H   0  0  0  0  0  0  0  0  0  0  0  0
    3.4181   -2.4384    0.9715 H   0  0  0  0  0  0  0  0  0  0  0  0
    1.7778   -2.8581    0.4748 H   0  0  0  0  0  0  0  0  0  0  0  0
    4.4713   -2.4737   -3.2022 H   0  0  0  0  0  0  0  0  0  0  0  0
    3.6905   -4.1447   -4.7954 H   0  0  0  0  0  0  0  0  0  0  0  0
    2.8989   -5.9631   -5.5687 H   0  0  0  0  0  0  0  0  0  0  0  0
    1.3674   -6.5387   -6.2550 H   0  0  0  0  0  0  0  0  0  0  0  0
    2.5895   -3.7899   -6.8414 H   0  0  0  0  0  0  0  0  0  0  0  0
    2.6338   -5.1908   -7.9230 H   0  0  0  0  0  0  0  0  0  0  0  0
    1.0900   -4.4270   -7.5139 H   0  0  0  0  0  0  0  0  0  0  0  0
  1  2  2  0  0  0  0
  2  3  1  0  0  0  0
  3  4  1  0  0  0  0
  4  5  1  0  0  0  0
  5  6  1  0  0  0  0
  3  7  2  0  0  0  0
  7  8  1  0  0  0  0
  8  9  2  0  0  0  0
  9 10  1  0  0  0  0
 10 11  1  0  0  0  0
 11 12  1  0  0  0  0
  7 13  1  0  0  0  0
 13 14  2  0  0  0  0
 14 15  1  0  0  0  0
 15 16  1  0  0  0  0
 16 17  1  0  0  0  0
 17 18  1  0  0  0  0
 15 19  2  0  0  0  0
 19 20  1  0  0  0  0
 20 21  2  0  0  0  0
 21 22  1  0  0  0  0
 22 23  1  0  0  0  0
 23 24  1  0  0  0  0
 19 25  1  0  0  0  0
 25 26  2  0  0  0  0
 26 27  1  0  0  0  0
 27 28  1  0  0  0  0
 28 29  1  0  0  0  0
 29 30  1  0  0  0  0
 27 31  2  0  0  0  0
 31 32  1  0  0  0  0
 32 33  2  0  0  0  0
 33 34  1  0  0  0  0
 34 35  1  0  0  0  0
 35 36  1  0  0  0  0
 31 37  1  0  0  0  0
 37 38  1  0  0  0  0
 38 39  1  0  0  0  0
 39 40  2  0  0  0  0
 40 41  1  0  0  0  0
 41 42  1  0  0  0  0
 42 43  2  0  0  0  0
 43 44  1  0  0  0  0
 43 45  1  0  0  0  0
 45 46  1  0  0  0  0
 45 47  2  0  0  0  0
 39 48  1  0  0  0  0
 48 49  2  0  0  0  0
 49 50  1  0  0  0  0
 50 51  1  0  0  0  0
 51 52  1  0  0  0  0
 52 53  2  0  0  0  0
 53 54  1  0  0  0  0
 54 55  1  0  0  0  0
 55 56  2  0  0  0  0
 56 57  1  0  0  0  0
 56 58  1  0  0  0  0
 58 59  1  0  0  0  0
 58 60  2  0  0  0  0
 52 61  1  0  0  0  0
 61 62  2  0  0  0  0
 62 63  1  0  0  0  0
 63 64  2  0  0  0  0
 64 65  1  0  0  0  0
 65 66  1  0  0  0  0
 66 67  1  0  0  0  0
 67 68  1  0  0  0  0
 65 69  2  0  0  0  0
 69 70  1  0  0  0  0
 70 71  2  0  0  0  0
 71 72  1  0  0  0  0
 72 73  1  0  0  0  0
 73 74  1  0  0  0  0
  9  1  1  0  0  0  0
 21 13  1  0  0  0  0
 33 25  1  0  0  0  0
 41 37  2  0  0  0  0
 54 50  2  0  0  0  0
 71 63  1  0  0  0  0
 47 40  1  0  0  0  0
 60 53  1  0  0  0  0
  1 75  1  0  0  0  0
  2 76  1  0  0  0  0
  5 77  1  0  0  0  0
  5 78  1  0  0  0  0
  6 79  1  0  0  0  0
  6 80  1  0  0  0  0
  6 81  1  0  0  0  0
  8 82  1  0  0  0  0
 11 83  1  0  0  0  0
 11 84  1  0  0  0  0
 12 85  1  0  0  0  0
 12 86  1  0  0  0  0
 12 87  1  0  0  0  0
 14 88  1  0  0  0  0
 17 89  1  0  0  0  0
 17 90  1  0  0  0  0
 18 91  1  0  0  0  0
 18 92  1  0  0  0  0
 18 93  1  0  0  0  0
 20 94  1  0  0  0  0
 23 95  1  0  0  0  0
 23 96  1  0  0  0  0
 24 97  1  0  0  0  0
 24 98  1  0  0  0  0
 24 99  1  0  0  0  0
 26100  1  0  0  0  0
 29101  1  0  0  0  0
 29102  1  0  0  0  0
 30103  1  0  0  0  0
 30104  1  0  0  0  0
 30105  1  0  0  0  0
 32106  1  0  0  0  0
 35107  1  0  0  0  0
 35108  1  0  0  0  0
 36109  1  0  0  0  0
 36110  1  0  0  0  0
 36111  1  0  0  0  0
 42112  1  0  0  0  0
 44113  1  0  0  0  0
 44114  1  0  0  0  0
 44115  1  0  0  0  0
 46116  1  0  0  0  0
 46117  1  0  0  0  0
 46118  1  0  0  0  0
 47119  1  0  0  0  0
 48120  1  0  0  0  0
 49121  1  0  0  0  0
 55122  1  0  0  0  0
 57123  1  0  0  0  0
 57124  1  0  0  0  0
 57125  1  0  0  0  0
 59126  1  0  0  0  0
 59127  1  0  0  0  0
 59128  1  0  0  0  0
 60129  1  0  0  0  0
 61130  1  0  0  0  0
 62131  1  0  0  0  0
 64132  1  0  0  0  0
 67133  1  0  0  0  0
 67134  1  0  0  0  0
 68135  1  0  0  0  0
 68136  1  0  0  0  0
 68137  1  0  0  0  0
 69138  1  0  0  0  0
 70139  1  0  0  0  0
 73140  1  0  0  0  0
 73141  1  0  0  0  0
 74142  1  0  0  0  0
 74143  1  0  0  0  0
 74144  1  0  0  0  0
M  END
