194

C          5.33780        0.95330        3.91460
S          4.77910       -0.63780        4.16460
C          5.63040       -0.79610        5.66650
C          6.33070        0.38240        5.94430
C          6.15320        1.38510        4.93740
C          6.79870        2.63510        5.07580
C          7.58890        2.89060        6.15790
C          8.27650        4.21350        6.29820
C          7.76490        1.89310        7.16670
C          8.63100        2.18800        8.35190
C          7.14630        0.67930        7.05490
C          5.70670       -2.00720        6.41150
C          5.01220       -3.15120        6.25830
C          3.87420       -3.39470        5.40450
C          3.68630       -4.46660        4.59120
C          2.43900       -4.47010        3.91080
C          1.99320       -5.37350        2.93340
C          2.76660       -6.57320        2.59320
C          3.20220       -7.43130        3.60280
C          3.92210       -8.56590        3.29850
C          4.22940       -8.89480        1.97990
S          5.12850      -10.39530        1.71210
C          6.29140       -9.98530        0.35830
C          7.17130       -8.80070        0.70320
C          3.75980       -8.04710        0.98120
F          3.98820       -8.32570       -0.31930
C          3.05170       -6.89810        1.27160
C          0.77970       -5.08510        2.32940
C         -0.03090       -3.98300        2.70080
C          0.40450       -3.09280        3.70030
C         -0.39510       -1.92890        4.09970
C         -0.62510       -1.64390        5.44530
C         -1.37200       -0.54700        5.81800
C         -1.92780        0.31100        4.87120
S         -2.93470        1.64580        5.45750
C         -2.40920        3.07200        4.43520
C         -0.94380        3.40140        4.63570
C         -1.70630        0.00500        3.53390
C         -0.94490       -1.07740        3.14570
F         -2.23740        0.76810        2.54650
C          1.64160       -3.35800        4.27160
S          2.46070       -2.34800        5.43600
C         -1.24650       -3.95300        1.97510
C         -1.35780       -4.94510        1.04110
S          0.03330       -6.01830        1.06380
C         -2.38170       -5.16700        0.08110
S         -2.50990       -6.71940       -0.68230
C         -3.76100       -6.19350       -1.74860
C         -4.12090       -4.87710       -1.46820
C         -3.31190       -4.27240       -0.45840
C         -3.45410       -2.88850       -0.22920
C         -4.36740       -2.14740       -0.92550
C         -4.44220       -0.66590       -0.72670
C         -5.25460       -2.78060       -1.84600
C         -6.29880       -1.97120       -2.54890
C         -5.13180       -4.11650       -2.09490
C         -4.14850       -6.99560       -2.88790
C         -4.14990       -6.52290       -4.14680
C         -3.69590       -5.18920       -4.47010
C         -2.66710       -4.51390       -3.89410
C         -2.62900       -3.13410       -4.20920
C         -1.79540       -2.15210       -3.64860
C         -0.73940       -2.48160       -2.68440
C         -0.61240       -1.75780       -1.50130
C          0.40900       -2.01370       -0.60860
C          1.34530       -3.00810       -0.86050
S          2.72420       -3.39820        0.16680
C          2.85260       -1.98630        1.31030
C          3.32140       -0.71850        0.62370
C          1.18100       -3.75670       -2.02690
F          2.05650       -4.74650       -2.29270
C          0.17260       -3.50670       -2.93070
C         -2.06200       -0.84300       -4.01610
C         -3.08050       -0.47540       -4.92920
C         -3.88770       -1.46580       -5.51740
C         -4.89670       -1.12000       -6.52500
C         -4.55530       -0.32110       -7.61670
C         -5.48350       -0.02870       -8.59190
C         -6.79200       -0.50190       -8.51330
S         -7.90600       -0.03110       -9.80440
C         -8.89260       -1.54350      -10.10830
C         -8.02000       -2.73020      -10.46430
C         -7.12790       -1.26730       -7.40150
C         -6.20100       -1.59220       -6.43220
F         -8.38970       -1.72020       -7.22650
C         -3.66370       -2.77150       -5.10600
S         -4.60640       -4.16680       -5.56730
C         -3.18410        0.93040       -5.06970
C         -2.26090        1.63600       -4.34730
S         -1.19620        0.56160       -3.45110
C         -2.18310        3.04480       -4.19500
S         -3.58400        4.00640       -4.56480
C         -2.87280        5.45610       -3.92630
C         -1.54310        5.22020       -3.56950
C         -1.16370        3.84790       -3.67520
C          0.12300        3.46810       -3.24510
C          0.99440        4.39070       -2.73570
C          2.33580        3.95820       -2.23100
C          0.64270        5.77120       -2.70920
C          1.62220        6.78320       -2.20300
C         -0.58970        6.16690       -3.14510
C         -3.69340        6.60610       -3.72150
C         -3.62650        7.48550       -2.68990
C         -2.79500        7.40880       -1.53160
S         -2.14630        8.87740       -0.86760
C         -1.08860        8.03690        0.21680
C         -1.26810        6.65710        0.09880
C         -2.27610        6.30590       -0.84980
C         -2.64760        4.95230       -0.98090
C         -1.93750        3.96940       -0.35400
C         -2.30960        2.53400       -0.54350
C         -0.82860        4.31160        0.47530
C          0.01120        3.21940        1.06040
C         -0.54680        5.62350        0.73380
C         -0.17660        8.73400        1.06710
C         -0.05620       10.06040        1.14640
H          5.04030        1.49210        3.03700
H          6.65570        3.38060        4.30700
H          8.03960        4.85870        5.45600
H          7.96700        4.71330        7.21530
H          9.35720        4.08280        6.34000
H          9.64430        2.43480        8.03690
H          8.67590        1.32980        9.01760
H          8.24140        3.03840        8.91070
H          7.28150       -0.06340        7.82760
H          6.48730       -2.00540        7.16180
H          5.32790       -4.01240        6.83470
H          4.44440       -5.21260        4.43140
H          2.95990       -7.21030        4.63140
H          4.26050       -9.22660        4.08170
H          5.72690       -9.82040       -0.55660
H          6.88090      -10.89630        0.25410
H          7.90640       -8.64970       -0.08480
H          7.69400       -8.97290        1.64200
H          6.57930       -7.89230        0.79730
H          2.74330       -6.26230        0.45690
H         -0.22470       -2.29770        6.20400
H         -1.54670       -0.33580        6.86130
H         -3.04530        3.88310        4.78890
H         -2.64640        2.87300        3.39260
H         -0.68570        4.28080        4.04920
H         -0.31180        2.57320        4.31880
H         -0.73990        3.60550        5.68460
H         -0.79230       -1.24680        2.09110
H         -2.03410       -3.25560        2.18710
H         -2.80530       -2.40060        0.47870
H         -4.23100       -0.14880       -1.66320
H         -5.43690       -0.36530       -0.40100
H         -3.72380       -0.33880        0.02040
H         -6.94590       -1.46690       -1.83240
H         -6.91480       -2.60960       -3.17710
H         -5.83400       -1.20710       -3.17250
H         -5.79430       -4.60900       -2.79130
H         -4.40100       -8.03130       -2.70380
H         -4.52440       -7.13340       -4.95630
H         -1.97240       -4.97870       -3.21950
H         -1.33020       -0.98700       -1.26990
H          0.48070       -1.42150        0.28890
H          1.89750       -1.85750        1.81680
H          3.58500       -2.32080        2.04500
H          3.39980        0.08160        1.35710
H          2.62600       -0.41280       -0.15560
H          4.29760       -0.87510        0.17110
H          0.12950       -4.08740       -3.83870
H         -3.54370        0.04210       -7.71490
H         -5.20950        0.57380       -9.44400
H         -9.51520       -1.74130       -9.23860
H         -9.53090       -1.25920      -10.94490
H         -7.38680       -2.49680      -11.31790
H         -8.64750       -3.58270      -10.71650
H         -7.38270       -3.00940       -9.62720
H         -6.52050       -2.19030       -5.59430
H         -3.93450        1.41270       -5.67090
H          0.42350        2.43430       -3.32040
H          2.44530        2.87920       -2.30760
H          2.45980        4.24960       -1.18860
H          3.13460        4.42800       -2.80370
H          1.86120        6.58660       -1.15830
H          1.20810        7.78560       -2.27510
H          2.55070        6.74750       -2.77150
H         -0.84600        7.21460       -3.17230
H         -4.47870        6.75280       -4.45280
H         -4.24320        8.37380       -2.75520
H         -3.50530        4.70100       -1.58550
H         -2.53060        2.06060        0.41120
H         -1.48810        1.98920       -1.00770
H         -3.18410        2.44860       -1.18350
H          0.47000        2.63820        0.26040
H         -0.59470        2.53980        1.65500
H          0.79840        3.62820        1.68970
H          0.25430        5.87900        1.41300
H          0.44780        8.10180        1.68510
H          0.64920       10.52470        1.81180
H         -0.66590       10.71640        0.54760
