
  xtb     03042212383D
 energy: -418.518219964164 gnorm: 0.000284989548 xtb: 6.4.1 (unknown)
248271  0     0  0            999 V2000
    1.6861    1.8848   11.1736 C   0  0  0  0  0  0  0  0  0  0  0  0
    1.2643    2.3093    9.9656 C   0  0  0  0  0  0  0  0  0  0  0  0
    0.9898    1.2388    9.0630 C   0  0  0  0  0  0  0  0  0  0  0  0
    0.5919    1.3159    7.7185 C   0  0  0  0  0  0  0  0  0  0  0  0
    0.2399    2.5893    7.0792 C   0  0  0  0  0  0  0  0  0  0  0  0
    0.7247    2.9335    5.8187 C   0  0  0  0  0  0  0  0  0  0  0  0
    0.3420    4.1119    5.2167 C   0  0  0  0  0  0  0  0  0  0  0  0
   -0.5492    4.9879    5.8339 C   0  0  0  0  0  0  0  0  0  0  0  0
   -1.0174    6.4292    4.9276 S   0  0  0  0  0  0  0  0  0  0  0  0
   -1.3198    7.7006    6.2187 C   0  0  0  0  0  0  0  0  0  0  0  0
   -1.1711    9.0746    5.5957 C   0  0  0  0  0  0  0  0  0  0  0  0
   -1.0390    4.6252    7.0843 C   0  0  0  0  0  0  0  0  0  0  0  0
   -1.9367    5.4035    7.7333 F   0  0  0  0  0  0  0  0  0  0  0  0
   -0.6470    3.4584    7.7080 C   0  0  0  0  0  0  0  0  0  0  0  0
    0.5060    0.1157    7.0290 C   0  0  0  0  0  0  0  0  0  0  0  0
    0.7317   -1.1471    7.6302 C   0  0  0  0  0  0  0  0  0  0  0  0
    1.1152   -1.2244    8.9786 C   0  0  0  0  0  0  0  0  0  0  0  0
    1.3957   -2.5169    9.6128 C   0  0  0  0  0  0  0  0  0  0  0  0
    0.8104   -2.8681   10.8247 C   0  0  0  0  0  0  0  0  0  0  0  0
    1.0540   -4.0975   11.4068 C   0  0  0  0  0  0  0  0  0  0  0  0
    1.9006   -5.0177   10.7999 C   0  0  0  0  0  0  0  0  0  0  0  0
    2.2707   -6.6290   11.4111 S   0  0  0  0  0  0  0  0  0  0  0  0
    1.7217   -6.5848   13.1510 C   0  0  0  0  0  0  0  0  0  0  0  0
    2.6013   -5.6967   14.0102 C   0  0  0  0  0  0  0  0  0  0  0  0
    2.4857   -4.6484    9.5873 C   0  0  0  0  0  0  0  0  0  0  0  0
    2.2521   -3.4285    8.9962 C   0  0  0  0  0  0  0  0  0  0  0  0
    3.3066   -5.5204    8.9633 F   0  0  0  0  0  0  0  0  0  0  0  0
    1.2391   -0.0207    9.6587 C   0  0  0  0  0  0  0  0  0  0  0  0
    1.7795    0.1612   11.3093 S   0  0  0  0  0  0  0  0  0  0  0  0
    0.5223   -2.2179    6.7242 C   0  0  0  0  0  0  0  0  0  0  0  0
    0.2073   -1.8157    5.4579 C   0  0  0  0  0  0  0  0  0  0  0  0
    0.0783   -0.0606    5.3506 S   0  0  0  0  0  0  0  0  0  0  0  0
    0.0044   -2.5500    4.2588 C   0  0  0  0  0  0  0  0  0  0  0  0
   -0.6509   -1.6953    2.9134 S   0  0  0  0  0  0  0  0  0  0  0  0
   -0.6016   -3.0769    1.8667 C   0  0  0  0  0  0  0  0  0  0  0  0
   -0.0819   -4.1829    2.5517 C   0  0  0  0  0  0  0  0  0  0  0  0
    0.2790   -3.8798    3.9040 C   0  0  0  0  0  0  0  0  0  0  0  0
    0.8714   -4.8885    4.6872 C   0  0  0  0  0  0  0  0  0  0  0  0
    1.0381   -6.1563    4.1995 C   0  0  0  0  0  0  0  0  0  0  0  0
    1.6728   -7.2084    5.0532 C   0  0  0  0  0  0  0  0  0  0  0  0
    0.5951   -6.4781    2.8857 C   0  0  0  0  0  0  0  0  0  0  0  0
    0.7019   -7.8902    2.3997 C   0  0  0  0  0  0  0  0  0  0  0  0
    0.0726   -5.5002    2.0819 C   0  0  0  0  0  0  0  0  0  0  0  0
   -1.0858   -2.8096    0.5674 C   0  0  0  0  0  0  0  0  0  0  0  0
   -1.1015   -3.5144   -0.5898 C   0  0  0  0  0  0  0  0  0  0  0  0
   -1.6539   -2.8752   -1.7436 C   0  0  0  0  0  0  0  0  0  0  0  0
   -2.5429   -1.8366   -1.7340 C   0  0  0  0  0  0  0  0  0  0  0  0
   -2.7373   -1.2289   -2.9912 C   0  0  0  0  0  0  0  0  0  0  0  0
   -3.5530   -0.1217   -3.2796 C   0  0  0  0  0  0  0  0  0  0  0  0
   -4.2508    0.6221   -2.2252 C   0  0  0  0  0  0  0  0  0  0  0  0
   -3.5670    1.0251   -1.0780 C   0  0  0  0  0  0  0  0  0  0  0  0
   -4.2120    1.7216   -0.0812 C   0  0  0  0  0  0  0  0  0  0  0  0
   -5.5592    2.0653   -0.1874 C   0  0  0  0  0  0  0  0  0  0  0  0
   -6.2569    2.9599    1.1671 S   0  0  0  0  0  0  0  0  0  0  0  0
   -7.9896    2.3844    1.2709 C   0  0  0  0  0  0  0  0  0  0  0  0
   -8.0833    0.8857    1.4752 C   0  0  0  0  0  0  0  0  0  0  0  0
   -6.2134    1.7101   -1.3624 C   0  0  0  0  0  0  0  0  0  0  0  0
   -7.5066    2.0419   -1.5671 F   0  0  0  0  0  0  0  0  0  0  0  0
   -5.5846    0.9890   -2.3585 C   0  0  0  0  0  0  0  0  0  0  0  0
   -3.5659    0.2983   -4.5953 C   0  0  0  0  0  0  0  0  0  0  0  0
   -2.7406   -0.2621   -5.6035 C   0  0  0  0  0  0  0  0  0  0  0  0
   -1.9498   -1.3939   -5.3215 C   0  0  0  0  0  0  0  0  0  0  0  0
   -1.1263   -2.0300   -6.3538 C   0  0  0  0  0  0  0  0  0  0  0  0
   -1.6329   -2.2891   -7.6283 C   0  0  0  0  0  0  0  0  0  0  0  0
   -0.8634   -2.9313   -8.5729 C   0  0  0  0  0  0  0  0  0  0  0  0
    0.4503   -3.3230   -8.3081 C   0  0  0  0  0  0  0  0  0  0  0  0
    1.3194   -4.1169   -9.6223 S   0  0  0  0  0  0  0  0  0  0  0  0
    2.5198   -5.2316   -8.8088 C   0  0  0  0  0  0  0  0  0  0  0  0
    1.8484   -6.2265   -7.8843 C   0  0  0  0  0  0  0  0  0  0  0  0
    0.9557   -3.0170   -7.0490 C   0  0  0  0  0  0  0  0  0  0  0  0
    0.1831   -2.4107   -6.0822 C   0  0  0  0  0  0  0  0  0  0  0  0
    2.2360   -3.2983   -6.7166 F   0  0  0  0  0  0  0  0  0  0  0  0
   -1.9802   -1.8548   -4.0120 C   0  0  0  0  0  0  0  0  0  0  0  0
   -1.0979   -3.2226   -3.3715 S   0  0  0  0  0  0  0  0  0  0  0  0
   -2.7296    0.5468   -6.7640 C   0  0  0  0  0  0  0  0  0  0  0  0
   -3.5246    1.6599   -6.6783 C   0  0  0  0  0  0  0  0  0  0  0  0
   -4.4336    1.6906   -5.1759 S   0  0  0  0  0  0  0  0  0  0  0  0
   -3.4582    2.8218   -7.4886 C   0  0  0  0  0  0  0  0  0  0  0  0
   -2.0768    2.9882   -8.5288 S   0  0  0  0  0  0  0  0  0  0  0  0
   -2.2624    4.7033   -8.6404 C   0  0  0  0  0  0  0  0  0  0  0  0
   -3.4372    5.1146   -8.0270 C   0  0  0  0  0  0  0  0  0  0  0  0
   -4.1207    4.0462   -7.3604 C   0  0  0  0  0  0  0  0  0  0  0  0
   -5.2871    4.3405   -6.6288 C   0  0  0  0  0  0  0  0  0  0  0  0
   -5.7400    5.6259   -6.5175 C   0  0  0  0  0  0  0  0  0  0  0  0
   -6.9583    5.9190   -5.7026 C   0  0  0  0  0  0  0  0  0  0  0  0
   -5.0456    6.6925   -7.1654 C   0  0  0  0  0  0  0  0  0  0  0  0
   -5.5526    8.0941   -7.0292 C   0  0  0  0  0  0  0  0  0  0  0  0
   -3.9279    6.4324   -7.9056 C   0  0  0  0  0  0  0  0  0  0  0  0
   -1.1266    5.4980   -9.0655 C   0  0  0  0  0  0  0  0  0  0  0  0
    0.0682    5.3128   -8.4912 C   0  0  0  0  0  0  0  0  0  0  0  0
    0.2512    4.3918   -7.3720 C   0  0  0  0  0  0  0  0  0  0  0  0
    0.9848    3.2556   -7.3206 C   0  0  0  0  0  0  0  0  0  0  0  0
    0.8376    2.5328   -6.1026 C   0  0  0  0  0  0  0  0  0  0  0  0
    1.4451    1.3228   -5.7494 C   0  0  0  0  0  0  0  0  0  0  0  0
    2.1961    0.5189   -6.7217 C   0  0  0  0  0  0  0  0  0  0  0  0
    1.6152    0.1850   -7.9448 C   0  0  0  0  0  0  0  0  0  0  0  0
    2.2906   -0.6042   -8.8510 C   0  0  0  0  0  0  0  0  0  0  0  0
    3.5658   -1.0925   -8.5747 C   0  0  0  0  0  0  0  0  0  0  0  0
    4.3256   -2.1364   -9.7852 S   0  0  0  0  0  0  0  0  0  0  0  0
    6.0531   -1.5330   -9.8440 C   0  0  0  0  0  0  0  0  0  0  0  0
    6.1257   -0.0588  -10.1875 C   0  0  0  0  0  0  0  0  0  0  0  0
    4.1245   -0.7693   -7.3426 C   0  0  0  0  0  0  0  0  0  0  0  0
    5.3479   -1.2246   -6.9976 F   0  0  0  0  0  0  0  0  0  0  0  0
    3.4649    0.0305   -6.4315 C   0  0  0  0  0  0  0  0  0  0  0  0
    1.2518    0.8953   -4.4448 C   0  0  0  0  0  0  0  0  0  0  0  0
    0.4175    1.5500   -3.5049 C   0  0  0  0  0  0  0  0  0  0  0  0
   -0.2675    2.7171   -3.8959 C   0  0  0  0  0  0  0  0  0  0  0  0
   -1.2127    3.4033   -3.0075 C   0  0  0  0  0  0  0  0  0  0  0  0
   -0.9193    3.6659   -1.6721 C   0  0  0  0  0  0  0  0  0  0  0  0
   -1.8293    4.2966   -0.8447 C   0  0  0  0  0  0  0  0  0  0  0  0
   -3.0748    4.6894   -1.3214 C   0  0  0  0  0  0  0  0  0  0  0  0
   -4.3378    5.4868   -0.3968 S   0  0  0  0  0  0  0  0  0  0  0  0
   -3.6685    5.6067    1.2961 C   0  0  0  0  0  0  0  0  0  0  0  0
   -2.7283    6.7844    1.4682 C   0  0  0  0  0  0  0  0  0  0  0  0
   -3.3504    4.4352   -2.6669 C   0  0  0  0  0  0  0  0  0  0  0  0
   -2.4499    3.8184   -3.5007 C   0  0  0  0  0  0  0  0  0  0  0  0
   -4.5454    4.8082   -3.1682 F   0  0  0  0  0  0  0  0  0  0  0  0
   -0.0160    3.1864   -5.1837 C   0  0  0  0  0  0  0  0  0  0  0  0
   -0.6417    4.6621   -5.8797 S   0  0  0  0  0  0  0  0  0  0  0  0
    0.3891    0.8531   -2.2572 C   0  0  0  0  0  0  0  0  0  0  0  0
    1.1730   -0.2569   -2.2321 C   0  0  0  0  0  0  0  0  0  0  0  0
    1.9816   -0.5234   -3.7664 S   0  0  0  0  0  0  0  0  0  0  0  0
    1.5088   -1.2406   -1.2340 C   0  0  0  0  0  0  0  0  0  0  0  0
    1.8092   -1.1573    0.0926 C   0  0  0  0  0  0  0  0  0  0  0  0
    2.3687   -2.3581    0.6292 C   0  0  0  0  0  0  0  0  0  0  0  0
    2.9190   -2.6194    1.9032 C   0  0  0  0  0  0  0  0  0  0  0  0
    3.1485   -1.5680    2.8997 C   0  0  0  0  0  0  0  0  0  0  0  0
    3.5491   -0.2805    2.5296 C   0  0  0  0  0  0  0  0  0  0  0  0
    3.8332    0.6756    3.4781 C   0  0  0  0  0  0  0  0  0  0  0  0
    3.7716    0.4045    4.8481 C   0  0  0  0  0  0  0  0  0  0  0  0
    4.1267    1.7705    5.9101 S   0  0  0  0  0  0  0  0  0  0  0  0
    4.3572    1.1257    7.6042 C   0  0  0  0  0  0  0  0  0  0  0  0
    5.6541    0.3579    7.7618 C   0  0  0  0  0  0  0  0  0  0  0  0
    3.4050   -0.8869    5.2022 C   0  0  0  0  0  0  0  0  0  0  0  0
    3.3592   -1.2833    6.4964 F   0  0  0  0  0  0  0  0  0  0  0  0
    3.0831   -1.8433    4.2621 C   0  0  0  0  0  0  0  0  0  0  0  0
    3.3596   -3.9259    2.1322 C   0  0  0  0  0  0  0  0  0  0  0  0
    3.3099   -4.9553    1.1609 C   0  0  0  0  0  0  0  0  0  0  0  0
    2.8292   -4.6781   -0.1205 C   0  0  0  0  0  0  0  0  0  0  0  0
    2.7877   -5.6665   -1.2072 C   0  0  0  0  0  0  0  0  0  0  0  0
    3.3537   -5.3865   -2.4503 C   0  0  0  0  0  0  0  0  0  0  0  0
    3.2249   -6.2737   -3.4973 C   0  0  0  0  0  0  0  0  0  0  0  0
    2.5392   -7.4761   -3.3459 C   0  0  0  0  0  0  0  0  0  0  0  0
    2.4378   -8.5500   -4.7509 S   0  0  0  0  0  0  0  0  0  0  0  0
    0.6877   -9.0886   -4.7358 C   0  0  0  0  0  0  0  0  0  0  0  0
   -0.2667   -7.9150   -4.8293 C   0  0  0  0  0  0  0  0  0  0  0  0
    2.0252   -7.7664   -2.0864 C   0  0  0  0  0  0  0  0  0  0  0  0
    2.1306   -6.8788   -1.0342 C   0  0  0  0  0  0  0  0  0  0  0  0
    1.3882   -8.9362   -1.8474 F   0  0  0  0  0  0  0  0  0  0  0  0
    2.3916   -3.3839   -0.3469 C   0  0  0  0  0  0  0  0  0  0  0  0
    1.8219   -2.8329   -1.8843 S   0  0  0  0  0  0  0  0  0  0  0  0
    3.9025   -6.1692    1.6186 C   0  0  0  0  0  0  0  0  0  0  0  0
    4.3891   -6.0722    2.8702 C   0  0  0  0  0  0  0  0  0  0  0  0
    4.1508   -4.5147    3.5768 S   0  0  0  0  0  0  0  0  0  0  0  0
    1.9587    2.4791   12.0238 H   0  0  0  0  0  0  0  0  0  0  0  0
    1.1683    3.3460    9.6986 H   0  0  0  0  0  0  0  0  0  0  0  0
    1.4288    2.2902    5.3167 H   0  0  0  0  0  0  0  0  0  0  0  0
    0.7298    4.3773    4.2457 H   0  0  0  0  0  0  0  0  0  0  0  0
   -0.5823    7.5414    7.0039 H   0  0  0  0  0  0  0  0  0  0  0  0
   -2.3226    7.5551    6.6175 H   0  0  0  0  0  0  0  0  0  0  0  0
   -1.8931    9.2102    4.7935 H   0  0  0  0  0  0  0  0  0  0  0  0
   -1.3408    9.8393    6.3506 H   0  0  0  0  0  0  0  0  0  0  0  0
   -0.1719    9.2024    5.1851 H   0  0  0  0  0  0  0  0  0  0  0  0
   -1.0764    3.2169    8.6682 H   0  0  0  0  0  0  0  0  0  0  0  0
    0.1345   -2.1812   11.3106 H   0  0  0  0  0  0  0  0  0  0  0  0
    0.5635   -4.3369   12.3360 H   0  0  0  0  0  0  0  0  0  0  0  0
    1.7957   -7.6257   13.4662 H   0  0  0  0  0  0  0  0  0  0  0  0
    0.6737   -6.2889   13.1800 H   0  0  0  0  0  0  0  0  0  0  0  0
    3.6319   -6.0416   13.9725 H   0  0  0  0  0  0  0  0  0  0  0  0
    2.5726   -4.6653   13.6649 H   0  0  0  0  0  0  0  0  0  0  0  0
    2.2611   -5.7275   15.0435 H   0  0  0  0  0  0  0  0  0  0  0  0
    2.7577   -3.1787    8.0773 H   0  0  0  0  0  0  0  0  0  0  0  0
    0.5804   -3.2456    7.0267 H   0  0  0  0  0  0  0  0  0  0  0  0
    1.2083   -4.6611    5.6857 H   0  0  0  0  0  0  0  0  0  0  0  0
    2.4980   -7.6849    4.5265 H   0  0  0  0  0  0  0  0  0  0  0  0
    0.9497   -7.9838    5.3062 H   0  0  0  0  0  0  0  0  0  0  0  0
    2.0525   -6.7795    5.9770 H   0  0  0  0  0  0  0  0  0  0  0  0
    0.2329   -8.5723    3.1073 H   0  0  0  0  0  0  0  0  0  0  0  0
    1.7465   -8.1872    2.3011 H   0  0  0  0  0  0  0  0  0  0  0  0
    0.2087   -8.0089    1.4378 H   0  0  0  0  0  0  0  0  0  0  0  0
   -0.2505   -5.7358    1.0800 H   0  0  0  0  0  0  0  0  0  0  0  0
   -1.4850   -1.8041    0.4995 H   0  0  0  0  0  0  0  0  0  0  0  0
   -0.6461   -4.4856   -0.7000 H   0  0  0  0  0  0  0  0  0  0  0  0
   -3.0764   -1.5251   -0.8551 H   0  0  0  0  0  0  0  0  0  0  0  0
   -2.5178    0.7952   -0.9769 H   0  0  0  0  0  0  0  0  0  0  0  0
   -3.6808    2.0103    0.8131 H   0  0  0  0  0  0  0  0  0  0  0  0
   -8.5246    2.7111    0.3821 H   0  0  0  0  0  0  0  0  0  0  0  0
   -8.3769    2.9231    2.1361 H   0  0  0  0  0  0  0  0  0  0  0  0
   -9.1242    0.5994    1.6117 H   0  0  0  0  0  0  0  0  0  0  0  0
   -7.5182    0.5838    2.3548 H   0  0  0  0  0  0  0  0  0  0  0  0
   -7.6917    0.3503    0.6125 H   0  0  0  0  0  0  0  0  0  0  0  0
   -6.1550    0.7131   -3.2318 H   0  0  0  0  0  0  0  0  0  0  0  0
   -2.6517   -2.0205   -7.8630 H   0  0  0  0  0  0  0  0  0  0  0  0
   -1.2701   -3.1524   -9.5477 H   0  0  0  0  0  0  0  0  0  0  0  0
    3.2654   -4.6288   -8.2961 H   0  0  0  0  0  0  0  0  0  0  0  0
    2.9926   -5.7341   -9.6526 H   0  0  0  0  0  0  0  0  0  0  0  0
    1.3824   -5.7189   -7.0420 H   0  0  0  0  0  0  0  0  0  0  0  0
    2.5872   -6.9239   -7.4942 H   0  0  0  0  0  0  0  0  0  0  0  0
    1.0843   -6.7881   -8.4188 H   0  0  0  0  0  0  0  0  0  0  0  0
    0.6387   -2.2154   -5.1261 H   0  0  0  0  0  0  0  0  0  0  0  0
   -2.0898    0.3613   -7.6086 H   0  0  0  0  0  0  0  0  0  0  0  0
   -5.8292    3.5398   -6.1503 H   0  0  0  0  0  0  0  0  0  0  0  0
   -7.7062    6.4494   -6.2904 H   0  0  0  0  0  0  0  0  0  0  0  0
   -6.6945    6.5429   -4.8496 H   0  0  0  0  0  0  0  0  0  0  0  0
   -7.3942    4.9986   -5.3246 H   0  0  0  0  0  0  0  0  0  0  0  0
   -4.9076    8.7894   -7.5606 H   0  0  0  0  0  0  0  0  0  0  0  0
   -6.5612    8.1798   -7.4323 H   0  0  0  0  0  0  0  0  0  0  0  0
   -5.5887    8.3843   -5.9802 H   0  0  0  0  0  0  0  0  0  0  0  0
   -3.3997    7.2309   -8.4059 H   0  0  0  0  0  0  0  0  0  0  0  0
   -1.2701    6.2498   -9.8294 H   0  0  0  0  0  0  0  0  0  0  0  0
    0.9380    5.8628   -8.8236 H   0  0  0  0  0  0  0  0  0  0  0  0
    1.6002    2.9147   -8.1338 H   0  0  0  0  0  0  0  0  0  0  0  0
    0.6208    0.5367   -8.1753 H   0  0  0  0  0  0  0  0  0  0  0  0
    1.8356   -0.8678   -9.7933 H   0  0  0  0  0  0  0  0  0  0  0  0
    6.5041   -2.1419  -10.6274 H   0  0  0  0  0  0  0  0  0  0  0  0
    6.5405   -1.7553   -8.8973 H   0  0  0  0  0  0  0  0  0  0  0  0
    7.1657    0.2427  -10.2965 H   0  0  0  0  0  0  0  0  0  0  0  0
    5.6734    0.5447   -9.4022 H   0  0  0  0  0  0  0  0  0  0  0  0
    5.6034    0.1416  -11.1209 H   0  0  0  0  0  0  0  0  0  0  0  0
    3.9565    0.2657   -5.5004 H   0  0  0  0  0  0  0  0  0  0  0  0
    0.0524    3.4087   -1.2781 H   0  0  0  0  0  0  0  0  0  0  0  0
   -1.5533    4.4832    0.1804 H   0  0  0  0  0  0  0  0  0  0  0  0
   -3.2009    4.6563    1.5455 H   0  0  0  0  0  0  0  0  0  0  0  0
   -4.5569    5.7230    1.9161 H   0  0  0  0  0  0  0  0  0  0  0  0
   -1.8859    6.7192    0.7833 H   0  0  0  0  0  0  0  0  0  0  0  0
   -2.3456    6.8040    2.4867 H   0  0  0  0  0  0  0  0  0  0  0  0
   -3.2543    7.7154    1.2715 H   0  0  0  0  0  0  0  0  0  0  0  0
   -2.7294    3.6524   -4.5274 H   0  0  0  0  0  0  0  0  0  0  0  0
   -0.2101    1.1596   -1.4196 H   0  0  0  0  0  0  0  0  0  0  0  0
    1.6479   -0.2642    0.6688 H   0  0  0  0  0  0  0  0  0  0  0  0
    3.6814   -0.0377    1.4875 H   0  0  0  0  0  0  0  0  0  0  0  0
    4.1348    1.6665    3.1743 H   0  0  0  0  0  0  0  0  0  0  0  0
    3.4883    0.5328    7.8777 H   0  0  0  0  0  0  0  0  0  0  0  0
    4.3643    2.0342    8.2083 H   0  0  0  0  0  0  0  0  0  0  0  0
    6.5005    0.9748    7.4672 H   0  0  0  0  0  0  0  0  0  0  0  0
    5.7779    0.0647    8.8022 H   0  0  0  0  0  0  0  0  0  0  0  0
    5.6514   -0.5419    7.1517 H   0  0  0  0  0  0  0  0  0  0  0  0
    2.7646   -2.8048    4.6272 H   0  0  0  0  0  0  0  0  0  0  0  0
    3.9006   -4.4686   -2.5979 H   0  0  0  0  0  0  0  0  0  0  0  0
    3.6489   -6.0421   -4.4616 H   0  0  0  0  0  0  0  0  0  0  0  0
    0.5117   -9.6890   -3.8459 H   0  0  0  0  0  0  0  0  0  0  0  0
    0.6127   -9.7284   -5.6149 H   0  0  0  0  0  0  0  0  0  0  0  0
   -0.1650   -7.2590   -3.9663 H   0  0  0  0  0  0  0  0  0  0  0  0
   -0.0699   -7.3332   -5.7268 H   0  0  0  0  0  0  0  0  0  0  0  0
   -1.2917   -8.2787   -4.8663 H   0  0  0  0  0  0  0  0  0  0  0  0
    1.6882   -7.1350   -0.0852 H   0  0  0  0  0  0  0  0  0  0  0  0
    3.9765   -7.0512    1.0084 H   0  0  0  0  0  0  0  0  0  0  0  0
    4.8898   -6.8232    3.4498 H   0  0  0  0  0  0  0  0  0  0  0  0
  1  2  2  0  0  0  0
  2  3  1  0  0  0  0
  3  4  2  0  0  0  0
  4  5  1  0  0  0  0
  5  6  2  0  0  0  0
  6  7  1  0  0  0  0
  7  8  2  0  0  0  0
  8  9  1  0  0  0  0
  9 10  1  0  0  0  0
 10 11  1  0  0  0  0
  8 12  1  0  0  0  0
 12 13  1  0  0  0  0
 12 14  2  0  0  0  0
  4 15  1  0  0  0  0
 15 16  2  0  0  0  0
 16 17  1  0  0  0  0
 17 18  1  0  0  0  0
 18 19  2  0  0  0  0
 19 20  1  0  0  0  0
 20 21  2  0  0  0  0
 21 22  1  0  0  0  0
 22 23  1  0  0  0  0
 23 24  1  0  0  0  0
 21 25  1  0  0  0  0
 25 26  2  0  0  0  0
 25 27  1  0  0  0  0
 17 28  2  0  0  0  0
 28 29  1  0  0  0  0
 16 30  1  0  0  0  0
 30 31  2  0  0  0  0
 31 32  1  0  0  0  0
 31 33  1  0  0  0  0
 33 34  1  0  0  0  0
 34 35  1  0  0  0  0
 35 36  2  0  0  0  0
 36 37  1  0  0  0  0
 37 38  1  0  0  0  0
 38 39  2  0  0  0  0
 39 40  1  0  0  0  0
 39 41  1  0  0  0  0
 41 42  1  0  0  0  0
 41 43  2  0  0  0  0
 35 44  1  0  0  0  0
 44 45  2  0  0  0  0
 45 46  1  0  0  0  0
 46 47  2  0  0  0  0
 47 48  1  0  0  0  0
 48 49  2  0  0  0  0
 49 50  1  0  0  0  0
 50 51  2  0  0  0  0
 51 52  1  0  0  0  0
 52 53  2  0  0  0  0
 53 54  1  0  0  0  0
 54 55  1  0  0  0  0
 55 56  1  0  0  0  0
 53 57  1  0  0  0  0
 57 58  1  0  0  0  0
 57 59  2  0  0  0  0
 49 60  1  0  0  0  0
 60 61  2  0  0  0  0
 61 62  1  0  0  0  0
 62 63  1  0  0  0  0
 63 64  2  0  0  0  0
 64 65  1  0  0  0  0
 65 66  2  0  0  0  0
 66 67  1  0  0  0  0
 67 68  1  0  0  0  0
 68 69  1  0  0  0  0
 66 70  1  0  0  0  0
 70 71  2  0  0  0  0
 70 72  1  0  0  0  0
 62 73  2  0  0  0  0
 73 74  1  0  0  0  0
 61 75  1  0  0  0  0
 75 76  2  0  0  0  0
 76 77  1  0  0  0  0
 76 78  1  0  0  0  0
 78 79  1  0  0  0  0
 79 80  1  0  0  0  0
 80 81  2  0  0  0  0
 81 82  1  0  0  0  0
 82 83  1  0  0  0  0
 83 84  2  0  0  0  0
 84 85  1  0  0  0  0
 84 86  1  0  0  0  0
 86 87  1  0  0  0  0
 86 88  2  0  0  0  0
 80 89  1  0  0  0  0
 89 90  2  0  0  0  0
 90 91  1  0  0  0  0
 91 92  2  0  0  0  0
 92 93  1  0  0  0  0
 93 94  2  0  0  0  0
 94 95  1  0  0  0  0
 95 96  2  0  0  0  0
 96 97  1  0  0  0  0
 97 98  2  0  0  0  0
 98 99  1  0  0  0  0
 99100  1  0  0  0  0
100101  1  0  0  0  0
 98102  1  0  0  0  0
102103  1  0  0  0  0
102104  2  0  0  0  0
 94105  1  0  0  0  0
105106  2  0  0  0  0
106107  1  0  0  0  0
107108  1  0  0  0  0
108109  2  0  0  0  0
109110  1  0  0  0  0
110111  2  0  0  0  0
111112  1  0  0  0  0
112113  1  0  0  0  0
113114  1  0  0  0  0
111115  1  0  0  0  0
115116  2  0  0  0  0
115117  1  0  0  0  0
107118  2  0  0  0  0
118119  1  0  0  0  0
106120  1  0  0  0  0
120121  2  0  0  0  0
121122  1  0  0  0  0
121123  1  0  0  0  0
123124  2  0  0  0  0
124125  1  0  0  0  0
125126  2  0  0  0  0
126127  1  0  0  0  0
127128  2  0  0  0  0
128129  1  0  0  0  0
129130  2  0  0  0  0
130131  1  0  0  0  0
131132  1  0  0  0  0
132133  1  0  0  0  0
130134  1  0  0  0  0
134135  1  0  0  0  0
134136  2  0  0  0  0
126137  1  0  0  0  0
137138  2  0  0  0  0
138139  1  0  0  0  0
139140  1  0  0  0  0
140141  2  0  0  0  0
141142  1  0  0  0  0
142143  2  0  0  0  0
143144  1  0  0  0  0
144145  1  0  0  0  0
145146  1  0  0  0  0
143147  1  0  0  0  0
147148  2  0  0  0  0
147149  1  0  0  0  0
139150  2  0  0  0  0
150151  1  0  0  0  0
138152  1  0  0  0  0
152153  2  0  0  0  0
153154  1  0  0  0  0
 29  1  1  0  0  0  0
 37 33  2  0  0  0  0
 74 46  1  0  0  0  0
 82 78  2  0  0  0  0
119 91  1  0  0  0  0
151123  1  0  0  0  0
 28  3  1  0  0  0  0
 43 36  1  0  0  0  0
 73 48  1  0  0  0  0
 88 81  1  0  0  0  0
118 93  1  0  0  0  0
150125  1  0  0  0  0
 14  5  1  0  0  0  0
 32 15  1  0  0  0  0
 59 50  1  0  0  0  0
 77 60  1  0  0  0  0
104 95  1  0  0  0  0
122105  1  0  0  0  0
136127  1  0  0  0  0
154137  1  0  0  0  0
 26 18  1  0  0  0  0
 71 63  1  0  0  0  0
116108  1  0  0  0  0
148140  1  0  0  0  0
  1155  1  0  0  0  0
  2156  1  0  0  0  0
  6157  1  0  0  0  0
  7158  1  0  0  0  0
 10159  1  0  0  0  0
 10160  1  0  0  0  0
 11161  1  0  0  0  0
 11162  1  0  0  0  0
 11163  1  0  0  0  0
 14164  1  0  0  0  0
 19165  1  0  0  0  0
 20166  1  0  0  0  0
 23167  1  0  0  0  0
 23168  1  0  0  0  0
 24169  1  0  0  0  0
 24170  1  0  0  0  0
 24171  1  0  0  0  0
 26172  1  0  0  0  0
 30173  1  0  0  0  0
 38174  1  0  0  0  0
 40175  1  0  0  0  0
 40176  1  0  0  0  0
 40177  1  0  0  0  0
 42178  1  0  0  0  0
 42179  1  0  0  0  0
 42180  1  0  0  0  0
 43181  1  0  0  0  0
 44182  1  0  0  0  0
 45183  1  0  0  0  0
 47184  1  0  0  0  0
 51185  1  0  0  0  0
 52186  1  0  0  0  0
 55187  1  0  0  0  0
 55188  1  0  0  0  0
 56189  1  0  0  0  0
 56190  1  0  0  0  0
 56191  1  0  0  0  0
 59192  1  0  0  0  0
 64193  1  0  0  0  0
 65194  1  0  0  0  0
 68195  1  0  0  0  0
 68196  1  0  0  0  0
 69197  1  0  0  0  0
 69198  1  0  0  0  0
 69199  1  0  0  0  0
 71200  1  0  0  0  0
 75201  1  0  0  0  0
 83202  1  0  0  0  0
 85203  1  0  0  0  0
 85204  1  0  0  0  0
 85205  1  0  0  0  0
 87206  1  0  0  0  0
 87207  1  0  0  0  0
 87208  1  0  0  0  0
 88209  1  0  0  0  0
 89210  1  0  0  0  0
 90211  1  0  0  0  0
 92212  1  0  0  0  0
 96213  1  0  0  0  0
 97214  1  0  0  0  0
100215  1  0  0  0  0
100216  1  0  0  0  0
101217  1  0  0  0  0
101218  1  0  0  0  0
101219  1  0  0  0  0
104220  1  0  0  0  0
109221  1  0  0  0  0
110222  1  0  0  0  0
113223  1  0  0  0  0
113224  1  0  0  0  0
114225  1  0  0  0  0
114226  1  0  0  0  0
114227  1  0  0  0  0
116228  1  0  0  0  0
120229  1  0  0  0  0
124230  1  0  0  0  0
128231  1  0  0  0  0
129232  1  0  0  0  0
132233  1  0  0  0  0
132234  1  0  0  0  0
133235  1  0  0  0  0
133236  1  0  0  0  0
133237  1  0  0  0  0
136238  1  0  0  0  0
141239  1  0  0  0  0
142240  1  0  0  0  0
145241  1  0  0  0  0
145242  1  0  0  0  0
146243  1  0  0  0  0
146244  1  0  0  0  0
146245  1  0  0  0  0
148246  1  0  0  0  0
152247  1  0  0  0  0
153248  1  0  0  0  0
M  END
