
  xtb     03042213503D
 energy: -234.807412995167 gnorm: 0.000667131487 xtb: 6.4.1 (unknown)
152167  0     0  0            999 V2000
    4.6949   -7.9850   -3.6045 N   0  0  0  0  0  0  0  0  0  0  0  0
    5.1288   -7.7662   -2.2318 C   0  0  0  0  0  0  0  0  0  0  0  0
    5.0614   -9.0932   -1.4757 C   0  0  0  0  0  0  0  0  0  0  0  0
    4.9162   -8.8806    0.0316 C   0  0  0  0  0  0  0  0  0  0  0  0
    4.6922  -10.1830    0.6497 N   0  0  0  0  0  0  0  0  0  0  0  0
    3.6597   -9.9430    2.0146 S   0  0  0  0  0  0  0  0  0  0  0  0
    2.7219   -8.9321    0.9895 N   0  0  0  0  0  0  0  0  0  0  0  0
    3.6713   -8.0201    0.3713 C   0  0  0  0  0  0  0  0  0  0  0  0
    3.0392   -7.3868   -0.8650 C   0  0  0  0  0  0  0  0  0  0  0  0
    4.1358   -6.7132   -1.6866 C   0  0  0  0  0  0  0  0  0  0  0  0
    3.5794   -6.0353   -2.8437 N   0  0  0  0  0  0  0  0  0  0  0  0
    4.4249   -6.4299   -4.2786 S   0  0  0  0  0  0  0  0  0  0  0  0
    2.7958   -4.9339   -2.7408 C   0  0  0  0  0  0  0  0  0  0  0  0
    2.4374   -4.1554   -3.7883 C   0  0  0  0  0  0  0  0  0  0  0  0
    1.5589   -3.0531   -3.7053 C   0  0  0  0  0  0  0  0  0  0  0  0
    0.7945   -2.5906   -2.2207 S   0  0  0  0  0  0  0  0  0  0  0  0
   -0.0791   -1.2613   -2.9562 C   0  0  0  0  0  0  0  0  0  0  0  0
    0.2372   -1.1857   -4.3246 C   0  0  0  0  0  0  0  0  0  0  0  0
    1.1671   -2.1866   -4.7371 C   0  0  0  0  0  0  0  0  0  0  0  0
    1.6247   -2.2018   -6.0676 C   0  0  0  0  0  0  0  0  0  0  0  0
    1.2073   -1.2586   -6.9662 C   0  0  0  0  0  0  0  0  0  0  0  0
    1.7255   -1.2686   -8.3709 C   0  0  0  0  0  0  0  0  0  0  0  0
    0.2839   -0.2576   -6.5604 C   0  0  0  0  0  0  0  0  0  0  0  0
   -0.1549    0.7901   -7.5338 C   0  0  0  0  0  0  0  0  0  0  0  0
   -0.1894   -0.2396   -5.2753 C   0  0  0  0  0  0  0  0  0  0  0  0
   -0.8362   -0.4558   -2.0917 C   0  0  0  0  0  0  0  0  0  0  0  0
   -1.6983    0.5670   -2.3770 C   0  0  0  0  0  0  0  0  0  0  0  0
   -2.2237    1.4218   -1.3927 C   0  0  0  0  0  0  0  0  0  0  0  0
   -1.5816    1.4347    0.2313 S   0  0  0  0  0  0  0  0  0  0  0  0
   -2.5989    2.7481    0.7342 C   0  0  0  0  0  0  0  0  0  0  0  0
   -3.4387    3.1386   -0.3102 C   0  0  0  0  0  0  0  0  0  0  0  0
   -3.2142    2.4082   -1.5165 C   0  0  0  0  0  0  0  0  0  0  0  0
   -3.9707    2.7271   -2.6583 C   0  0  0  0  0  0  0  0  0  0  0  0
   -4.9076    3.7245   -2.6250 C   0  0  0  0  0  0  0  0  0  0  0  0
   -5.7025    4.0528   -3.8512 C   0  0  0  0  0  0  0  0  0  0  0  0
   -5.1292    4.4559   -1.4224 C   0  0  0  0  0  0  0  0  0  0  0  0
   -6.1527    5.5495   -1.3972 C   0  0  0  0  0  0  0  0  0  0  0  0
   -4.4072    4.1626   -0.2989 C   0  0  0  0  0  0  0  0  0  0  0  0
   -2.4692    3.2969    2.0392 C   0  0  0  0  0  0  0  0  0  0  0  0
   -1.3568    3.1465    2.7812 C   0  0  0  0  0  0  0  0  0  0  0  0
   -1.1959    3.6612    4.0534 N   0  0  0  0  0  0  0  0  0  0  0  0
   -2.1703    3.4007    5.0968 C   0  0  0  0  0  0  0  0  0  0  0  0
   -2.5680    4.6990    5.7883 C   0  0  0  0  0  0  0  0  0  0  0  0
   -3.5220    4.4395    6.9522 C   0  0  0  0  0  0  0  0  0  0  0  0
   -3.7326    5.6890    7.6653 N   0  0  0  0  0  0  0  0  0  0  0  0
   -2.6496    5.6773    9.0009 S   0  0  0  0  0  0  0  0  0  0  0  0
   -2.8289    3.9901    9.2710 N   0  0  0  0  0  0  0  0  0  0  0  0
   -2.9255    3.3798    7.9558 C   0  0  0  0  0  0  0  0  0  0  0  0
   -1.5269    2.9390    7.5311 C   0  0  0  0  0  0  0  0  0  0  0  0
   -1.5064    2.3943    6.1060 C   0  0  0  0  0  0  0  0  0  0  0  0
   -0.1278    2.1845    5.6989 N   0  0  0  0  0  0  0  0  0  0  0  0
    0.3326    3.5725    4.7961 S   0  0  0  0  0  0  0  0  0  0  0  0
    0.3528    0.9664    5.2420 C   0  0  0  0  0  0  0  0  0  0  0  0
   -0.1632   -0.2474    5.4056 C   0  0  0  0  0  0  0  0  0  0  0  0
    0.5035   -1.4419    5.0457 N   0  0  0  0  0  0  0  0  0  0  0  0
   -0.1539   -2.2525    4.0239 C   0  0  0  0  0  0  0  0  0  0  0  0
    0.2752   -3.7066    4.1950 C   0  0  0  0  0  0  0  0  0  0  0  0
   -0.1470   -4.5988    3.0282 C   0  0  0  0  0  0  0  0  0  0  0  0
    0.4461   -5.9261    3.1043 N   0  0  0  0  0  0  0  0  0  0  0  0
    2.0088   -5.8678    2.3333 S   0  0  0  0  0  0  0  0  0  0  0  0
    1.8156   -4.2082    1.8673 N   0  0  0  0  0  0  0  0  0  0  0  0
    0.3845   -4.0248    1.7123 C   0  0  0  0  0  0  0  0  0  0  0  0
    0.0086   -2.5685    1.4870 C   0  0  0  0  0  0  0  0  0  0  0  0
    0.3001   -1.6518    2.6753 C   0  0  0  0  0  0  0  0  0  0  0  0
    1.7135   -1.3577    2.8165 N   0  0  0  0  0  0  0  0  0  0  0  0
    2.1210   -1.3508    4.5287 S   0  0  0  0  0  0  0  0  0  0  0  0
    2.3053   -0.3935    2.0186 C   0  0  0  0  0  0  0  0  0  0  0  0
    1.7572    0.1984    0.9567 C   0  0  0  0  0  0  0  0  0  0  0  0
    2.4906    1.0159    0.0875 N   0  0  0  0  0  0  0  0  0  0  0  0
    1.8169    1.6015   -1.0535 C   0  0  0  0  0  0  0  0  0  0  0  0
    2.6584    1.3933   -2.3118 C   0  0  0  0  0  0  0  0  0  0  0  0
    1.9167    1.9565   -3.5126 C   0  0  0  0  0  0  0  0  0  0  0  0
    2.7302    1.9507   -4.7134 N   0  0  0  0  0  0  0  0  0  0  0  0
    2.0751    3.1797   -5.7114 S   0  0  0  0  0  0  0  0  0  0  0  0
    1.7388    4.2475   -4.4000 N   0  0  0  0  0  0  0  0  0  0  0  0
    1.3970    3.4218   -3.2515 C   0  0  0  0  0  0  0  0  0  0  0  0
    1.9612    3.9947   -1.9583 C   0  0  0  0  0  0  0  0  0  0  0  0
    1.5668    3.1178   -0.7669 C   0  0  0  0  0  0  0  0  0  0  0  0
    2.3317    3.4656    0.4131 N   0  0  0  0  0  0  0  0  0  0  0  0
    3.5030    2.2463    0.7001 S   0  0  0  0  0  0  0  0  0  0  0  0
    1.8203    4.2227    1.4432 C   0  0  0  0  0  0  0  0  0  0  0  0
    0.7854    5.0521    1.3800 C   0  0  0  0  0  0  0  0  0  0  0  0
    5.3561   -8.5125   -4.1618 H   0  0  0  0  0  0  0  0  0  0  0  0
    6.1492   -7.3524   -2.1760 H   0  0  0  0  0  0  0  0  0  0  0  0
    4.2029   -9.6658   -1.8256 H   0  0  0  0  0  0  0  0  0  0  0  0
    5.9592   -9.6792   -1.6772 H   0  0  0  0  0  0  0  0  0  0  0  0
    5.8163   -8.3765    0.4171 H   0  0  0  0  0  0  0  0  0  0  0  0
    5.5451  -10.6510    0.9310 H   0  0  0  0  0  0  0  0  0  0  0  0
    2.0068   -8.4415    1.5170 H   0  0  0  0  0  0  0  0  0  0  0  0
    3.9800   -7.2174    1.0614 H   0  0  0  0  0  0  0  0  0  0  0  0
    2.5400   -8.1480   -1.4625 H   0  0  0  0  0  0  0  0  0  0  0  0
    2.2918   -6.6604   -0.5471 H   0  0  0  0  0  0  0  0  0  0  0  0
    4.6699   -5.9950   -1.0457 H   0  0  0  0  0  0  0  0  0  0  0  0
    2.4401   -4.7154   -1.7436 H   0  0  0  0  0  0  0  0  0  0  0  0
    2.8375   -4.3932   -4.7643 H   0  0  0  0  0  0  0  0  0  0  0  0
    2.3303   -2.9607   -6.3722 H   0  0  0  0  0  0  0  0  0  0  0  0
    2.2162   -0.3238   -8.6014 H   0  0  0  0  0  0  0  0  0  0  0  0
    2.4407   -2.0755   -8.5104 H   0  0  0  0  0  0  0  0  0  0  0  0
    0.9103   -1.4027   -9.0816 H   0  0  0  0  0  0  0  0  0  0  0  0
   -0.5720    0.3383   -8.4328 H   0  0  0  0  0  0  0  0  0  0  0  0
   -0.9040    1.4399   -7.0892 H   0  0  0  0  0  0  0  0  0  0  0  0
    0.6948    1.4058   -7.8274 H   0  0  0  0  0  0  0  0  0  0  0  0
   -0.8871    0.5310   -4.9910 H   0  0  0  0  0  0  0  0  0  0  0  0
   -0.7050   -0.6884   -1.0392 H   0  0  0  0  0  0  0  0  0  0  0  0
   -2.0128    0.7604   -3.3897 H   0  0  0  0  0  0  0  0  0  0  0  0
   -3.8073    2.1725   -3.5709 H   0  0  0  0  0  0  0  0  0  0  0  0
   -6.7684    3.9221   -3.6665 H   0  0  0  0  0  0  0  0  0  0  0  0
   -5.5420    5.0889   -4.1482 H   0  0  0  0  0  0  0  0  0  0  0  0
   -5.4145    3.4087   -4.6784 H   0  0  0  0  0  0  0  0  0  0  0  0
   -6.2033    6.0046   -0.4110 H   0  0  0  0  0  0  0  0  0  0  0  0
   -5.9048    6.3242   -2.1223 H   0  0  0  0  0  0  0  0  0  0  0  0
   -7.1388    5.1615   -1.6507 H   0  0  0  0  0  0  0  0  0  0  0  0
   -4.5711    4.7198    0.6120 H   0  0  0  0  0  0  0  0  0  0  0  0
   -3.3000    3.8778    2.4146 H   0  0  0  0  0  0  0  0  0  0  0  0
   -0.4844    2.6585    2.3649 H   0  0  0  0  0  0  0  0  0  0  0  0
   -3.0525    2.9408    4.6391 H   0  0  0  0  0  0  0  0  0  0  0  0
   -3.0555    5.3585    5.0694 H   0  0  0  0  0  0  0  0  0  0  0  0
   -1.6805    5.2145    6.1548 H   0  0  0  0  0  0  0  0  0  0  0  0
   -4.4811    4.0836    6.5600 H   0  0  0  0  0  0  0  0  0  0  0  0
   -4.6909    5.8042    7.9805 H   0  0  0  0  0  0  0  0  0  0  0  0
   -3.6393    3.8009    9.8533 H   0  0  0  0  0  0  0  0  0  0  0  0
   -3.5813    2.5044    8.0124 H   0  0  0  0  0  0  0  0  0  0  0  0
   -1.1740    2.1678    8.2165 H   0  0  0  0  0  0  0  0  0  0  0  0
   -0.8439    3.7845    7.6131 H   0  0  0  0  0  0  0  0  0  0  0  0
   -2.0410    1.4414    6.0673 H   0  0  0  0  0  0  0  0  0  0  0  0
    1.3185    1.0712    4.7659 H   0  0  0  0  0  0  0  0  0  0  0  0
   -1.1148   -0.4422    5.8788 H   0  0  0  0  0  0  0  0  0  0  0  0
   -1.2397   -2.1618    4.1291 H   0  0  0  0  0  0  0  0  0  0  0  0
    1.3646   -3.7313    4.2640 H   0  0  0  0  0  0  0  0  0  0  0  0
   -0.1404   -4.0902    5.1297 H   0  0  0  0  0  0  0  0  0  0  0  0
   -1.2360   -4.7205    2.9950 H   0  0  0  0  0  0  0  0  0  0  0  0
    0.5657   -6.2239    4.0686 H   0  0  0  0  0  0  0  0  0  0  0  0
    2.3422   -4.0168    1.0226 H   0  0  0  0  0  0  0  0  0  0  0  0
   -0.0221   -4.6226    0.8775 H   0  0  0  0  0  0  0  0  0  0  0  0
   -1.0613   -2.5250    1.2741 H   0  0  0  0  0  0  0  0  0  0  0  0
    0.5473   -2.2056    0.6111 H   0  0  0  0  0  0  0  0  0  0  0  0
   -0.2585   -0.7090    2.5231 H   0  0  0  0  0  0  0  0  0  0  0  0
    3.3282   -0.1785    2.2936 H   0  0  0  0  0  0  0  0  0  0  0  0
    0.7364    0.0271    0.6570 H   0  0  0  0  0  0  0  0  0  0  0  0
    0.8590    1.0970   -1.2010 H   0  0  0  0  0  0  0  0  0  0  0  0
    3.6322    1.8717   -2.1863 H   0  0  0  0  0  0  0  0  0  0  0  0
    2.8288    0.3252   -2.4544 H   0  0  0  0  0  0  0  0  0  0  0  0
    1.0488    1.3272   -3.7315 H   0  0  0  0  0  0  0  0  0  0  0  0
    3.7103    2.1343   -4.5080 H   0  0  0  0  0  0  0  0  0  0  0  0
    2.5499    4.8305   -4.2076 H   0  0  0  0  0  0  0  0  0  0  0  0
    0.3020    3.3911   -3.1877 H   0  0  0  0  0  0  0  0  0  0  0  0
    3.0512    4.0552   -2.0129 H   0  0  0  0  0  0  0  0  0  0  0  0
    1.5811    5.0057   -1.8025 H   0  0  0  0  0  0  0  0  0  0  0  0
    0.5037    3.2670   -0.5440 H   0  0  0  0  0  0  0  0  0  0  0  0
    2.3961    4.1252    2.3534 H   0  0  0  0  0  0  0  0  0  0  0  0
    0.4979    5.6153    2.2476 H   0  0  0  0  0  0  0  0  0  0  0  0
    0.1945    5.1964    0.4933 H   0  0  0  0  0  0  0  0  0  0  0  0
  1  2  1  0  0  0  0
  2  3  1  0  0  0  0
  3  4  1  0  0  0  0
  4  5  1  0  0  0  0
  5  6  1  0  0  0  0
  6  7  1  0  0  0  0
  7  8  1  0  0  0  0
  8  9  1  0  0  0  0
  9 10  1  0  0  0  0
 10 11  1  0  0  0  0
 11 12  1  0  0  0  0
 11 13  1  0  0  0  0
 13 14  2  0  0  0  0
 14 15  1  0  0  0  0
 15 16  1  0  0  0  0
 16 17  1  0  0  0  0
 17 18  2  0  0  0  0
 18 19  1  0  0  0  0
 19 20  1  0  0  0  0
 20 21  2  0  0  0  0
 21 22  1  0  0  0  0
 21 23  1  0  0  0  0
 23 24  1  0  0  0  0
 23 25  2  0  0  0  0
 17 26  1  0  0  0  0
 26 27  2  0  0  0  0
 27 28  1  0  0  0  0
 28 29  1  0  0  0  0
 29 30  1  0  0  0  0
 30 31  2  0  0  0  0
 31 32  1  0  0  0  0
 32 33  1  0  0  0  0
 33 34  2  0  0  0  0
 34 35  1  0  0  0  0
 34 36  1  0  0  0  0
 36 37  1  0  0  0  0
 36 38  2  0  0  0  0
 30 39  1  0  0  0  0
 39 40  2  0  0  0  0
 40 41  1  0  0  0  0
 41 42  1  0  0  0  0
 42 43  1  0  0  0  0
 43 44  1  0  0  0  0
 44 45  1  0  0  0  0
 45 46  1  0  0  0  0
 46 47  1  0  0  0  0
 47 48  1  0  0  0  0
 48 49  1  0  0  0  0
 49 50  1  0  0  0  0
 50 51  1  0  0  0  0
 51 52  1  0  0  0  0
 51 53  1  0  0  0  0
 53 54  2  0  0  0  0
 54 55  1  0  0  0  0
 55 56  1  0  0  0  0
 56 57  1  0  0  0  0
 57 58  1  0  0  0  0
 58 59  1  0  0  0  0
 59 60  1  0  0  0  0
 60 61  1  0  0  0  0
 61 62  1  0  0  0  0
 62 63  1  0  0  0  0
 63 64  1  0  0  0  0
 64 65  1  0  0  0  0
 65 66  1  0  0  0  0
 65 67  1  0  0  0  0
 67 68  2  0  0  0  0
 68 69  1  0  0  0  0
 69 70  1  0  0  0  0
 70 71  1  0  0  0  0
 71 72  1  0  0  0  0
 72 73  1  0  0  0  0
 73 74  1  0  0  0  0
 74 75  1  0  0  0  0
 75 76  1  0  0  0  0
 76 77  1  0  0  0  0
 77 78  1  0  0  0  0
 78 79  1  0  0  0  0
 79 80  1  0  0  0  0
 79 81  1  0  0  0  0
 81 82  2  0  0  0  0
 12  1  1  0  0  0  0
 19 15  2  0  0  0  0
 32 28  2  0  0  0  0
 52 41  1  0  0  0  0
 66 55  1  0  0  0  0
 80 69  1  0  0  0  0
 10  2  1  0  0  0  0
 25 18  1  0  0  0  0
 38 31  1  0  0  0  0
 50 42  1  0  0  0  0
 64 56  1  0  0  0  0
 78 70  1  0  0  0  0
  8  4  1  0  0  0  0
 48 44  1  0  0  0  0
 62 58  1  0  0  0  0
 76 72  1  0  0  0  0
  1 83  1  0  0  0  0
  2 84  1  0  0  0  0
  3 85  1  0  0  0  0
  3 86  1  0  0  0  0
  4 87  1  0  0  0  0
  5 88  1  0  0  0  0
  7 89  1  0  0  0  0
  8 90  1  0  0  0  0
  9 91  1  0  0  0  0
  9 92  1  0  0  0  0
 10 93  1  0  0  0  0
 13 94  1  0  0  0  0
 14 95  1  0  0  0  0
 20 96  1  0  0  0  0
 22 97  1  0  0  0  0
 22 98  1  0  0  0  0
 22 99  1  0  0  0  0
 24100  1  0  0  0  0
 24101  1  0  0  0  0
 24102  1  0  0  0  0
 25103  1  0  0  0  0
 26104  1  0  0  0  0
 27105  1  0  0  0  0
 33106  1  0  0  0  0
 35107  1  0  0  0  0
 35108  1  0  0  0  0
 35109  1  0  0  0  0
 37110  1  0  0  0  0
 37111  1  0  0  0  0
 37112  1  0  0  0  0
 38113  1  0  0  0  0
 39114  1  0  0  0  0
 40115  1  0  0  0  0
 42116  1  0  0  0  0
 43117  1  0  0  0  0
 43118  1  0  0  0  0
 44119  1  0  0  0  0
 45120  1  0  0  0  0
 47121  1  0  0  0  0
 48122  1  0  0  0  0
 49123  1  0  0  0  0
 49124  1  0  0  0  0
 50125  1  0  0  0  0
 53126  1  0  0  0  0
 54127  1  0  0  0  0
 56128  1  0  0  0  0
 57129  1  0  0  0  0
 57130  1  0  0  0  0
 58131  1  0  0  0  0
 59132  1  0  0  0  0
 61133  1  0  0  0  0
 62134  1  0  0  0  0
 63135  1  0  0  0  0
 63136  1  0  0  0  0
 64137  1  0  0  0  0
 67138  1  0  0  0  0
 68139  1  0  0  0  0
 70140  1  0  0  0  0
 71141  1  0  0  0  0
 71142  1  0  0  0  0
 72143  1  0  0  0  0
 73144  1  0  0  0  0
 75145  1  0  0  0  0
 76146  1  0  0  0  0
 77147  1  0  0  0  0
 77148  1  0  0  0  0
 78149  1  0  0  0  0
 81150  1  0  0  0  0
 82151  1  0  0  0  0
 82152  1  0  0  0  0
M  END
