180

C         -4.96930        6.48260       10.80230
C         -4.17090        5.38500       11.08600
C         -3.77520        4.52720       10.07770
Si        -2.70970        2.96960       10.15090
C         -3.50080        1.52380       11.12040
C         -3.52510        1.76170       12.62630
C         -0.92090        3.31700       10.72770
C         -0.01580        2.09450       10.62110
C         -2.90440        2.77220        8.28280
C         -3.70140        3.80880        7.76680
C         -4.18260        4.77440        8.75510
C         -4.98180        5.87530        8.47680
C         -5.37230        6.72290        9.49960
C         -3.96860        3.84650        6.40450
C         -3.45370        2.87410        5.56760
C         -2.66460        1.83950        6.06630
C         -2.40180        1.80690        7.43720
C         -2.11670        0.80620        5.18060
C         -2.05310       -0.52500        5.59780
C         -1.51520       -1.50040        4.78690
Si        -1.31230       -3.35380        5.09450
C         -2.98320       -4.27980        5.14930
C         -3.89270       -3.90210        3.98440
C         -0.20840       -3.76710        6.59570
C          0.15960       -5.24430        6.66940
C         -0.47390       -3.51600        3.40770
C         -0.45860       -2.26950        2.75250
C         -1.02400       -1.16060        3.51370
C         -1.09530        0.15990        3.08680
C         -1.63490        1.12770        3.91270
C          0.06390       -2.18430        1.46760
C          0.59260       -3.30130        0.85320
C          0.62230       -4.53680        1.50920
C          0.05280       -4.62430        2.78550
C          1.18180       -5.70500        0.87440
S          0.46240       -7.26030        1.12830
C          1.47960       -8.03230       -0.04590
C          2.42470       -7.12620       -0.52570
C          2.24690       -5.80180       -0.01890
C          3.14880       -4.79330       -0.42490
C          4.13550       -5.05820       -1.33250
C          5.06200       -3.96830       -1.77690
C          4.29930       -6.37690       -1.85080
C          5.38020       -6.65710       -2.84810
C          3.47820       -7.38320       -1.42790
C          1.26570       -9.40310       -0.40130
C          1.27640       -9.92230       -1.65540
C          1.30000       -9.21290       -2.88650
S          0.92110       -7.52940       -2.97910
C          1.15240       -7.45210       -4.69280
C          1.45700       -8.72350       -5.19520
C          1.53880       -9.71980       -4.17350
C          1.86960      -11.03920       -4.53430
C          2.09830      -11.37490       -5.84160
C          2.44170      -12.78620       -6.20800
C          2.01220      -10.38260       -6.85940
C          2.26180      -10.75940       -8.28760
C          1.70240       -9.09040       -6.53130
C          1.08910       -6.19350       -5.34400
C          0.99810       -5.04240       -4.63900
C          0.93380       -3.68620       -5.10390
C          0.93480       -2.66740       -4.13770
C          0.86240       -1.34170       -4.48800
Si         0.85880        0.19970       -3.39890
C          2.52300        0.47580       -2.49700
C          2.79690       -0.58210       -1.43300
C         -0.61680        0.24210       -2.18400
C         -0.60790        1.46160       -1.26860
C          0.68110        1.26470       -4.95000
C          0.67450        0.44980       -6.09810
C          0.77640       -0.98290       -5.84630
C          0.78180       -1.98240       -6.81490
C          0.86150       -3.31100       -6.45020
C          0.56740        1.04050       -7.35130
C          0.46470        2.41330       -7.46580
C          0.46130        3.23090       -6.33710
C          0.57320        2.63260       -5.08060
C          0.33730        4.68710       -6.46810
C         -0.46640        5.41530       -5.58940
C         -0.59580        6.78280       -5.71170
Si        -1.61580        8.00010       -4.68510
C         -1.04760        8.11870       -2.86670
C          0.45830        8.32380       -2.74750
C         -3.49830        7.72400       -4.83590
C         -3.95020        7.62910       -6.28870
C         -0.97640        9.41110       -5.76970
C         -0.11350        8.91200       -6.76140
C          0.09480        7.46380       -6.72970
C          0.89860        6.74520       -7.60470
C          1.01350        5.37390       -7.47450
C          0.46500        9.78600       -7.67210
C          0.19100       11.14140       -7.59950
C         -0.65740       11.63460       -6.62270
C         -1.23870       10.76670       -5.71060
H         -5.27610        7.15010       11.59480
H         -3.85300        5.20070       12.10270
H         -4.52040        1.36030       10.76860
H         -2.95080        0.60480       10.91300
H         -3.97550        0.91690       13.14520
H         -2.51760        1.89780       13.01190
H         -4.10360        2.65160       12.86170
H         -0.49540        4.12890       10.13620
H         -0.93450        3.66240       11.76230
H          0.99200        2.32800       10.96100
H         -0.39710        1.27780       11.22940
H          0.04460        1.75340        9.59070
H         -5.30470        6.08000        7.46650
H         -5.99480        7.57840        9.27850
H         -4.58240        4.63060        5.98550
H         -3.68530        2.90340        4.51240
H         -1.77650        1.02110        7.83680
H         -2.44850       -0.79660        6.56630
H         -3.49430       -4.06490        6.08870
H         -2.80770       -5.35600        5.12920
H         -3.41380       -4.13550        3.03630
H         -4.83520       -4.44440        4.03540
H         -4.10840       -2.83620        3.99930
H          0.70510       -3.17320        6.55340
H         -0.72340       -3.48170        7.51360
H         -0.73350       -5.86010        6.74180
H          0.78190       -5.44570        7.54000
H          0.71090       -5.54420        5.78200
H         -0.72370        0.44470        2.11320
H         -1.66090        2.15590        3.58080
H          0.04800       -1.24580        0.93240
H          0.95360       -3.23080       -0.16150
H          0.04160       -5.58330        3.28500
H          3.06550       -3.80740        0.00720
H          4.94320       -3.78020       -2.84410
H          4.85560       -3.04660       -1.23910
H          6.10050       -4.24640       -1.60210
H          5.35280       -7.69910       -3.15720
H          5.25430       -6.03130       -3.73110
H          6.36300       -6.44600       -2.42700
H          3.62340       -8.39250       -1.78470
H          1.04150      -10.07280        0.42010
H          1.20560      -10.99870       -1.74950
H          1.94010      -11.79450       -3.76490
H          2.46790      -13.41680       -5.32280
H          3.41600      -12.83210       -6.69390
H          1.70650      -13.19400       -6.90110
H          3.26680      -11.16230       -8.41060
H          1.55640      -11.52350       -8.61300
H          2.15560       -9.89360       -8.93640
H          1.63920       -8.33720       -7.30310
H          1.15050       -6.19260       -6.42290
H          0.98310       -5.13610       -3.55830
H          0.99010       -2.94460       -3.09360
H          2.53070        1.46290       -2.03320
H          3.33770        0.46900       -3.22270
H          2.82000       -1.57200       -1.88180
H          3.75520       -0.40290       -0.94690
H          2.02500       -0.57210       -0.66740
H         -1.55380        0.22140       -2.74210
H         -0.60400       -0.66270       -1.57420
H         -1.46090        1.44320       -0.59110
H         -0.65800        2.37830       -1.85110
H          0.30070        1.49080       -0.67140
H          0.71900       -1.72770       -7.86310
H          0.85790       -4.07250       -7.21610
H          0.55860        0.43400       -8.24530
H          0.36120        2.86070       -8.44420
H          0.59700        3.25740       -4.19870
H         -1.01340        4.89400       -4.81620
H         -1.56300        8.94290       -2.37290
H         -1.33100        7.21190       -2.33170
H          0.99300        7.49600       -3.20730
H          0.76150        8.39190       -1.70400
H          0.75870        9.23900       -3.25230
H         -3.78040        6.81070       -4.31150
H         -4.03090        8.53970       -4.34620
H         -5.02600        7.47430       -6.35310
H         -3.45400        6.80030       -6.78820
H         -3.70230        8.54210       -6.82520
H          1.44200        7.24730       -8.39190
H          1.65510        4.82640       -8.15030
H          1.12960        9.41980       -8.44090
H          0.64320       11.81800       -8.31070
H         -0.86530       12.69380       -6.57250
H         -1.90160       11.15170       -4.94830
