100

C          0.57320       -1.31400       -0.74470
S         -0.37540       -0.11070        0.01300
C          0.88570        0.30540        1.13450
C          1.98540       -0.54340        0.94080
C          1.81260       -1.44190       -0.15930
C          2.85610       -2.32510       -0.51250
C          4.00610       -2.36560        0.21990
C          5.09940       -3.32160       -0.14370
C          4.16720       -1.49830        1.34270
C          5.42160       -1.57330        2.15770
C          3.18700       -0.60280        1.67260
C          0.77960        1.30290        2.13680
C         -0.10520        2.32320        2.29430
C         -1.12870        2.77460        1.42060
S         -2.58950        3.38680        2.13400
C         -3.42970        3.44180        0.61610
C         -2.52810        3.17950       -0.43350
C         -1.22780        2.81860        0.02490
C         -0.20500        2.59270       -0.91610
C         -0.46480        2.64510       -2.26020
C          0.62540        2.36990       -3.24850
C         -1.77410        2.95630       -2.71840
C         -2.04590        3.02790       -4.18850
C         -2.77240        3.22140       -1.81730
C         -4.80070        3.75700        0.47720
C         -5.81060        3.81660        1.38710
C         -5.88080        3.45660        2.76670
S         -7.01290        4.36730        3.75040
C         -6.60510        3.46560        5.15210
C         -5.69210        2.49970        4.89460
C         -5.28320        2.46540        3.53430
N         -4.45170        1.48850        3.03290
C         -3.45040        0.89480        3.74920
C         -2.55420        0.02370        3.24890
C         -1.42880       -0.44000        3.99750
S         -0.95750        0.34940        5.48090
C          0.42490       -0.66030        5.63720
C          0.52990       -1.55270        4.62450
C         -0.52460       -1.44120        3.67990
N         -0.67900       -2.25700        2.58240
C          0.20730       -3.17630        2.11490
C          0.02480       -3.85180        0.96400
C          0.96760       -4.76930        0.41350
S          2.32910       -5.36140        1.32020
C          2.89810       -6.26400       -0.03290
C          2.09140       -6.13390       -1.11350
C          0.98830       -5.27800       -0.87220
N          0.01230       -4.97900       -1.82710
C          0.27040       -4.38210       -3.04110
C          1.48020       -4.17800       -3.59040
C          1.69870       -3.55000       -4.86470
S          3.07090       -4.02820       -5.83000
C          2.62890       -2.93830       -7.08250
C          1.51430       -2.23020       -6.77900
C          0.97570       -2.56390       -5.50780
N         -0.09920       -1.92250       -4.92100
C         -1.06710       -1.19350       -5.55490
C         -2.03950       -0.53930       -4.92360
H          0.17510       -1.87080       -1.56910
H          2.71870       -2.97080       -1.36620
H          5.29860       -4.00560        0.68060
H          6.02280       -2.78770       -0.36560
H          4.81910       -3.90640       -1.01620
H          6.29630       -1.36870        1.54110
H          5.54180       -2.56940        2.58290
H          5.39570       -0.85130        2.97020
H          3.32820        0.05890        2.51500
H          1.51890        1.19760        2.92180
H         -0.08220        2.83130        3.25160
H          0.79850        2.40590       -0.56310
H          0.78580        3.22860       -3.89940
H          1.55750        2.14260       -2.73700
H          0.36100        1.52100       -3.87940
H         -3.09440        3.24600       -4.37600
H         -1.44290        3.80940       -4.65060
H         -1.79320        2.08450       -4.67090
H         -3.75660        3.48630       -2.17540
H         -5.07800        4.02110       -0.53640
H         -6.73160        4.26010        1.02550
H         -7.07770        3.69820        6.08520
H         -5.33830        1.80810        5.63720
H         -4.43830        1.37500        2.02900
H         -3.37210        1.21080        4.77860
H         -2.63620       -0.29930        2.21850
H          1.07360       -0.53620        6.48080
H          1.32880       -2.26730        4.55340
H         -1.48320       -2.06890        2.00070
H          1.09400       -3.33850        2.70610
H         -0.86270       -3.65170        0.37640
H          3.79030       -6.84860        0.06540
H          2.25310       -6.63740       -2.04930
H         -0.90600       -4.80300       -1.44770
H         -0.62880       -4.11220       -3.57890
H          2.36710       -4.53710       -3.08910
H          3.23140       -2.88100       -7.96650
H          1.09840       -1.48030       -7.42730
H         -0.15580       -1.98300       -3.91460
H         -1.00760       -1.20170       -6.63330
H         -2.79840       -0.01460       -5.47140
H         -2.11240       -0.52520       -3.84880
