
  xtb     03042220413D
 energy: -145.157441928258 gnorm: 0.000272747213 xtb: 6.4.1 (unknown)
 84 91  0     0  0            999 V2000
    4.1204   -0.7623    5.9478 C   0  0  0  0  0  0  0  0  0  0  0  0
    2.4175   -0.5139    5.8372 S   0  0  0  0  0  0  0  0  0  0  0  0
    2.2672   -1.6836    4.5492 C   0  0  0  0  0  0  0  0  0  0  0  0
    3.5203   -2.2278    4.2538 C   0  0  0  0  0  0  0  0  0  0  0  0
    4.5565   -1.6792    5.0582 C   0  0  0  0  0  0  0  0  0  0  0  0
    3.7941   -3.3193    3.3430 C   0  0  0  0  0  0  0  0  0  0  0  0
    4.8996   -3.6881    3.0176 O   0  0  0  0  0  0  0  0  0  0  0  0
    1.0259   -1.8931    3.9037 C   0  0  0  0  0  0  0  0  0  0  0  0
    0.9830   -2.4885    2.2698 S   0  0  0  0  0  0  0  0  0  0  0  0
   -0.7425   -2.4195    2.1676 C   0  0  0  0  0  0  0  0  0  0  0  0
   -1.2731   -1.9262    3.3800 C   0  0  0  0  0  0  0  0  0  0  0  0
   -0.2797   -1.6266    4.3560 C   0  0  0  0  0  0  0  0  0  0  0  0
   -0.6883   -1.1633    5.6196 C   0  0  0  0  0  0  0  0  0  0  0  0
   -2.0141   -0.9640    5.9035 C   0  0  0  0  0  0  0  0  0  0  0  0
   -2.4253   -0.4726    7.2559 C   0  0  0  0  0  0  0  0  0  0  0  0
   -3.0012   -1.2248    4.9152 C   0  0  0  0  0  0  0  0  0  0  0  0
   -4.4466   -0.9876    5.2223 C   0  0  0  0  0  0  0  0  0  0  0  0
   -2.6252   -1.7022    3.6865 C   0  0  0  0  0  0  0  0  0  0  0  0
   -1.5079   -2.9635    1.1165 C   0  0  0  0  0  0  0  0  0  0  0  0
   -1.1486   -3.4705   -0.0997 C   0  0  0  0  0  0  0  0  0  0  0  0
    0.0470   -3.3784   -0.8428 C   0  0  0  0  0  0  0  0  0  0  0  0
    1.1938   -2.0866   -0.7035 S   0  0  0  0  0  0  0  0  0  0  0  0
    2.1593   -2.6532   -2.0246 C   0  0  0  0  0  0  0  0  0  0  0  0
    1.6158   -3.8389   -2.5490 C   0  0  0  0  0  0  0  0  0  0  0  0
    0.4070   -4.2284   -1.9085 C   0  0  0  0  0  0  0  0  0  0  0  0
   -0.2582   -5.3851   -2.3479 C   0  0  0  0  0  0  0  0  0  0  0  0
    0.2385   -6.1287   -3.3871 C   0  0  0  0  0  0  0  0  0  0  0  0
   -0.4844   -7.3562   -3.8464 C   0  0  0  0  0  0  0  0  0  0  0  0
    1.4443   -5.7356   -4.0311 C   0  0  0  0  0  0  0  0  0  0  0  0
    1.9835   -6.5545   -5.1619 C   0  0  0  0  0  0  0  0  0  0  0  0
    2.1079   -4.6107   -3.6162 C   0  0  0  0  0  0  0  0  0  0  0  0
    3.4004   -2.0756   -2.3933 C   0  0  0  0  0  0  0  0  0  0  0  0
    3.8479   -0.7987   -2.2895 C   0  0  0  0  0  0  0  0  0  0  0  0
    3.1473    0.4153   -2.0401 C   0  0  0  0  0  0  0  0  0  0  0  0
    1.4133    0.6060   -2.0994 S   0  0  0  0  0  0  0  0  0  0  0  0
    1.5195    2.3352   -1.9323 C   0  0  0  0  0  0  0  0  0  0  0  0
    2.8511    2.7338   -1.8223 C   0  0  0  0  0  0  0  0  0  0  0  0
    3.7440    1.6460   -1.8946 C   0  0  0  0  0  0  0  0  0  0  0  0
    3.3326    4.0915   -1.6255 C   0  0  0  0  0  0  0  0  0  0  0  0
    4.4953    4.4099   -1.5860 O   0  0  0  0  0  0  0  0  0  0  0  0
    0.3028    3.0721   -1.9562 C   0  0  0  0  0  0  0  0  0  0  0  0
    0.2148    4.8100   -2.1252 S   0  0  0  0  0  0  0  0  0  0  0  0
   -1.5198    4.7872   -2.1238 C   0  0  0  0  0  0  0  0  0  0  0  0
   -1.9997    3.4906   -1.9779 C   0  0  0  0  0  0  0  0  0  0  0  0
   -0.9624    2.5388   -1.9036 C   0  0  0  0  0  0  0  0  0  0  0  0
   -3.3979    3.1221   -1.7959 C   0  0  0  0  0  0  0  0  0  0  0  0
   -3.8219    1.9938   -1.8220 O   0  0  0  0  0  0  0  0  0  0  0  0
   -2.2462    6.0023   -2.3136 C   0  0  0  0  0  0  0  0  0  0  0  0
   -1.5666    7.5305   -1.7955 S   0  0  0  0  0  0  0  0  0  0  0  0
   -2.9242    8.3788   -2.3683 C   0  0  0  0  0  0  0  0  0  0  0  0
   -3.8608    7.5527   -2.9436 C   0  0  0  0  0  0  0  0  0  0  0  0
   -3.4638    6.1931   -2.9121 C   0  0  0  0  0  0  0  0  0  0  0  0
   -5.1106    8.0309   -3.5270 C   0  0  0  0  0  0  0  0  0  0  0  0
   -5.4694    9.1799   -3.5609 O   0  0  0  0  0  0  0  0  0  0  0  0
    4.6797   -0.2082    6.6747 H   0  0  0  0  0  0  0  0  0  0  0  0
    5.5780   -1.9978    4.9561 H   0  0  0  0  0  0  0  0  0  0  0  0
    2.8961   -3.8494    2.9705 H   0  0  0  0  0  0  0  0  0  0  0  0
    0.0506   -0.9705    6.3808 H   0  0  0  0  0  0  0  0  0  0  0  0
   -3.0929   -1.1864    7.7372 H   0  0  0  0  0  0  0  0  0  0  0  0
   -2.9571    0.4745    7.1741 H   0  0  0  0  0  0  0  0  0  0  0  0
   -1.5560   -0.3273    7.8916 H   0  0  0  0  0  0  0  0  0  0  0  0
   -5.0666   -1.2256    4.3619 H   0  0  0  0  0  0  0  0  0  0  0  0
   -4.6151    0.0541    5.4928 H   0  0  0  0  0  0  0  0  0  0  0  0
   -4.7673   -1.6034    6.0618 H   0  0  0  0  0  0  0  0  0  0  0  0
   -3.3797   -1.9029    2.9408 H   0  0  0  0  0  0  0  0  0  0  0  0
   -2.5564   -3.0700    1.3660 H   0  0  0  0  0  0  0  0  0  0  0  0
   -1.9213   -4.0359   -0.6079 H   0  0  0  0  0  0  0  0  0  0  0  0
   -1.1705   -5.6920   -1.8585 H   0  0  0  0  0  0  0  0  0  0  0  0
    0.1552   -8.2338   -3.7606 H   0  0  0  0  0  0  0  0  0  0  0  0
   -1.3786   -7.5211   -3.2508 H   0  0  0  0  0  0  0  0  0  0  0  0
   -0.7773   -7.2610   -4.8915 H   0  0  0  0  0  0  0  0  0  0  0  0
    2.9013   -6.1191   -5.5484 H   0  0  0  0  0  0  0  0  0  0  0  0
    2.1949   -7.5711   -4.8321 H   0  0  0  0  0  0  0  0  0  0  0  0
    1.2594   -6.6137   -5.9736 H   0  0  0  0  0  0  0  0  0  0  0  0
    3.0196   -4.3102   -4.1107 H   0  0  0  0  0  0  0  0  0  0  0  0
    4.1038   -2.7909   -2.8045 H   0  0  0  0  0  0  0  0  0  0  0  0
    4.8957   -0.6340   -2.5093 H   0  0  0  0  0  0  0  0  0  0  0  0
    4.8084    1.7861   -1.8332 H   0  0  0  0  0  0  0  0  0  0  0  0
    2.5361    4.8504   -1.4983 H   0  0  0  0  0  0  0  0  0  0  0  0
   -1.1587    1.4875   -1.7889 H   0  0  0  0  0  0  0  0  0  0  0  0
   -4.0668    3.9791   -1.5870 H   0  0  0  0  0  0  0  0  0  0  0  0
   -2.9881    9.4445   -2.2683 H   0  0  0  0  0  0  0  0  0  0  0  0
   -4.0402    5.4011   -3.3544 H   0  0  0  0  0  0  0  0  0  0  0  0
   -5.7321    7.2204   -3.9554 H   0  0  0  0  0  0  0  0  0  0  0  0
  1  2  1  0  0  0  0
  2  3  1  0  0  0  0
  3  4  2  0  0  0  0
  4  5  1  0  0  0  0
  4  6  1  0  0  0  0
  6  7  2  0  0  0  0
  3  8  1  0  0  0  0
  8  9  1  0  0  0  0
  9 10  1  0  0  0  0
 10 11  2  0  0  0  0
 11 12  1  0  0  0  0
 12 13  1  0  0  0  0
 13 14  2  0  0  0  0
 14 15  1  0  0  0  0
 14 16  1  0  0  0  0
 16 17  1  0  0  0  0
 16 18  2  0  0  0  0
 10 19  1  0  0  0  0
 19 20  2  0  0  0  0
 20 21  1  0  0  0  0
 21 22  1  0  0  0  0
 22 23  1  0  0  0  0
 23 24  2  0  0  0  0
 24 25  1  0  0  0  0
 25 26  1  0  0  0  0
 26 27  2  0  0  0  0
 27 28  1  0  0  0  0
 27 29  1  0  0  0  0
 29 30  1  0  0  0  0
 29 31  2  0  0  0  0
 23 32  1  0  0  0  0
 32 33  2  0  0  0  0
 33 34  1  0  0  0  0
 34 35  1  0  0  0  0
 35 36  1  0  0  0  0
 36 37  2  0  0  0  0
 37 38  1  0  0  0  0
 37 39  1  0  0  0  0
 39 40  2  0  0  0  0
 36 41  1  0  0  0  0
 41 42  1  0  0  0  0
 42 43  1  0  0  0  0
 43 44  2  0  0  0  0
 44 45  1  0  0  0  0
 44 46  1  0  0  0  0
 46 47  2  0  0  0  0
 43 48  1  0  0  0  0
 48 49  1  0  0  0  0
 49 50  1  0  0  0  0
 50 51  2  0  0  0  0
 51 52  1  0  0  0  0
 51 53  1  0  0  0  0
 53 54  2  0  0  0  0
  5  1  2  0  0  0  0
 12  8  2  0  0  0  0
 25 21  2  0  0  0  0
 38 34  2  0  0  0  0
 45 41  2  0  0  0  0
 52 48  2  0  0  0  0
 18 11  1  0  0  0  0
 31 24  1  0  0  0  0
  1 55  1  0  0  0  0
  5 56  1  0  0  0  0
  6 57  1  0  0  0  0
 13 58  1  0  0  0  0
 15 59  1  0  0  0  0
 15 60  1  0  0  0  0
 15 61  1  0  0  0  0
 17 62  1  0  0  0  0
 17 63  1  0  0  0  0
 17 64  1  0  0  0  0
 18 65  1  0  0  0  0
 19 66  1  0  0  0  0
 20 67  1  0  0  0  0
 26 68  1  0  0  0  0
 28 69  1  0  0  0  0
 28 70  1  0  0  0  0
 28 71  1  0  0  0  0
 30 72  1  0  0  0  0
 30 73  1  0  0  0  0
 30 74  1  0  0  0  0
 31 75  1  0  0  0  0
 32 76  1  0  0  0  0
 33 77  1  0  0  0  0
 38 78  1  0  0  0  0
 39 79  1  0  0  0  0
 45 80  1  0  0  0  0
 46 81  1  0  0  0  0
 50 82  1  0  0  0  0
 52 83  1  0  0  0  0
 53 84  1  0  0  0  0
M  END
