194

C          3.94980       -3.99590       -3.08400
S          3.09150       -3.52240       -1.69060
C          4.53860       -3.39620       -0.72770
C          5.66330       -3.68080       -1.51720
C          5.30950       -4.04050       -2.85990
C          6.32100       -4.37840       -3.78690
C          7.63630       -4.33760       -3.42610
C          8.70490       -4.70060       -4.41020
C          7.99680       -3.92390       -2.10910
C          9.44380       -3.83140       -1.73440
C          7.03140       -3.60490       -1.19200
C          4.37010       -3.05390        0.63300
C          5.29490       -3.18590        1.62440
C          5.14770       -2.80570        2.97440
S          6.28410       -3.46870        4.11250
C          5.50470       -2.74010        5.48520
C          4.44500       -1.92280        5.05370
C          4.24780       -1.95140        3.63970
C          3.29940       -1.08070        3.07280
C          2.57300       -0.21760        3.85090
C          1.60990        0.73550        3.21310
C          2.77210       -0.18980        5.25750
C          2.02800        0.80080        6.09660
C          3.68880       -1.02900        5.83290
C          6.04630       -2.98550        6.76970
C          5.42500       -2.98620        7.98400
C          4.04140       -3.02400        8.27780
S          3.49740       -2.36670        9.79300
C          1.81720       -2.67480        9.44250
C          1.71080       -3.40440        8.25090
C          2.95560       -3.57980        7.57910
C          2.98590       -4.33660        6.39640
C          1.83950       -4.87400        5.87230
C          1.89550       -5.63360        4.58340
C          0.60710       -4.73570        6.56480
C         -0.63200       -5.37560        6.02080
C          0.56010       -4.03660        7.74370
C          0.84950       -2.19890       10.35520
C         -0.40630       -1.70750       10.12950
C         -1.05420       -1.33390        8.93680
S         -0.34130       -1.40190        7.36090
C         -1.67160       -0.58010        6.60390
C         -2.66760       -0.28160        7.54800
C         -2.32230       -0.71000        8.86210
C         -3.23460       -0.49900        9.90820
C         -4.44990        0.09390        9.67870
C         -5.40670        0.31290       10.80930
C         -4.81100        0.48110        8.36100
C         -6.15410        1.09140        8.10480
C         -3.93360        0.28900        7.32580
C         -1.59650       -0.36180        5.20910
C         -2.20970        0.62650        4.50900
C         -2.13580        0.75120        3.09330
C         -1.82480       -0.19490        2.15400
C         -1.87670        0.27870        0.82200
C         -1.67410       -0.44650       -0.36570
C         -1.49750       -1.90370       -0.36910
C         -0.48880       -2.51940       -1.10810
C         -0.39000       -3.89310       -1.15080
C         -1.29040       -4.71210       -0.47200
S         -1.09320       -6.45640       -0.68790
C         -1.56840       -7.18650        0.92230
C         -0.72250       -6.65030        2.05900
C         -2.29860       -4.08440        0.25300
F         -3.23490       -4.80360        0.91510
C         -2.39860       -2.70990        0.32070
C         -1.73250        0.27030       -1.55160
C         -2.03040        1.65450       -1.60790
C         -2.28150        2.37050       -0.42380
C         -2.63880        3.79400       -0.45510
C         -1.96940        4.72020        0.34300
C         -2.29020        6.05880        0.28510
C         -3.29770        6.53070       -0.55500
S         -3.63340        8.26570       -0.50770
C         -4.04450        8.70300       -2.23860
C         -2.94920        8.31100       -3.20860
C         -3.98420        5.58960       -1.31590
C         -3.65870        4.24880       -1.28520
F         -5.00610        5.95890       -2.12380
C         -2.18480        1.66320        0.76260
S         -2.49260        2.30500        2.35410
C         -2.03960        2.13960       -2.93850
C         -1.80120        1.17580       -3.87500
S         -1.52490       -0.39480       -3.15090
C         -1.76760        1.33750       -5.29330
C         -2.07720        2.45900       -6.00530
C         -1.94090        2.29890       -7.40780
C         -2.21860        3.23770       -8.41420
C         -2.65090        4.59920       -8.07670
C         -1.93190        5.37270       -7.16600
C         -2.36990        6.63070       -6.81210
C         -3.53350        7.16950       -7.35610
S         -4.01140        8.79070       -6.83100
C         -5.82810        8.66380       -6.62890
C         -6.22860        7.52400       -5.71470
C         -4.21180        6.40920       -8.30320
F         -5.31980        6.88930       -8.90750
C         -3.79400        5.14130       -8.65380
C         -2.06660        2.80850       -9.72490
C         -1.64980        1.49950      -10.06830
C         -1.38610        0.55710       -9.06340
C         -1.01760       -0.82970       -9.37070
C          0.06960       -1.43740       -8.74950
C          0.38660       -2.75820       -8.99710
C         -0.38140       -3.52510       -9.86570
S         -0.08040       -5.21940      -10.24800
C          0.85450       -5.82390       -8.79930
C          0.02830       -5.79290       -7.52810
C         -1.45480       -2.89720      -10.49900
C         -1.77820       -1.57920      -10.26600
F         -2.21410       -3.60250      -11.36110
C         -1.52540        0.98940       -7.75210
S         -1.29390        0.00740       -6.32910
C         -1.51470        1.34680      -11.48090
C         -1.82220        2.46820      -12.16260
S         -2.29720        3.78900      -11.15000
H          3.42170       -4.21690       -3.98980
H          6.03080       -4.66260       -4.78820
H          9.31260       -5.52190       -4.03250
H          8.26570       -5.00270       -5.35760
H          9.36650       -3.85390       -4.59020
H          9.55420       -3.49030       -0.70820
H          9.96750       -3.13480       -2.38840
H          9.92860       -4.80270       -1.82960
H          7.33000       -3.26290       -0.21430
H          3.37500       -2.71880        0.89030
H          6.22400       -3.69060        1.40090
H          3.18170       -1.04660        2.00170
H          1.91940        1.76500        3.39190
H          1.55740        0.57190        2.13910
H          0.61120        0.61710        3.62900
H          2.35220        1.81450        5.85900
H          0.95740        0.74580        5.91030
H          2.20770        0.61970        7.15320
H          3.87400       -0.97250        6.89350
H          7.11030       -3.19420        6.77460
H          6.06910       -2.97030        8.85570
H          3.93030       -4.51870        5.91070
H          1.54120       -6.65520        4.71540
H          2.91300       -5.66530        4.20190
H          1.26350       -5.15600        3.83580
H         -0.85560       -4.98960        5.02700
H         -0.50450       -6.45450        5.93620
H         -1.48240       -5.17700        6.66810
H         -0.35460       -3.99550        8.31610
H          1.19510       -2.14670       11.38170
H         -0.96990       -1.46070       11.02040
H         -2.98250       -0.81810       10.90870
H         -6.33840       -0.22460       10.63520
H         -4.97960       -0.03260       11.74740
H         -5.64860        1.37070       10.90810
H         -6.27830        1.31640        7.04860
H         -6.27090        2.01480        8.67130
H         -6.94990        0.41290        8.41030
H         -4.22450        0.55570        6.32210
H         -0.92980       -1.03240        4.67840
H         -2.74410        1.40680        5.02990
H         -1.57690       -1.20960        2.40650
H          0.23590       -1.92020       -1.63670
H          0.39420       -4.36360       -1.72180
H         -2.63030       -7.02130        1.08950
H         -1.39440       -8.25210        0.77220
H         -0.89520       -5.58440        2.19630
H          0.33460       -6.80660        1.85410
H         -0.98270       -7.16300        2.98290
H         -3.21510       -2.27810        0.87910
H         -1.17210        4.39050        0.99070
H         -1.75810        6.77410        0.89260
H         -4.16100        9.78590       -2.19710
H         -5.00250        8.25480       -2.49430
H         -2.84860        7.22850       -3.26660
H         -1.99550        8.73040       -2.89500
H         -3.18740        8.68900       -4.20110
H         -4.23330        3.56170       -1.88750
H         -2.20120        3.17200       -3.18770
H         -2.42010        3.36930       -5.54940
H         -1.01900        4.98380       -6.74090
H         -1.81590        7.22230       -6.09970
H         -6.28490        8.57610       -7.61250
H         -6.09570        9.62840       -6.19740
H         -5.98010        6.56190       -6.15850
H         -7.30300        7.55410       -5.54560
H         -5.72220        7.59980       -4.75520
H         -4.37530        4.58390       -9.37150
H          0.68930       -0.86490       -8.07660
H          1.24570       -3.18820       -8.50830
H          1.77680       -5.25090       -8.71050
H          1.10840       -6.84760       -9.07410
H          0.60170       -6.21070       -6.70290
H         -0.25800       -4.77490       -7.27130
H         -0.87690       -6.38200       -7.65470
H         -2.64050       -1.15500      -10.75620
H         -1.18150        0.43810      -11.94810
H         -1.80360        2.62040      -13.22410
