
  xtb     03042208443D
 energy: -418.503732355975 gnorm: 0.000253871190 xtb: 6.4.1 (unknown)
248271  0     0  0            999 V2000
   -0.4042   -3.4500   15.5741 C   0  0  0  0  0  0  0  0  0  0  0  0
    0.2055   -2.4547   14.9000 C   0  0  0  0  0  0  0  0  0  0  0  0
   -0.3199   -2.2728   13.5863 C   0  0  0  0  0  0  0  0  0  0  0  0
    0.0837   -1.3534   12.6099 C   0  0  0  0  0  0  0  0  0  0  0  0
    1.2278   -0.4472   12.7760 C   0  0  0  0  0  0  0  0  0  0  0  0
    2.4843   -0.9308   13.1359 C   0  0  0  0  0  0  0  0  0  0  0  0
    3.5795   -0.0933   13.1500 C   0  0  0  0  0  0  0  0  0  0  0  0
    3.4653    1.2562   12.8219 C   0  0  0  0  0  0  0  0  0  0  0  0
    4.9388    2.2348   12.8374 S   0  0  0  0  0  0  0  0  0  0  0  0
    4.7645    3.3008   11.3560 C   0  0  0  0  0  0  0  0  0  0  0  0
    4.5328    2.4987   10.0916 C   0  0  0  0  0  0  0  0  0  0  0  0
    2.1930    1.7382   12.5309 C   0  0  0  0  0  0  0  0  0  0  0  0
    1.9939    3.0484   12.2647 F   0  0  0  0  0  0  0  0  0  0  0  0
    1.0925    0.9075   12.4895 C   0  0  0  0  0  0  0  0  0  0  0  0
   -0.6209   -1.3681   11.4156 C   0  0  0  0  0  0  0  0  0  0  0  0
   -1.6730   -2.2726   11.1334 C   0  0  0  0  0  0  0  0  0  0  0  0
   -2.0552   -3.2148   12.1012 C   0  0  0  0  0  0  0  0  0  0  0  0
   -3.0783   -4.2295   11.8237 C   0  0  0  0  0  0  0  0  0  0  0  0
   -3.0069   -5.0120   10.6714 C   0  0  0  0  0  0  0  0  0  0  0  0
   -3.9353   -6.0028   10.4365 C   0  0  0  0  0  0  0  0  0  0  0  0
   -4.9772   -6.2455   11.3292 C   0  0  0  0  0  0  0  0  0  0  0  0
   -6.1249   -7.5259   10.9154 S   0  0  0  0  0  0  0  0  0  0  0  0
   -6.4176   -8.3750   12.5116 C   0  0  0  0  0  0  0  0  0  0  0  0
   -5.1297   -8.8810   13.1295 C   0  0  0  0  0  0  0  0  0  0  0  0
   -5.0575   -5.4325   12.4558 C   0  0  0  0  0  0  0  0  0  0  0  0
   -4.1209   -4.4530   12.7165 C   0  0  0  0  0  0  0  0  0  0  0  0
   -6.0688   -5.5749   13.3400 F   0  0  0  0  0  0  0  0  0  0  0  0
   -1.3803   -3.1713   13.3151 C   0  0  0  0  0  0  0  0  0  0  0  0
   -1.6585   -4.2317   14.6737 S   0  0  0  0  0  0  0  0  0  0  0  0
   -2.2077   -2.0717    9.8311 C   0  0  0  0  0  0  0  0  0  0  0  0
   -1.5733   -1.0928    9.1296 C   0  0  0  0  0  0  0  0  0  0  0  0
   -0.2820   -0.3414   10.0513 S   0  0  0  0  0  0  0  0  0  0  0  0
   -1.7851   -0.6330    7.7965 C   0  0  0  0  0  0  0  0  0  0  0  0
   -1.0292    0.3054    7.1603 C   0  0  0  0  0  0  0  0  0  0  0  0
   -1.4145    0.5376    5.8192 C   0  0  0  0  0  0  0  0  0  0  0  0
   -0.8340    1.4366    4.9087 C   0  0  0  0  0  0  0  0  0  0  0  0
    0.3398    2.2256    5.3008 C   0  0  0  0  0  0  0  0  0  0  0  0
    1.4419    1.6137    5.8995 C   0  0  0  0  0  0  0  0  0  0  0  0
    2.4992    2.3659    6.3632 C   0  0  0  0  0  0  0  0  0  0  0  0
    2.5041    3.7529    6.2408 C   0  0  0  0  0  0  0  0  0  0  0  0
    3.8832    4.6382    6.9120 S   0  0  0  0  0  0  0  0  0  0  0  0
    3.0876    6.0386    7.7858 C   0  0  0  0  0  0  0  0  0  0  0  0
    2.0628    5.5740    8.8008 C   0  0  0  0  0  0  0  0  0  0  0  0
    1.4344    4.3438    5.5755 C   0  0  0  0  0  0  0  0  0  0  0  0
    1.4051    5.6777    5.3726 F   0  0  0  0  0  0  0  0  0  0  0  0
    0.3611    3.6043    5.1202 C   0  0  0  0  0  0  0  0  0  0  0  0
   -1.4297    1.5241    3.6616 C   0  0  0  0  0  0  0  0  0  0  0  0
   -2.5657    0.7594    3.2954 C   0  0  0  0  0  0  0  0  0  0  0  0
   -3.1468   -0.1386    4.2079 C   0  0  0  0  0  0  0  0  0  0  0  0
   -4.3376   -0.9153    3.8479 C   0  0  0  0  0  0  0  0  0  0  0  0
   -5.4419   -0.2954    3.2687 C   0  0  0  0  0  0  0  0  0  0  0  0
   -6.5633   -1.0168    2.9086 C   0  0  0  0  0  0  0  0  0  0  0  0
   -6.6192   -2.3918    3.1115 C   0  0  0  0  0  0  0  0  0  0  0  0
   -7.9709   -3.4294    2.6812 S   0  0  0  0  0  0  0  0  0  0  0  0
   -9.0539   -2.3266    1.6965 C   0  0  0  0  0  0  0  0  0  0  0  0
  -10.1735   -3.1571    1.0978 C   0  0  0  0  0  0  0  0  0  0  0  0
   -5.5137   -2.9968    3.7143 C   0  0  0  0  0  0  0  0  0  0  0  0
   -4.3924   -2.2886    4.0801 C   0  0  0  0  0  0  0  0  0  0  0  0
   -5.5379   -4.3263    3.9354 F   0  0  0  0  0  0  0  0  0  0  0  0
   -2.5376   -0.2423    5.4503 C   0  0  0  0  0  0  0  0  0  0  0  0
   -3.0513   -1.2712    6.7684 S   0  0  0  0  0  0  0  0  0  0  0  0
   -2.9231    0.9729    1.9393 C   0  0  0  0  0  0  0  0  0  0  0  0
   -2.1016    1.8375    1.2857 C   0  0  0  0  0  0  0  0  0  0  0  0
   -0.8608    2.4954    2.3280 S   0  0  0  0  0  0  0  0  0  0  0  0
   -2.1360    2.1729   -0.1027 C   0  0  0  0  0  0  0  0  0  0  0  0
   -1.0857    2.4514   -0.9208 C   0  0  0  0  0  0  0  0  0  0  0  0
   -1.4565    2.6070   -2.2805 C   0  0  0  0  0  0  0  0  0  0  0  0
   -0.6173    2.8290   -3.3838 C   0  0  0  0  0  0  0  0  0  0  0  0
    0.8459    2.8263   -3.2668 C   0  0  0  0  0  0  0  0  0  0  0  0
    1.4946    1.7557   -2.6606 C   0  0  0  0  0  0  0  0  0  0  0  0
    2.8727    1.6961   -2.5937 C   0  0  0  0  0  0  0  0  0  0  0  0
    3.6523    2.7170   -3.1244 C   0  0  0  0  0  0  0  0  0  0  0  0
    5.4129    2.7904   -3.0716 S   0  0  0  0  0  0  0  0  0  0  0  0
    5.9257    1.0909   -2.6438 C   0  0  0  0  0  0  0  0  0  0  0  0
    5.7106    0.1221   -3.7900 C   0  0  0  0  0  0  0  0  0  0  0  0
    2.9878    3.7918   -3.7188 C   0  0  0  0  0  0  0  0  0  0  0  0
    3.7136    4.8063   -4.2296 F   0  0  0  0  0  0  0  0  0  0  0  0
    1.6150    3.8550   -3.8051 C   0  0  0  0  0  0  0  0  0  0  0  0
   -1.2339    2.9645   -4.6156 C   0  0  0  0  0  0  0  0  0  0  0  0
   -2.6386    2.9169   -4.7969 C   0  0  0  0  0  0  0  0  0  0  0  0
   -3.4797    2.6968   -3.6915 C   0  0  0  0  0  0  0  0  0  0  0  0
   -4.9392    2.6905   -3.8328 C   0  0  0  0  0  0  0  0  0  0  0  0
   -5.5872    3.7185   -4.5189 C   0  0  0  0  0  0  0  0  0  0  0  0
   -6.9610    3.7462   -4.6126 C   0  0  0  0  0  0  0  0  0  0  0  0
   -7.7469    2.7497   -4.0349 C   0  0  0  0  0  0  0  0  0  0  0  0
   -9.4969    2.8759   -4.2364 S   0  0  0  0  0  0  0  0  0  0  0  0
  -10.1599    2.1942   -2.6634 C   0  0  0  0  0  0  0  0  0  0  0  0
  -11.5290    2.7931   -2.4081 C   0  0  0  0  0  0  0  0  0  0  0  0
   -7.0871    1.7148   -3.3800 C   0  0  0  0  0  0  0  0  0  0  0  0
   -5.7125    1.6836   -3.2649 C   0  0  0  0  0  0  0  0  0  0  0  0
   -7.7802    0.6887   -2.8335 F   0  0  0  0  0  0  0  0  0  0  0  0
   -2.8580    2.5072   -2.4656 C   0  0  0  0  0  0  0  0  0  0  0  0
   -3.6631    2.1486   -0.9606 S   0  0  0  0  0  0  0  0  0  0  0  0
   -2.9996    2.9924   -6.1643 C   0  0  0  0  0  0  0  0  0  0  0  0
   -1.9293    3.0826   -7.0108 C   0  0  0  0  0  0  0  0  0  0  0  0
   -0.4025    3.1086   -6.1390 S   0  0  0  0  0  0  0  0  0  0  0  0
   -1.8931    3.0777   -8.4291 C   0  0  0  0  0  0  0  0  0  0  0  0
   -0.4931    2.4308   -9.2093 S   0  0  0  0  0  0  0  0  0  0  0  0
   -1.1531    2.6316  -10.7957 C   0  0  0  0  0  0  0  0  0  0  0  0
   -2.4300    3.2361  -10.7089 C   0  0  0  0  0  0  0  0  0  0  0  0
   -2.8504    3.4791   -9.3692 C   0  0  0  0  0  0  0  0  0  0  0  0
   -4.0886    4.1049   -9.1358 C   0  0  0  0  0  0  0  0  0  0  0  0
   -4.9061    4.4517  -10.1782 C   0  0  0  0  0  0  0  0  0  0  0  0
   -6.2194    5.1201   -9.9145 C   0  0  0  0  0  0  0  0  0  0  0  0
   -4.5043    4.1803  -11.5145 C   0  0  0  0  0  0  0  0  0  0  0  0
   -5.4040    4.5536  -12.6514 C   0  0  0  0  0  0  0  0  0  0  0  0
   -3.2912    3.5900  -11.7605 C   0  0  0  0  0  0  0  0  0  0  0  0
   -0.5067    2.2938  -11.9965 C   0  0  0  0  0  0  0  0  0  0  0  0
    0.6065    1.5574  -12.3115 C   0  0  0  0  0  0  0  0  0  0  0  0
    1.5022    0.7420  -11.5994 C   0  0  0  0  0  0  0  0  0  0  0  0
    1.4943    0.4180   -9.8931 S   0  0  0  0  0  0  0  0  0  0  0  0
    2.7841   -0.7363   -9.9919 C   0  0  0  0  0  0  0  0  0  0  0  0
    3.2324   -0.8574  -11.3214 C   0  0  0  0  0  0  0  0  0  0  0  0
    2.5233   -0.0196  -12.2238 C   0  0  0  0  0  0  0  0  0  0  0  0
    2.8830   -0.0359  -13.5815 C   0  0  0  0  0  0  0  0  0  0  0  0
    3.8945   -0.8425  -14.0377 C   0  0  0  0  0  0  0  0  0  0  0  0
    4.2624   -0.8390  -15.4891 C   0  0  0  0  0  0  0  0  0  0  0  0
    4.5965   -1.6826  -13.1335 C   0  0  0  0  0  0  0  0  0  0  0  0
    5.6965   -2.5657  -13.6345 C   0  0  0  0  0  0  0  0  0  0  0  0
    4.2640   -1.6799  -11.8040 C   0  0  0  0  0  0  0  0  0  0  0  0
    3.2671   -1.4471   -8.8793 C   0  0  0  0  0  0  0  0  0  0  0  0
    2.9045   -1.3017   -7.5773 C   0  0  0  0  0  0  0  0  0  0  0  0
    3.4517   -2.1105   -6.5460 C   0  0  0  0  0  0  0  0  0  0  0  0
    3.2581   -2.0274   -5.1921 C   0  0  0  0  0  0  0  0  0  0  0  0
    3.9680   -3.0016   -4.4434 C   0  0  0  0  0  0  0  0  0  0  0  0
    4.0520   -3.1617   -3.0495 C   0  0  0  0  0  0  0  0  0  0  0  0
    3.3310   -2.3117   -2.0949 C   0  0  0  0  0  0  0  0  0  0  0  0
    4.0133   -1.7209   -1.0345 C   0  0  0  0  0  0  0  0  0  0  0  0
    3.3526   -0.9693   -0.0824 C   0  0  0  0  0  0  0  0  0  0  0  0
    1.9756   -0.7931   -0.1482 C   0  0  0  0  0  0  0  0  0  0  0  0
    1.0068    0.1578    0.9742 S   0  0  0  0  0  0  0  0  0  0  0  0
    2.1457    0.5329    2.3474 C   0  0  0  0  0  0  0  0  0  0  0  0
    2.3948   -0.6753    3.2289 C   0  0  0  0  0  0  0  0  0  0  0  0
    1.3052   -1.3874   -1.2197 C   0  0  0  0  0  0  0  0  0  0  0  0
   -0.0337   -1.2318   -1.3151 F   0  0  0  0  0  0  0  0  0  0  0  0
    1.9534   -2.1248   -2.1848 C   0  0  0  0  0  0  0  0  0  0  0  0
    4.8628   -4.1893   -2.5819 C   0  0  0  0  0  0  0  0  0  0  0  0
    5.5788   -5.0664   -3.4275 C   0  0  0  0  0  0  0  0  0  0  0  0
    5.5158   -4.8959   -4.8177 C   0  0  0  0  0  0  0  0  0  0  0  0
    6.2604   -5.7700   -5.7338 C   0  0  0  0  0  0  0  0  0  0  0  0
    5.6126   -6.4301   -6.7758 C   0  0  0  0  0  0  0  0  0  0  0  0
    6.3179   -7.2434   -7.6366 C   0  0  0  0  0  0  0  0  0  0  0  0
    7.6903   -7.4331   -7.4930 C   0  0  0  0  0  0  0  0  0  0  0  0
    8.4866   -8.5367   -8.6262 S   0  0  0  0  0  0  0  0  0  0  0  0
   10.0425   -7.6687   -9.0502 C   0  0  0  0  0  0  0  0  0  0  0  0
    9.7810   -6.3004   -9.6469 C   0  0  0  0  0  0  0  0  0  0  0  0
    8.3200   -6.7847   -6.4355 C   0  0  0  0  0  0  0  0  0  0  0  0
    7.6290   -5.9572   -5.5736 C   0  0  0  0  0  0  0  0  0  0  0  0
    9.6440   -6.9462   -6.2128 F   0  0  0  0  0  0  0  0  0  0  0  0
    4.7133   -3.8682   -5.2847 C   0  0  0  0  0  0  0  0  0  0  0  0
    4.5323   -3.4370   -6.9605 S   0  0  0  0  0  0  0  0  0  0  0  0
    6.2611   -6.0778   -2.6880 C   0  0  0  0  0  0  0  0  0  0  0  0
    6.0811   -5.9659   -1.3571 C   0  0  0  0  0  0  0  0  0  0  0  0
    5.0765   -4.6306   -0.9041 S   0  0  0  0  0  0  0  0  0  0  0  0
   -0.2055   -3.7896   16.5719 H   0  0  0  0  0  0  0  0  0  0  0  0
    0.9954   -1.8498   15.3069 H   0  0  0  0  0  0  0  0  0  0  0  0
    2.6081   -1.9795   13.3599 H   0  0  0  0  0  0  0  0  0  0  0  0
    4.5570   -0.4762   13.3992 H   0  0  0  0  0  0  0  0  0  0  0  0
    5.7194    3.8250   11.3176 H   0  0  0  0  0  0  0  0  0  0  0  0
    3.9717    4.0241   11.5361 H   0  0  0  0  0  0  0  0  0  0  0  0
    3.5677    1.9946   10.1190 H   0  0  0  0  0  0  0  0  0  0  0  0
    4.5522    3.1617    9.2283 H   0  0  0  0  0  0  0  0  0  0  0  0
    5.3111    1.7482    9.9698 H   0  0  0  0  0  0  0  0  0  0  0  0
    0.1310    1.3345   12.2507 H   0  0  0  0  0  0  0  0  0  0  0  0
   -2.1944   -4.8650    9.9763 H   0  0  0  0  0  0  0  0  0  0  0  0
   -3.8669   -6.6173    9.5524 H   0  0  0  0  0  0  0  0  0  0  0  0
   -7.0731   -9.2013   12.2364 H   0  0  0  0  0  0  0  0  0  0  0  0
   -6.9541   -7.7037   13.1784 H   0  0  0  0  0  0  0  0  0  0  0  0
   -4.5975   -9.5231   12.4307 H   0  0  0  0  0  0  0  0  0  0  0  0
   -5.3545   -9.4520   14.0281 H   0  0  0  0  0  0  0  0  0  0  0  0
   -4.4779   -8.0531   13.4032 H   0  0  0  0  0  0  0  0  0  0  0  0
   -4.2353   -3.8512   13.6045 H   0  0  0  0  0  0  0  0  0  0  0  0
   -3.0377   -2.6276    9.4327 H   0  0  0  0  0  0  0  0  0  0  0  0
   -0.2251    0.8251    7.6494 H   0  0  0  0  0  0  0  0  0  0  0  0
    1.4635    0.5400    6.0045 H   0  0  0  0  0  0  0  0  0  0  0  0
    3.3386    1.8912    6.8475 H   0  0  0  0  0  0  0  0  0  0  0  0
    2.6539    6.7097    7.0474 H   0  0  0  0  0  0  0  0  0  0  0  0
    3.9258    6.5384    8.2712 H   0  0  0  0  0  0  0  0  0  0  0  0
    2.5072    4.8826    9.5130 H   0  0  0  0  0  0  0  0  0  0  0  0
    1.6753    6.4329    9.3448 H   0  0  0  0  0  0  0  0  0  0  0  0
    1.2285    5.0744    8.3114 H   0  0  0  0  0  0  0  0  0  0  0  0
   -0.4594    4.1170    4.6433 H   0  0  0  0  0  0  0  0  0  0  0  0
   -5.4337    0.7734    3.1171 H   0  0  0  0  0  0  0  0  0  0  0  0
   -7.3984   -0.4967    2.4689 H   0  0  0  0  0  0  0  0  0  0  0  0
   -8.4454   -1.8725    0.9146 H   0  0  0  0  0  0  0  0  0  0  0  0
   -9.4523   -1.5587    2.3602 H   0  0  0  0  0  0  0  0  0  0  0  0
   -9.7674   -3.9336    0.4541 H   0  0  0  0  0  0  0  0  0  0  0  0
  -10.8300   -2.5214    0.5074 H   0  0  0  0  0  0  0  0  0  0  0  0
  -10.7583   -3.6314    1.8825 H   0  0  0  0  0  0  0  0  0  0  0  0
   -3.5602   -2.8170    4.5170 H   0  0  0  0  0  0  0  0  0  0  0  0
   -3.7235    0.4544    1.4436 H   0  0  0  0  0  0  0  0  0  0  0  0
   -0.0731    2.5154   -0.5663 H   0  0  0  0  0  0  0  0  0  0  0  0
    0.9058    0.9493   -2.2553 H   0  0  0  0  0  0  0  0  0  0  0  0
    3.3327    0.8435   -2.1213 H   0  0  0  0  0  0  0  0  0  0  0  0
    6.9867    1.1961   -2.4167 H   0  0  0  0  0  0  0  0  0  0  0  0
    5.4046    0.7835   -1.7382 H   0  0  0  0  0  0  0  0  0  0  0  0
    6.0486   -0.8737   -3.5084 H   0  0  0  0  0  0  0  0  0  0  0  0
    4.6584    0.0641   -4.0578 H   0  0  0  0  0  0  0  0  0  0  0  0
    6.2686    0.4446   -4.6658 H   0  0  0  0  0  0  0  0  0  0  0  0
    1.1564    4.7098   -4.2766 H   0  0  0  0  0  0  0  0  0  0  0  0
   -5.0052    4.5201   -4.9478 H   0  0  0  0  0  0  0  0  0  0  0  0
   -7.4593    4.5514   -5.1300 H   0  0  0  0  0  0  0  0  0  0  0  0
   -9.4579    2.4651   -1.8762 H   0  0  0  0  0  0  0  0  0  0  0  0
  -10.2140    1.1102   -2.7536 H   0  0  0  0  0  0  0  0  0  0  0  0
  -12.2101    2.5461   -3.2193 H   0  0  0  0  0  0  0  0  0  0  0  0
  -11.4638    3.8761   -2.3310 H   0  0  0  0  0  0  0  0  0  0  0  0
  -11.9357    2.3991   -1.4791 H   0  0  0  0  0  0  0  0  0  0  0  0
   -5.2562    0.8498   -2.7552 H   0  0  0  0  0  0  0  0  0  0  0  0
   -4.0120    2.8881   -6.5078 H   0  0  0  0  0  0  0  0  0  0  0  0
   -4.3830    4.3292   -8.1226 H   0  0  0  0  0  0  0  0  0  0  0  0
   -6.3721    5.2575   -8.8472 H   0  0  0  0  0  0  0  0  0  0  0  0
   -6.2590    6.0950  -10.3991 H   0  0  0  0  0  0  0  0  0  0  0  0
   -7.0407    4.5215  -10.3067 H   0  0  0  0  0  0  0  0  0  0  0  0
   -6.3635    4.0447  -12.5646 H   0  0  0  0  0  0  0  0  0  0  0  0
   -4.9545    4.2830  -13.6033 H   0  0  0  0  0  0  0  0  0  0  0  0
   -5.5973    5.6258  -12.6524 H   0  0  0  0  0  0  0  0  0  0  0  0
   -2.9944    3.3998  -12.7813 H   0  0  0  0  0  0  0  0  0  0  0  0
   -1.0178    2.6980  -12.8625 H   0  0  0  0  0  0  0  0  0  0  0  0
    0.8221    1.5495  -13.3733 H   0  0  0  0  0  0  0  0  0  0  0  0
    2.3637    0.5987  -14.2842 H   0  0  0  0  0  0  0  0  0  0  0  0
    3.6367   -0.1446  -16.0438 H   0  0  0  0  0  0  0  0  0  0  0  0
    4.1411   -1.8329  -15.9187 H   0  0  0  0  0  0  0  0  0  0  0  0
    5.3038   -0.5467  -15.6205 H   0  0  0  0  0  0  0  0  0  0  0  0
    6.4859   -1.9727  -14.0952 H   0  0  0  0  0  0  0  0  0  0  0  0
    6.1274   -3.1415  -12.8195 H   0  0  0  0  0  0  0  0  0  0  0  0
    5.3205   -3.2580  -14.3870 H   0  0  0  0  0  0  0  0  0  0  0  0
    4.8016   -2.3159  -11.1166 H   0  0  0  0  0  0  0  0  0  0  0  0
    4.0174   -2.1955   -9.1047 H   0  0  0  0  0  0  0  0  0  0  0  0
    2.1827   -0.5505   -7.2862 H   0  0  0  0  0  0  0  0  0  0  0  0
    2.6306   -1.2767   -4.7443 H   0  0  0  0  0  0  0  0  0  0  0  0
    5.0837   -1.8381   -0.9585 H   0  0  0  0  0  0  0  0  0  0  0  0
    3.9250   -0.5203    0.7129 H   0  0  0  0  0  0  0  0  0  0  0  0
    1.6352    1.3193    2.9037 H   0  0  0  0  0  0  0  0  0  0  0  0
    3.0634    0.9485    1.9342 H   0  0  0  0  0  0  0  0  0  0  0  0
    1.4564   -1.0259    3.6535 H   0  0  0  0  0  0  0  0  0  0  0  0
    2.8399   -1.4909    2.6625 H   0  0  0  0  0  0  0  0  0  0  0  0
    3.0681   -0.4052    4.0400 H   0  0  0  0  0  0  0  0  0  0  0  0
    1.3803   -2.5766   -2.9791 H   0  0  0  0  0  0  0  0  0  0  0  0
    4.5481   -6.3103   -6.9043 H   0  0  0  0  0  0  0  0  0  0  0  0
    5.8137   -7.7540   -8.4422 H   0  0  0  0  0  0  0  0  0  0  0  0
   10.6714   -7.6146   -8.1645 H   0  0  0  0  0  0  0  0  0  0  0  0
   10.5095   -8.3330   -9.7772 H   0  0  0  0  0  0  0  0  0  0  0  0
    9.1304   -6.3812  -10.5153 H   0  0  0  0  0  0  0  0  0  0  0  0
    9.3059   -5.6443   -8.9195 H   0  0  0  0  0  0  0  0  0  0  0  0
   10.7220   -5.8487   -9.9546 H   0  0  0  0  0  0  0  0  0  0  0  0
    8.1701   -5.4591   -4.7836 H   0  0  0  0  0  0  0  0  0  0  0  0
    6.8402   -6.8573   -3.1487 H   0  0  0  0  0  0  0  0  0  0  0  0
    6.4785   -6.5908   -0.5814 H   0  0  0  0  0  0  0  0  0  0  0  0
  1  2  2  0  0  0  0
  2  3  1  0  0  0  0
  3  4  2  0  0  0  0
  4  5  1  0  0  0  0
  5  6  2  0  0  0  0
  6  7  1  0  0  0  0
  7  8  2  0  0  0  0
  8  9  1  0  0  0  0
  9 10  1  0  0  0  0
 10 11  1  0  0  0  0
  8 12  1  0  0  0  0
 12 13  1  0  0  0  0
 12 14  2  0  0  0  0
  4 15  1  0  0  0  0
 15 16  2  0  0  0  0
 16 17  1  0  0  0  0
 17 18  1  0  0  0  0
 18 19  2  0  0  0  0
 19 20  1  0  0  0  0
 20 21  2  0  0  0  0
 21 22  1  0  0  0  0
 22 23  1  0  0  0  0
 23 24  1  0  0  0  0
 21 25  1  0  0  0  0
 25 26  2  0  0  0  0
 25 27  1  0  0  0  0
 17 28  2  0  0  0  0
 28 29  1  0  0  0  0
 16 30  1  0  0  0  0
 30 31  2  0  0  0  0
 31 32  1  0  0  0  0
 31 33  1  0  0  0  0
 33 34  2  0  0  0  0
 34 35  1  0  0  0  0
 35 36  2  0  0  0  0
 36 37  1  0  0  0  0
 37 38  2  0  0  0  0
 38 39  1  0  0  0  0
 39 40  2  0  0  0  0
 40 41  1  0  0  0  0
 41 42  1  0  0  0  0
 42 43  1  0  0  0  0
 40 44  1  0  0  0  0
 44 45  1  0  0  0  0
 44 46  2  0  0  0  0
 36 47  1  0  0  0  0
 47 48  2  0  0  0  0
 48 49  1  0  0  0  0
 49 50  1  0  0  0  0
 50 51  2  0  0  0  0
 51 52  1  0  0  0  0
 52 53  2  0  0  0  0
 53 54  1  0  0  0  0
 54 55  1  0  0  0  0
 55 56  1  0  0  0  0
 53 57  1  0  0  0  0
 57 58  2  0  0  0  0
 57 59  1  0  0  0  0
 49 60  2  0  0  0  0
 60 61  1  0  0  0  0
 48 62  1  0  0  0  0
 62 63  2  0  0  0  0
 63 64  1  0  0  0  0
 63 65  1  0  0  0  0
 65 66  2  0  0  0  0
 66 67  1  0  0  0  0
 67 68  2  0  0  0  0
 68 69  1  0  0  0  0
 69 70  2  0  0  0  0
 70 71  1  0  0  0  0
 71 72  2  0  0  0  0
 72 73  1  0  0  0  0
 73 74  1  0  0  0  0
 74 75  1  0  0  0  0
 72 76  1  0  0  0  0
 76 77  1  0  0  0  0
 76 78  2  0  0  0  0
 68 79  1  0  0  0  0
 79 80  2  0  0  0  0
 80 81  1  0  0  0  0
 81 82  1  0  0  0  0
 82 83  2  0  0  0  0
 83 84  1  0  0  0  0
 84 85  2  0  0  0  0
 85 86  1  0  0  0  0
 86 87  1  0  0  0  0
 87 88  1  0  0  0  0
 85 89  1  0  0  0  0
 89 90  2  0  0  0  0
 89 91  1  0  0  0  0
 81 92  2  0  0  0  0
 92 93  1  0  0  0  0
 80 94  1  0  0  0  0
 94 95  2  0  0  0  0
 95 96  1  0  0  0  0
 95 97  1  0  0  0  0
 97 98  1  0  0  0  0
 98 99  1  0  0  0  0
 99100  2  0  0  0  0
100101  1  0  0  0  0
101102  1  0  0  0  0
102103  2  0  0  0  0
103104  1  0  0  0  0
103105  1  0  0  0  0
105106  1  0  0  0  0
105107  2  0  0  0  0
 99108  1  0  0  0  0
108109  2  0  0  0  0
109110  1  0  0  0  0
110111  1  0  0  0  0
111112  1  0  0  0  0
112113  2  0  0  0  0
113114  1  0  0  0  0
114115  1  0  0  0  0
115116  2  0  0  0  0
116117  1  0  0  0  0
116118  1  0  0  0  0
118119  1  0  0  0  0
118120  2  0  0  0  0
112121  1  0  0  0  0
121122  2  0  0  0  0
122123  1  0  0  0  0
123124  2  0  0  0  0
124125  1  0  0  0  0
125126  2  0  0  0  0
126127  1  0  0  0  0
127128  2  0  0  0  0
128129  1  0  0  0  0
129130  2  0  0  0  0
130131  1  0  0  0  0
131132  1  0  0  0  0
132133  1  0  0  0  0
130134  1  0  0  0  0
134135  1  0  0  0  0
134136  2  0  0  0  0
126137  1  0  0  0  0
137138  2  0  0  0  0
138139  1  0  0  0  0
139140  1  0  0  0  0
140141  2  0  0  0  0
141142  1  0  0  0  0
142143  2  0  0  0  0
143144  1  0  0  0  0
144145  1  0  0  0  0
145146  1  0  0  0  0
143147  1  0  0  0  0
147148  2  0  0  0  0
147149  1  0  0  0  0
139150  2  0  0  0  0
150151  1  0  0  0  0
138152  1  0  0  0  0
152153  2  0  0  0  0
153154  1  0  0  0  0
 29  1  1  0  0  0  0
 61 33  1  0  0  0  0
 93 65  1  0  0  0  0
101 97  2  0  0  0  0
114110  2  0  0  0  0
151123  1  0  0  0  0
 28  3  1  0  0  0  0
 60 35  1  0  0  0  0
 92 67  1  0  0  0  0
107100  1  0  0  0  0
120113  1  0  0  0  0
150125  1  0  0  0  0
 14  5  1  0  0  0  0
 32 15  1  0  0  0  0
 46 37  1  0  0  0  0
 64 47  1  0  0  0  0
 78 69  1  0  0  0  0
 96 79  1  0  0  0  0
136127  1  0  0  0  0
154137  1  0  0  0  0
 26 18  1  0  0  0  0
 58 50  1  0  0  0  0
 90 82  1  0  0  0  0
148140  1  0  0  0  0
  1155  1  0  0  0  0
  2156  1  0  0  0  0
  6157  1  0  0  0  0
  7158  1  0  0  0  0
 10159  1  0  0  0  0
 10160  1  0  0  0  0
 11161  1  0  0  0  0
 11162  1  0  0  0  0
 11163  1  0  0  0  0
 14164  1  0  0  0  0
 19165  1  0  0  0  0
 20166  1  0  0  0  0
 23167  1  0  0  0  0
 23168  1  0  0  0  0
 24169  1  0  0  0  0
 24170  1  0  0  0  0
 24171  1  0  0  0  0
 26172  1  0  0  0  0
 30173  1  0  0  0  0
 34174  1  0  0  0  0
 38175  1  0  0  0  0
 39176  1  0  0  0  0
 42177  1  0  0  0  0
 42178  1  0  0  0  0
 43179  1  0  0  0  0
 43180  1  0  0  0  0
 43181  1  0  0  0  0
 46182  1  0  0  0  0
 51183  1  0  0  0  0
 52184  1  0  0  0  0
 55185  1  0  0  0  0
 55186  1  0  0  0  0
 56187  1  0  0  0  0
 56188  1  0  0  0  0
 56189  1  0  0  0  0
 58190  1  0  0  0  0
 62191  1  0  0  0  0
 66192  1  0  0  0  0
 70193  1  0  0  0  0
 71194  1  0  0  0  0
 74195  1  0  0  0  0
 74196  1  0  0  0  0
 75197  1  0  0  0  0
 75198  1  0  0  0  0
 75199  1  0  0  0  0
 78200  1  0  0  0  0
 83201  1  0  0  0  0
 84202  1  0  0  0  0
 87203  1  0  0  0  0
 87204  1  0  0  0  0
 88205  1  0  0  0  0
 88206  1  0  0  0  0
 88207  1  0  0  0  0
 90208  1  0  0  0  0
 94209  1  0  0  0  0
102210  1  0  0  0  0
104211  1  0  0  0  0
104212  1  0  0  0  0
104213  1  0  0  0  0
106214  1  0  0  0  0
106215  1  0  0  0  0
106216  1  0  0  0  0
107217  1  0  0  0  0
108218  1  0  0  0  0
109219  1  0  0  0  0
115220  1  0  0  0  0
117221  1  0  0  0  0
117222  1  0  0  0  0
117223  1  0  0  0  0
119224  1  0  0  0  0
119225  1  0  0  0  0
119226  1  0  0  0  0
120227  1  0  0  0  0
121228  1  0  0  0  0
122229  1  0  0  0  0
124230  1  0  0  0  0
128231  1  0  0  0  0
129232  1  0  0  0  0
132233  1  0  0  0  0
132234  1  0  0  0  0
133235  1  0  0  0  0
133236  1  0  0  0  0
133237  1  0  0  0  0
136238  1  0  0  0  0
141239  1  0  0  0  0
142240  1  0  0  0  0
145241  1  0  0  0  0
145242  1  0  0  0  0
146243  1  0  0  0  0
146244  1  0  0  0  0
146245  1  0  0  0  0
148246  1  0  0  0  0
152247  1  0  0  0  0
153248  1  0  0  0  0
M  END
