
  xtb     03042217253D
 energy: -365.149196509482 gnorm: 0.000712257223 xtb: 6.4.1 (unknown)
221241  0     0  0            999 V2000
    3.4149   -2.6439    8.8642 C   0  0  0  0  0  0  0  0  0  0  0  0
    3.1130   -2.1030    7.6671 C   0  0  0  0  0  0  0  0  0  0  0  0
    2.4316   -3.0109    6.8022 C   0  0  0  0  0  0  0  0  0  0  0  0
    2.0009   -2.7943    5.4847 C   0  0  0  0  0  0  0  0  0  0  0  0
    2.1024   -1.4702    4.8550 C   0  0  0  0  0  0  0  0  0  0  0  0
    1.5656   -0.3532    5.4882 C   0  0  0  0  0  0  0  0  0  0  0  0
    1.6142    0.8979    4.9033 C   0  0  0  0  0  0  0  0  0  0  0  0
    2.2161    1.0791    3.6637 C   0  0  0  0  0  0  0  0  0  0  0  0
    2.3441    2.6077    2.7910 S   0  0  0  0  0  0  0  0  0  0  0  0
    1.4481    3.8114    3.8329 C   0  0  0  0  0  0  0  0  0  0  0  0
    2.2796    4.3291    4.9931 C   0  0  0  0  0  0  0  0  0  0  0  0
    2.7594   -0.0488    3.0441 C   0  0  0  0  0  0  0  0  0  0  0  0
    3.3593    0.0945    1.8459 F   0  0  0  0  0  0  0  0  0  0  0  0
    2.7028   -1.3032    3.6094 C   0  0  0  0  0  0  0  0  0  0  0  0
    1.4268   -3.8750    4.8328 C   0  0  0  0  0  0  0  0  0  0  0  0
    1.2309   -5.1382    5.4458 C   0  0  0  0  0  0  0  0  0  0  0  0
    1.6501   -5.3496    6.7695 C   0  0  0  0  0  0  0  0  0  0  0  0
    1.4563   -6.6417    7.4378 C   0  0  0  0  0  0  0  0  0  0  0  0
    0.8459   -6.7144    8.6864 C   0  0  0  0  0  0  0  0  0  0  0  0
    0.6480   -7.9269    9.3177 C   0  0  0  0  0  0  0  0  0  0  0  0
    1.0669   -9.1137    8.7276 C   0  0  0  0  0  0  0  0  0  0  0  0
    0.8561  -10.7248    9.4106 S   0  0  0  0  0  0  0  0  0  0  0  0
    0.5294  -10.4173   11.1806 C   0  0  0  0  0  0  0  0  0  0  0  0
    1.7463   -9.8735   11.9043 C   0  0  0  0  0  0  0  0  0  0  0  0
    1.6772   -9.0265    7.4750 C   0  0  0  0  0  0  0  0  0  0  0  0
    1.8740   -7.8256    6.8319 C   0  0  0  0  0  0  0  0  0  0  0  0
    2.0922  -10.1575    6.8685 F   0  0  0  0  0  0  0  0  0  0  0  0
    2.2435   -4.2725    7.4132 C   0  0  0  0  0  0  0  0  0  0  0  0
    2.8949   -4.2869    9.0336 S   0  0  0  0  0  0  0  0  0  0  0  0
    0.5397   -6.0410    4.5977 C   0  0  0  0  0  0  0  0  0  0  0  0
    0.2143   -5.5188    3.3788 C   0  0  0  0  0  0  0  0  0  0  0  0
    0.7796   -3.8572    3.2159 S   0  0  0  0  0  0  0  0  0  0  0  0
   -0.4955   -6.0942    2.2867 C   0  0  0  0  0  0  0  0  0  0  0  0
   -0.3041   -5.3874    0.7203 S   0  0  0  0  0  0  0  0  0  0  0  0
   -1.4989   -6.4137   -0.0016 C   0  0  0  0  0  0  0  0  0  0  0  0
   -1.9900   -7.3233    0.9400 C   0  0  0  0  0  0  0  0  0  0  0  0
   -1.4264   -7.1412    2.2431 C   0  0  0  0  0  0  0  0  0  0  0  0
   -1.8789   -7.9650    3.2927 C   0  0  0  0  0  0  0  0  0  0  0  0
   -2.7897   -8.9608    3.0660 C   0  0  0  0  0  0  0  0  0  0  0  0
   -3.2476   -9.8304    4.1950 C   0  0  0  0  0  0  0  0  0  0  0  0
   -3.2947   -9.1855    1.7528 C   0  0  0  0  0  0  0  0  0  0  0  0
   -4.2545  -10.3070    1.5059 C   0  0  0  0  0  0  0  0  0  0  0  0
   -2.9039   -8.3729    0.7242 C   0  0  0  0  0  0  0  0  0  0  0  0
   -1.8803   -6.0920   -1.3316 C   0  0  0  0  0  0  0  0  0  0  0  0
   -3.0984   -6.2439   -1.8993 C   0  0  0  0  0  0  0  0  0  0  0  0
   -3.4027   -5.5680   -3.1245 C   0  0  0  0  0  0  0  0  0  0  0  0
   -2.5569   -5.2026   -4.1301 C   0  0  0  0  0  0  0  0  0  0  0  0
   -3.0732   -4.1845   -4.9713 C   0  0  0  0  0  0  0  0  0  0  0  0
   -2.3557   -3.4306   -5.9155 C   0  0  0  0  0  0  0  0  0  0  0  0
   -1.0141   -3.8421   -6.3501 C   0  0  0  0  0  0  0  0  0  0  0  0
   -0.7992   -5.1192   -6.8662 C   0  0  0  0  0  0  0  0  0  0  0  0
    0.4487   -5.4938   -7.3158 C   0  0  0  0  0  0  0  0  0  0  0  0
    1.5363   -4.6240   -7.2485 C   0  0  0  0  0  0  0  0  0  0  0  0
    3.0927   -5.2309   -7.8275 S   0  0  0  0  0  0  0  0  0  0  0  0
    3.8817   -3.7823   -8.6234 C   0  0  0  0  0  0  0  0  0  0  0  0
    3.0183   -3.1890   -9.7180 C   0  0  0  0  0  0  0  0  0  0  0  0
    1.3176   -3.3718   -6.6831 C   0  0  0  0  0  0  0  0  0  0  0  0
    2.3341   -2.4946   -6.5232 F   0  0  0  0  0  0  0  0  0  0  0  0
    0.0676   -2.9733   -6.2560 C   0  0  0  0  0  0  0  0  0  0  0  0
   -2.9310   -2.2361   -6.3162 C   0  0  0  0  0  0  0  0  0  0  0  0
   -4.2063   -1.8015   -5.8729 C   0  0  0  0  0  0  0  0  0  0  0  0
   -4.9661   -2.6087   -5.0095 C   0  0  0  0  0  0  0  0  0  0  0  0
   -6.2385   -2.1359   -4.4428 C   0  0  0  0  0  0  0  0  0  0  0  0
   -6.2947   -0.9252   -3.7524 C   0  0  0  0  0  0  0  0  0  0  0  0
   -7.4845   -0.4704   -3.2271 C   0  0  0  0  0  0  0  0  0  0  0  0
   -8.6593   -1.2076   -3.3567 C   0  0  0  0  0  0  0  0  0  0  0  0
  -10.1227   -0.5357   -2.6195 S   0  0  0  0  0  0  0  0  0  0  0  0
  -11.4273   -0.8695   -3.8597 C   0  0  0  0  0  0  0  0  0  0  0  0
  -11.1079   -0.2400   -5.2008 C   0  0  0  0  0  0  0  0  0  0  0  0
   -8.5775   -2.4380   -4.0003 C   0  0  0  0  0  0  0  0  0  0  0  0
   -7.3948   -2.8983   -4.5462 C   0  0  0  0  0  0  0  0  0  0  0  0
   -9.6663   -3.2292   -4.1179 F   0  0  0  0  0  0  0  0  0  0  0  0
   -4.3732   -3.7820   -4.5744 C   0  0  0  0  0  0  0  0  0  0  0  0
   -4.9715   -4.7798   -3.2724 S   0  0  0  0  0  0  0  0  0  0  0  0
   -4.4585   -0.4533   -6.2258 C   0  0  0  0  0  0  0  0  0  0  0  0
   -3.3974    0.1592   -6.8321 C   0  0  0  0  0  0  0  0  0  0  0  0
   -2.1254   -0.9850   -7.2294 S   0  0  0  0  0  0  0  0  0  0  0  0
   -3.0606    1.5452   -6.7329 C   0  0  0  0  0  0  0  0  0  0  0  0
   -3.6209    2.3954   -5.8189 C   0  0  0  0  0  0  0  0  0  0  0  0
   -2.7572    3.4410   -5.4202 C   0  0  0  0  0  0  0  0  0  0  0  0
   -2.8877    4.2434   -4.2749 C   0  0  0  0  0  0  0  0  0  0  0  0
   -4.0828    4.1327   -3.4199 C   0  0  0  0  0  0  0  0  0  0  0  0
   -4.3748    2.9139   -2.8103 C   0  0  0  0  0  0  0  0  0  0  0  0
   -5.4967    2.7736   -2.0215 C   0  0  0  0  0  0  0  0  0  0  0  0
   -6.3668    3.8400   -1.8181 C   0  0  0  0  0  0  0  0  0  0  0  0
   -7.7824    3.5819   -0.7771 S   0  0  0  0  0  0  0  0  0  0  0  0
   -9.1463    4.1663   -1.8490 C   0  0  0  0  0  0  0  0  0  0  0  0
   -9.3052    3.2921   -3.0772 C   0  0  0  0  0  0  0  0  0  0  0  0
   -6.0413    5.0608   -2.3992 C   0  0  0  0  0  0  0  0  0  0  0  0
   -6.8260    6.1413   -2.2018 F   0  0  0  0  0  0  0  0  0  0  0  0
   -4.9212    5.2157   -3.1941 C   0  0  0  0  0  0  0  0  0  0  0  0
   -1.7747    4.9647   -3.8924 C   0  0  0  0  0  0  0  0  0  0  0  0
   -0.5462    4.9461   -4.6044 C   0  0  0  0  0  0  0  0  0  0  0  0
   -0.4349    4.1845   -5.7809 C   0  0  0  0  0  0  0  0  0  0  0  0
    0.8274    4.0064   -6.5119 C   0  0  0  0  0  0  0  0  0  0  0  0
    1.9726    3.5441   -5.8702 C   0  0  0  0  0  0  0  0  0  0  0  0
    3.1212    3.2644   -6.5840 C   0  0  0  0  0  0  0  0  0  0  0  0
    3.1639    3.4363   -7.9627 C   0  0  0  0  0  0  0  0  0  0  0  0
    4.5746    3.0865   -8.9650 S   0  0  0  0  0  0  0  0  0  0  0  0
    5.4027    1.7338   -8.0560 C   0  0  0  0  0  0  0  0  0  0  0  0
    4.5417    0.4886   -7.9698 C   0  0  0  0  0  0  0  0  0  0  0  0
    2.0208    3.9336   -8.5876 C   0  0  0  0  0  0  0  0  0  0  0  0
    0.8650    4.2063   -7.8893 C   0  0  0  0  0  0  0  0  0  0  0  0
    2.0326    4.1400   -9.9189 F   0  0  0  0  0  0  0  0  0  0  0  0
   -1.5417    3.4358   -6.1460 C   0  0  0  0  0  0  0  0  0  0  0  0
   -1.5218    2.1464   -7.3271 S   0  0  0  0  0  0  0  0  0  0  0  0
    0.4841    5.5905   -3.8852 C   0  0  0  0  0  0  0  0  0  0  0  0
    0.1149    6.0178   -2.6336 C   0  0  0  0  0  0  0  0  0  0  0  0
   -1.6097    5.7875   -2.3639 S   0  0  0  0  0  0  0  0  0  0  0  0
    0.9955    6.4017   -1.5942 C   0  0  0  0  0  0  0  0  0  0  0  0
    2.7097    6.3200   -1.8902 S   0  0  0  0  0  0  0  0  0  0  0  0
    3.1056    6.4626   -0.2091 C   0  0  0  0  0  0  0  0  0  0  0  0
    1.9446    6.6716    0.5477 C   0  0  0  0  0  0  0  0  0  0  0  0
    0.7501    6.6471   -0.2351 C   0  0  0  0  0  0  0  0  0  0  0  0
   -0.4830    6.8721    0.4041 C   0  0  0  0  0  0  0  0  0  0  0  0
   -0.5443    7.1324    1.7472 C   0  0  0  0  0  0  0  0  0  0  0  0
   -1.8677    7.3779    2.4023 C   0  0  0  0  0  0  0  0  0  0  0  0
    0.6505    7.2023    2.5169 C   0  0  0  0  0  0  0  0  0  0  0  0
    0.5786    7.5551    3.9712 C   0  0  0  0  0  0  0  0  0  0  0  0
    1.8619    6.9723    1.9204 C   0  0  0  0  0  0  0  0  0  0  0  0
    4.4478    6.2999    0.2103 C   0  0  0  0  0  0  0  0  0  0  0  0
    4.8150    5.7011    1.3744 C   0  0  0  0  0  0  0  0  0  0  0  0
    6.1459    5.5419    1.8129 C   0  0  0  0  0  0  0  0  0  0  0  0
    7.4540    6.4586    1.1352 S   0  0  0  0  0  0  0  0  0  0  0  0
    8.6266    5.7521    2.1959 C   0  0  0  0  0  0  0  0  0  0  0  0
    8.0238    4.8134    3.0402 C   0  0  0  0  0  0  0  0  0  0  0  0
    6.6198    4.6885    2.8210 C   0  0  0  0  0  0  0  0  0  0  0  0
    5.8892    3.7367    3.5541 C   0  0  0  0  0  0  0  0  0  0  0  0
    6.5053    2.9513    4.4905 C   0  0  0  0  0  0  0  0  0  0  0  0
    5.7172    1.9254    5.2457 C   0  0  0  0  0  0  0  0  0  0  0  0
    7.8998    3.1016    4.7407 C   0  0  0  0  0  0  0  0  0  0  0  0
    8.5634    2.2478    5.7770 C   0  0  0  0  0  0  0  0  0  0  0  0
    8.6322    4.0093    4.0254 C   0  0  0  0  0  0  0  0  0  0  0  0
   10.0033    6.1272    2.1467 C   0  0  0  0  0  0  0  0  0  0  0  0
   10.5262    7.0243    1.3077 C   0  0  0  0  0  0  0  0  0  0  0  0
    3.9230   -2.1826    9.6884 H   0  0  0  0  0  0  0  0  0  0  0  0
    3.3739   -1.1003    7.3799 H   0  0  0  0  0  0  0  0  0  0  0  0
    1.0782   -0.4685    6.4448 H   0  0  0  0  0  0  0  0  0  0  0  0
    1.1686    1.7295    5.4241 H   0  0  0  0  0  0  0  0  0  0  0  0
    0.5190    3.3466    4.1600 H   0  0  0  0  0  0  0  0  0  0  0  0
    1.2077    4.6203    3.1416 H   0  0  0  0  0  0  0  0  0  0  0  0
    1.6852    5.0138    5.5950 H   0  0  0  0  0  0  0  0  0  0  0  0
    3.1536    4.8625    4.6270 H   0  0  0  0  0  0  0  0  0  0  0  0
    2.6222    3.5170    5.6306 H   0  0  0  0  0  0  0  0  0  0  0  0
    3.1371   -2.1374    3.0816 H   0  0  0  0  0  0  0  0  0  0  0  0
    0.4982   -5.8108    9.1632 H   0  0  0  0  0  0  0  0  0  0  0  0
    0.1519   -7.9392   10.2745 H   0  0  0  0  0  0  0  0  0  0  0  0
    0.2586  -11.4021   11.5615 H   0  0  0  0  0  0  0  0  0  0  0  0
   -0.3365   -9.7623   11.2696 H   0  0  0  0  0  0  0  0  0  0  0  0
    2.5788  -10.5668   11.8101 H   0  0  0  0  0  0  0  0  0  0  0  0
    2.0508   -8.9139   11.4917 H   0  0  0  0  0  0  0  0  0  0  0  0
    1.5201   -9.7422   12.9608 H   0  0  0  0  0  0  0  0  0  0  0  0
    2.3752   -7.8163    5.8766 H   0  0  0  0  0  0  0  0  0  0  0  0
    0.3125   -7.0482    4.8895 H   0  0  0  0  0  0  0  0  0  0  0  0
   -1.5070   -7.8050    4.2918 H   0  0  0  0  0  0  0  0  0  0  0  0
   -2.7800   -9.5276    5.1284 H   0  0  0  0  0  0  0  0  0  0  0  0
   -4.3289   -9.7702    4.3126 H   0  0  0  0  0  0  0  0  0  0  0  0
   -2.9925  -10.8722    4.0039 H   0  0  0  0  0  0  0  0  0  0  0  0
   -5.1585  -10.1782    2.1001 H   0  0  0  0  0  0  0  0  0  0  0  0
   -4.5337  -10.3486    0.4562 H   0  0  0  0  0  0  0  0  0  0  0  0
   -3.8087  -11.2613    1.7840 H   0  0  0  0  0  0  0  0  0  0  0  0
   -3.2759   -8.5443   -0.2740 H   0  0  0  0  0  0  0  0  0  0  0  0
   -1.1422   -5.5182   -1.8793 H   0  0  0  0  0  0  0  0  0  0  0  0
   -3.9184   -6.6897   -1.3571 H   0  0  0  0  0  0  0  0  0  0  0  0
   -1.5621   -5.5968   -4.2352 H   0  0  0  0  0  0  0  0  0  0  0  0
   -1.6263   -5.8092   -6.9393 H   0  0  0  0  0  0  0  0  0  0  0  0
    0.6068   -6.4754   -7.7348 H   0  0  0  0  0  0  0  0  0  0  0  0
    4.1312   -3.0499   -7.8590 H   0  0  0  0  0  0  0  0  0  0  0  0
    4.8027   -4.1992   -9.0314 H   0  0  0  0  0  0  0  0  0  0  0  0
    3.5674   -2.4010  -10.2295 H   0  0  0  0  0  0  0  0  0  0  0  0
    2.7445   -3.9514  -10.4443 H   0  0  0  0  0  0  0  0  0  0  0  0
    2.1071   -2.7592   -9.3065 H   0  0  0  0  0  0  0  0  0  0  0  0
   -0.0373   -1.9923   -5.8206 H   0  0  0  0  0  0  0  0  0  0  0  0
   -5.3937   -0.3465   -3.6166 H   0  0  0  0  0  0  0  0  0  0  0  0
   -7.5268    0.4702   -2.7004 H   0  0  0  0  0  0  0  0  0  0  0  0
  -11.5743   -1.9443   -3.9378 H   0  0  0  0  0  0  0  0  0  0  0  0
  -12.3159   -0.4208   -3.4156 H   0  0  0  0  0  0  0  0  0  0  0  0
  -11.9387   -0.3963   -5.8858 H   0  0  0  0  0  0  0  0  0  0  0  0
  -10.9402    0.8296   -5.0913 H   0  0  0  0  0  0  0  0  0  0  0  0
  -10.2155   -0.6867   -5.6358 H   0  0  0  0  0  0  0  0  0  0  0  0
   -7.3886   -3.8537   -5.0477 H   0  0  0  0  0  0  0  0  0  0  0  0
   -5.3593    0.0663   -5.9565 H   0  0  0  0  0  0  0  0  0  0  0  0
   -4.5682    2.2090   -5.3471 H   0  0  0  0  0  0  0  0  0  0  0  0
   -3.7073    2.0770   -2.9528 H   0  0  0  0  0  0  0  0  0  0  0  0
   -5.7184    1.8309   -1.5451 H   0  0  0  0  0  0  0  0  0  0  0  0
   -8.9657    5.2077   -2.1067 H   0  0  0  0  0  0  0  0  0  0  0  0
  -10.0250    4.1054   -1.2078 H   0  0  0  0  0  0  0  0  0  0  0  0
  -10.1405    3.6506   -3.6761 H   0  0  0  0  0  0  0  0  0  0  0  0
   -8.4048    3.3192   -3.6899 H   0  0  0  0  0  0  0  0  0  0  0  0
   -9.4998    2.2617   -2.7862 H   0  0  0  0  0  0  0  0  0  0  0  0
   -4.7138    6.1809   -3.6297 H   0  0  0  0  0  0  0  0  0  0  0  0
    1.9556    3.3690   -4.8052 H   0  0  0  0  0  0  0  0  0  0  0  0
    3.9892    2.9022   -6.0567 H   0  0  0  0  0  0  0  0  0  0  0  0
    5.7035    2.0970   -7.0742 H   0  0  0  0  0  0  0  0  0  0  0  0
    6.3001    1.5481   -8.6463 H   0  0  0  0  0  0  0  0  0  0  0  0
    5.0931   -0.3084   -7.4748 H   0  0  0  0  0  0  0  0  0  0  0  0
    3.6318    0.6794   -7.4047 H   0  0  0  0  0  0  0  0  0  0  0  0
    4.2626    0.1542   -8.9663 H   0  0  0  0  0  0  0  0  0  0  0  0
    0.0010    4.5716   -8.4223 H   0  0  0  0  0  0  0  0  0  0  0  0
    1.4927    5.6787   -4.2475 H   0  0  0  0  0  0  0  0  0  0  0  0
   -1.3915    6.8667   -0.1768 H   0  0  0  0  0  0  0  0  0  0  0  0
   -2.6744    7.2856    1.6801 H   0  0  0  0  0  0  0  0  0  0  0  0
   -2.0389    6.6610    3.2048 H   0  0  0  0  0  0  0  0  0  0  0  0
   -1.9030    8.3764    2.8368 H   0  0  0  0  0  0  0  0  0  0  0  0
    0.1456    8.5465    4.1001 H   0  0  0  0  0  0  0  0  0  0  0  0
    1.5706    7.5530    4.4159 H   0  0  0  0  0  0  0  0  0  0  0  0
   -0.0504    6.8486    4.5120 H   0  0  0  0  0  0  0  0  0  0  0  0
    2.7733    7.0583    2.4929 H   0  0  0  0  0  0  0  0  0  0  0  0
    5.2187    6.5900   -0.4928 H   0  0  0  0  0  0  0  0  0  0  0  0
    4.0519    5.2523    1.9947 H   0  0  0  0  0  0  0  0  0  0  0  0
    4.8391    3.6049    3.3466 H   0  0  0  0  0  0  0  0  0  0  0  0
    4.6873    1.9037    4.8990 H   0  0  0  0  0  0  0  0  0  0  0  0
    6.1442    0.9329    5.1068 H   0  0  0  0  0  0  0  0  0  0  0  0
    5.7222    2.1427    6.3140 H   0  0  0  0  0  0  0  0  0  0  0  0
    8.4809    1.1935    5.5144 H   0  0  0  0  0  0  0  0  0  0  0  0
    8.0922    2.3851    6.7497 H   0  0  0  0  0  0  0  0  0  0  0  0
    9.6174    2.4991    5.8647 H   0  0  0  0  0  0  0  0  0  0  0  0
    9.6921    4.1071    4.2084 H   0  0  0  0  0  0  0  0  0  0  0  0
   10.6433    5.6235    2.8590 H   0  0  0  0  0  0  0  0  0  0  0  0
   11.5747    7.2623    1.3180 H   0  0  0  0  0  0  0  0  0  0  0  0
    9.9163    7.5393    0.5842 H   0  0  0  0  0  0  0  0  0  0  0  0
  1  2  2  0  0  0  0
  2  3  1  0  0  0  0
  3  4  2  0  0  0  0
  4  5  1  0  0  0  0
  5  6  2  0  0  0  0
  6  7  1  0  0  0  0
  7  8  2  0  0  0  0
  8  9  1  0  0  0  0
  9 10  1  0  0  0  0
 10 11  1  0  0  0  0
  8 12  1  0  0  0  0
 12 13  1  0  0  0  0
 12 14  2  0  0  0  0
  4 15  1  0  0  0  0
 15 16  2  0  0  0  0
 16 17  1  0  0  0  0
 17 18  1  0  0  0  0
 18 19  2  0  0  0  0
 19 20  1  0  0  0  0
 20 21  2  0  0  0  0
 21 22  1  0  0  0  0
 22 23  1  0  0  0  0
 23 24  1  0  0  0  0
 21 25  1  0  0  0  0
 25 26  2  0  0  0  0
 25 27  1  0  0  0  0
 17 28  2  0  0  0  0
 28 29  1  0  0  0  0
 16 30  1  0  0  0  0
 30 31  2  0  0  0  0
 31 32  1  0  0  0  0
 31 33  1  0  0  0  0
 33 34  1  0  0  0  0
 34 35  1  0  0  0  0
 35 36  2  0  0  0  0
 36 37  1  0  0  0  0
 37 38  1  0  0  0  0
 38 39  2  0  0  0  0
 39 40  1  0  0  0  0
 39 41  1  0  0  0  0
 41 42  1  0  0  0  0
 41 43  2  0  0  0  0
 35 44  1  0  0  0  0
 44 45  2  0  0  0  0
 45 46  1  0  0  0  0
 46 47  2  0  0  0  0
 47 48  1  0  0  0  0
 48 49  2  0  0  0  0
 49 50  1  0  0  0  0
 50 51  2  0  0  0  0
 51 52  1  0  0  0  0
 52 53  2  0  0  0  0
 53 54  1  0  0  0  0
 54 55  1  0  0  0  0
 55 56  1  0  0  0  0
 53 57  1  0  0  0  0
 57 58  1  0  0  0  0
 57 59  2  0  0  0  0
 49 60  1  0  0  0  0
 60 61  2  0  0  0  0
 61 62  1  0  0  0  0
 62 63  1  0  0  0  0
 63 64  2  0  0  0  0
 64 65  1  0  0  0  0
 65 66  2  0  0  0  0
 66 67  1  0  0  0  0
 67 68  1  0  0  0  0
 68 69  1  0  0  0  0
 66 70  1  0  0  0  0
 70 71  2  0  0  0  0
 70 72  1  0  0  0  0
 62 73  2  0  0  0  0
 73 74  1  0  0  0  0
 61 75  1  0  0  0  0
 75 76  2  0  0  0  0
 76 77  1  0  0  0  0
 76 78  1  0  0  0  0
 78 79  2  0  0  0  0
 79 80  1  0  0  0  0
 80 81  2  0  0  0  0
 81 82  1  0  0  0  0
 82 83  2  0  0  0  0
 83 84  1  0  0  0  0
 84 85  2  0  0  0  0
 85 86  1  0  0  0  0
 86 87  1  0  0  0  0
 87 88  1  0  0  0  0
 85 89  1  0  0  0  0
 89 90  1  0  0  0  0
 89 91  2  0  0  0  0
 81 92  1  0  0  0  0
 92 93  2  0  0  0  0
 93 94  1  0  0  0  0
 94 95  1  0  0  0  0
 95 96  2  0  0  0  0
 96 97  1  0  0  0  0
 97 98  2  0  0  0  0
 98 99  1  0  0  0  0
 99100  1  0  0  0  0
100101  1  0  0  0  0
 98102  1  0  0  0  0
102103  2  0  0  0  0
102104  1  0  0  0  0
 94105  2  0  0  0  0
105106  1  0  0  0  0
 93107  1  0  0  0  0
107108  2  0  0  0  0
108109  1  0  0  0  0
108110  1  0  0  0  0
110111  1  0  0  0  0
111112  1  0  0  0  0
112113  2  0  0  0  0
113114  1  0  0  0  0
114115  1  0  0  0  0
115116  2  0  0  0  0
116117  1  0  0  0  0
116118  1  0  0  0  0
118119  1  0  0  0  0
118120  2  0  0  0  0
112121  1  0  0  0  0
121122  2  0  0  0  0
122123  1  0  0  0  0
123124  1  0  0  0  0
124125  1  0  0  0  0
125126  2  0  0  0  0
126127  1  0  0  0  0
127128  1  0  0  0  0
128129  2  0  0  0  0
129130  1  0  0  0  0
129131  1  0  0  0  0
131132  1  0  0  0  0
131133  2  0  0  0  0
125134  1  0  0  0  0
134135  2  0  0  0  0
 29  1  1  0  0  0  0
 37 33  2  0  0  0  0
 74 46  1  0  0  0  0
106 78  1  0  0  0  0
114110  2  0  0  0  0
127123  2  0  0  0  0
 28  3  1  0  0  0  0
 43 36  1  0  0  0  0
 73 48  1  0  0  0  0
105 80  1  0  0  0  0
120113  1  0  0  0  0
133126  1  0  0  0  0
 14  5  1  0  0  0  0
 32 15  1  0  0  0  0
 59 50  1  0  0  0  0
 77 60  1  0  0  0  0
 91 82  1  0  0  0  0
109 92  1  0  0  0  0
 26 18  1  0  0  0  0
 71 63  1  0  0  0  0
103 95  1  0  0  0  0
  1136  1  0  0  0  0
  2137  1  0  0  0  0
  6138  1  0  0  0  0
  7139  1  0  0  0  0
 10140  1  0  0  0  0
 10141  1  0  0  0  0
 11142  1  0  0  0  0
 11143  1  0  0  0  0
 11144  1  0  0  0  0
 14145  1  0  0  0  0
 19146  1  0  0  0  0
 20147  1  0  0  0  0
 23148  1  0  0  0  0
 23149  1  0  0  0  0
 24150  1  0  0  0  0
 24151  1  0  0  0  0
 24152  1  0  0  0  0
 26153  1  0  0  0  0
 30154  1  0  0  0  0
 38155  1  0  0  0  0
 40156  1  0  0  0  0
 40157  1  0  0  0  0
 40158  1  0  0  0  0
 42159  1  0  0  0  0
 42160  1  0  0  0  0
 42161  1  0  0  0  0
 43162  1  0  0  0  0
 44163  1  0  0  0  0
 45164  1  0  0  0  0
 47165  1  0  0  0  0
 51166  1  0  0  0  0
 52167  1  0  0  0  0
 55168  1  0  0  0  0
 55169  1  0  0  0  0
 56170  1  0  0  0  0
 56171  1  0  0  0  0
 56172  1  0  0  0  0
 59173  1  0  0  0  0
 64174  1  0  0  0  0
 65175  1  0  0  0  0
 68176  1  0  0  0  0
 68177  1  0  0  0  0
 69178  1  0  0  0  0
 69179  1  0  0  0  0
 69180  1  0  0  0  0
 71181  1  0  0  0  0
 75182  1  0  0  0  0
 79183  1  0  0  0  0
 83184  1  0  0  0  0
 84185  1  0  0  0  0
 87186  1  0  0  0  0
 87187  1  0  0  0  0
 88188  1  0  0  0  0
 88189  1  0  0  0  0
 88190  1  0  0  0  0
 91191  1  0  0  0  0
 96192  1  0  0  0  0
 97193  1  0  0  0  0
100194  1  0  0  0  0
100195  1  0  0  0  0
101196  1  0  0  0  0
101197  1  0  0  0  0
101198  1  0  0  0  0
103199  1  0  0  0  0
107200  1  0  0  0  0
115201  1  0  0  0  0
117202  1  0  0  0  0
117203  1  0  0  0  0
117204  1  0  0  0  0
119205  1  0  0  0  0
119206  1  0  0  0  0
119207  1  0  0  0  0
120208  1  0  0  0  0
121209  1  0  0  0  0
122210  1  0  0  0  0
128211  1  0  0  0  0
130212  1  0  0  0  0
130213  1  0  0  0  0
130214  1  0  0  0  0
132215  1  0  0  0  0
132216  1  0  0  0  0
132217  1  0  0  0  0
133218  1  0  0  0  0
134219  1  0  0  0  0
135220  1  0  0  0  0
135221  1  0  0  0  0
M  END
