116

C          2.77290       -1.87070        1.40530
S          1.96960       -0.49340        2.00670
C          1.57910        0.08640        0.40630
C          2.15140       -0.75550       -0.55360
C          2.79100       -1.90000        0.02470
C          3.35630       -2.88880       -0.81010
C          3.33830       -2.72830       -2.16770
C          3.90110       -3.76600       -3.08990
C          2.82200       -1.53200       -2.72090
C          2.25440       -0.56090       -1.94630
C          0.83310        1.28410        0.31310
C         -0.02640        1.73490       -0.64960
C         -0.64550        1.09720       -1.73790
S         -0.57060       -0.60400       -2.06670
C         -1.59100       -0.49740       -3.47270
C         -2.06970        0.83350       -3.61160
C         -1.51670        1.72980       -2.65780
C         -1.84830        3.09470       -2.71270
C         -2.73830        3.56020       -3.64780
C         -3.11810        5.00790       -3.70780
C         -3.30550        2.65720       -4.56810
C         -2.97440        1.32950       -4.56400
C         -1.79200       -1.49650       -4.42890
C         -1.27300       -2.75700       -4.63160
C         -0.49550       -3.62520       -3.85970
S         -0.23410       -3.48670       -2.15220
C          0.65110       -4.97280       -2.03690
C          0.75990       -5.56310       -3.32440
C          0.11050       -4.81640       -4.34240
C          0.14260       -5.27470       -5.66820
C          0.79020       -6.44270       -5.98850
C          0.83340       -6.95330       -7.39600
C          1.42790       -7.17730       -4.97100
C          1.41680       -6.75490       -3.66960
C          1.22090       -5.50230       -0.87680
C          1.23430       -5.14140        0.45190
C          0.62390       -4.13970        1.21580
S         -0.52150       -2.96450        0.64810
C         -0.72270       -2.24120        2.20320
C          0.06950       -2.89230        3.15860
C          0.83260       -3.96210        2.60790
C          1.68670       -4.69570        3.44960
C          1.78950       -4.38710        4.78170
C          2.69680       -5.15520        5.69310
C          1.02860       -3.32190        5.31200
C          0.18720       -2.58760        4.52900
C         -1.63170       -1.16610        2.40550
C         -2.39970       -0.61670        1.45530
C         -3.40230        0.43420        1.71880
S         -3.21810        1.42160        3.29500
C         -3.95490        2.56360        2.06040
C         -3.31070        1.76380        0.95420
N         -4.02930        2.24510       -0.20070
C         -4.14620        3.70170        0.05970
C         -3.77640        3.98760        1.55480
C         -2.39610        4.50990        1.77240
S         -1.35180        4.97040        0.48920
C         -0.02340        5.32040        1.54770
C         -0.40960        5.13690        2.87120
C         -1.76330        4.67060        2.99330
C         -2.31590        4.43440        4.27590
C         -1.57030        4.65690        5.39410
C         -2.11630        4.40950        6.76570
C         -0.24700        5.15810        5.26590
C          0.32180        5.39750        4.05440
C          1.21870        5.70070        0.93560
C          2.43740        5.59420        1.46280
H          3.19660       -2.58090        2.08650
H          3.80170       -3.76250       -0.35720
H          3.16890       -4.03590       -3.85010
H          4.17970       -4.66280       -2.54250
H          4.78410       -3.38060       -3.60010
H          2.89030       -1.39260       -3.79040
H          1.92470        0.36940       -2.38140
H          0.94710        1.93680        1.17250
H         -0.34820        2.76080       -0.51900
H         -1.39620        3.78410       -2.01580
H         -4.19200        5.12300       -3.56460
H         -2.60040        5.57970       -2.94150
H         -2.86670        5.42520       -4.68210
H         -4.01140        3.03290       -5.29450
H         -3.42210        0.66380       -5.28610
H         -2.42420       -1.15900       -5.24220
H         -1.51230       -3.16900       -5.60540
H         -0.34150       -4.70280       -6.44590
H          0.33060       -6.27020       -8.07590
H          1.86510       -7.07610       -7.72400
H          0.34760       -7.92670       -7.45890
H          1.93580       -8.09400       -5.23400
H          1.91580       -7.34050       -2.91260
H          1.79170       -6.40160       -1.07820
H          1.84760       -5.79480        1.06180
H          2.27340       -5.50870        3.04720
H          3.43290       -4.48970        6.14330
H          2.12410       -5.60990        6.50090
H          3.22110       -5.94070        5.15450
H          1.12550       -3.09330        6.36350
H         -0.38420       -1.77320        4.94630
H         -1.70960       -0.78640        3.41660
H         -2.34180       -0.95280        0.42750
H         -4.41960        0.02940        1.70200
H         -5.02810        2.35200        2.09340
H         -2.23280        2.00230        0.90980
H         -3.55730        2.06620       -1.08070
H         -5.18480        3.98940       -0.12640
H         -3.50760        4.28550       -0.60840
H         -4.49760        4.67980        2.00300
H         -3.33220        4.07910        4.35320
H         -3.12450        4.00720        6.71430
H         -2.13490        5.33550        7.34040
H         -1.48500        3.69930        7.29830
H          0.31040        5.36050        6.16950
H          1.31530        5.81050        3.98760
H          1.11900        6.06520       -0.08070
H          3.30600        5.90250        0.90750
H          2.61500        5.18070        2.43900
