236

C          4.42640        9.91950      -13.44890
C          5.35500        9.11190      -12.89810
C          4.82320        8.27780      -11.87150
C          5.49950        7.34530      -11.06860
C          6.90310        7.03560      -11.28800
S          8.07000        7.11350      -10.00290
C          9.36070        6.61420      -11.04080
C         10.76150        6.51900      -10.54520
C         11.49180        7.85410      -10.70980
C          8.89910        6.40620      -12.30660
Cl         9.88840        5.89820      -13.61390
C          7.50570        6.63950      -12.45000
Cl         6.66890        6.36650      -13.92400
C          4.76220        6.71720      -10.07380
C          3.37950        6.95010       -9.87650
C          2.70280        7.88460      -10.67790
C          1.29960        8.18660      -10.45420
S          0.13790        8.13490      -11.74610
C         -1.16120        8.59400      -10.70040
C         -2.56020        8.69180      -11.20010
C         -3.27500        7.34240      -11.09340
C         -0.70660        8.77000       -9.42720
C          0.68820        8.54440       -9.28360
Cl         1.51160        8.78590       -7.79640
Cl        -1.70550        9.22990       -8.10990
C          3.44390        8.51800      -11.66820
S          2.84970        9.73620      -12.76120
C          2.84670        6.12460       -8.85540
C          3.77530        5.32100       -8.26560
S          5.37070        5.52220       -8.96340
C          3.57170        4.40620       -7.19150
C          4.50730        3.64520       -6.55570
C          3.97590        2.85800       -5.50590
C          4.65570        1.94980       -4.67450
C          6.10150        1.82880       -4.72510
S          6.88510        0.28380       -4.87520
C          8.46210        0.99410       -4.85980
C          9.68790        0.16430       -5.01970
C         10.06280        0.02160       -6.49690
C          8.37070        2.34970       -4.74820
Cl         9.72850        3.39720       -4.69910
C          7.03590        2.82740       -4.66630
Cl         6.66610        4.48710       -4.42860
C          3.87860        1.18580       -3.81430
C          2.47260        1.32810       -3.71150
C          1.80310        2.29730       -4.48020
C          0.37130        2.52070       -4.36240
S         -0.77750        1.22220       -4.51770
C         -2.12930        2.28640       -4.34070
C         -3.53090        1.78340       -4.35870
C         -4.08520        1.65470       -2.93910
C         -1.70070        3.56610       -4.15000
C         -0.28710        3.70490       -4.16750
Cl         0.48640        5.20760       -3.88540
Cl        -2.75730        4.89780       -3.92230
C          2.57510        3.02860       -5.37460
S          1.96870        4.18330       -6.52540
C          1.92330        0.43430       -2.76140
C          2.85320       -0.35780       -2.15550
S          4.47840       -0.02440       -2.71450
C          2.60870       -1.37320       -1.18530
C          3.50100       -2.05740       -0.41620
C          2.89330       -2.99650        0.45580
C          3.50780       -3.78340        1.44870
C          4.91720       -3.62730        1.76260
S          5.99340       -4.99090        1.81490
C          7.35170       -4.00130        2.22410
C          8.71510       -4.58050        2.37220
C          9.43780       -4.62770        1.02370
C          6.97750       -2.69290        2.31030
Cl         8.05380       -1.41420        2.70040
C          5.59770       -2.47670        2.05380
Cl         4.86440       -0.92970        2.18490
C          2.69730       -4.67940        2.13120
C          1.31520       -4.81590        1.85600
C          0.66970       -3.93100        0.97440
C         -0.77900       -3.86290        0.88950
S         -1.59560       -3.69440       -0.63730
C         -3.14660       -3.52240        0.11010
C         -4.38520       -3.32340       -0.69270
C         -4.13320       -2.50410       -1.95350
C         -3.02500       -3.60480        1.46510
C         -1.69170       -3.80550        1.91040
Cl        -1.32210       -3.85420        3.58770
Cl        -4.33370       -3.42330        2.56530
C          1.48960       -3.05550        0.27300
S          0.95740       -1.88090       -0.89410
C          0.72100       -5.82500        2.64410
C          1.55350       -6.34020        3.59500
S          3.17580       -5.69490        3.46920
C          1.06710       -7.06380        4.72890
C          1.45770       -6.93520        6.03070
C          0.43620       -7.27740        6.95730
C          0.35240       -6.94670        8.32570
C          1.47860       -6.46780        9.10510
S          2.57140       -5.23410        8.55130
C          3.46610       -5.23810       10.03180
C          4.59650       -4.29460       10.24810
C          4.08180       -2.91400       10.66290
C          2.93630       -6.14600       10.89840
Cl         3.55650       -6.44400       12.47020
C          1.81240       -6.84250       10.37950
Cl         1.02260       -8.08370       11.25800
C         -0.92010       -6.96110        8.89140
C         -2.06690       -7.43340        8.21030
C         -1.95510       -7.91400        6.89840
C         -3.10760       -8.27380        6.08580
S         -4.41340       -7.15300        5.82550
C         -5.19070       -8.20180        4.69240
C         -6.43500       -7.78440        3.98990
C         -6.10050       -6.98750        2.72610
C         -4.46610       -9.34490        4.52910
C         -3.28000       -9.38480        5.30990
Cl        -2.20530      -10.72030        5.30710
Cl        -4.92470      -10.62710        3.48470
C         -0.71440       -7.77230        6.29610
S         -0.49240       -7.84710        4.57480
C         -3.26860       -7.05420        8.85300
C         -3.08140       -6.19350        9.89390
S         -1.37880       -6.08190       10.32680
C         -4.00180       -5.15130       10.29330
C         -3.66910       -4.20570       11.26580
C         -4.30950       -2.97520       11.34150
C         -5.28870       -2.67530       10.41260
C         -5.70810       -3.67210        9.50900
C         -5.10280       -4.89900        9.45300
C         -6.70460       -3.10730        8.56190
O         -7.33190       -3.68850        7.70820
C         -6.73240       -1.66180        8.89660
C         -5.93750       -1.42290       10.03640
C         -5.82190       -0.13840       10.53050
C         -6.45180        0.89780        9.85100
C         -7.16660        0.67530        8.67690
C         -7.33630       -0.63530        8.21210
C         -7.75990        1.78320        7.92960
C         -7.56830        2.02770        6.62650
C         -6.63560        1.40090        5.72740
C         -6.60730        1.60490        4.37860
C         -5.51130        0.99130        3.72190
C         -5.16520        1.06580        2.36330
C         -6.01750        1.72070        1.38470
S         -7.67980        1.24810        1.18710
C         -7.92430        2.35900       -0.11810
C         -9.25670        2.50730       -0.76570
C        -10.16470        3.42630        0.05490
C         -6.77990        3.05590       -0.36500
Cl        -6.62990        4.25320       -1.58550
C         -5.69640        2.69550        0.48130
Cl        -4.18120        3.49460        0.41240
C         -3.96230        0.47980        1.98970
C         -3.10100       -0.17190        2.90280
C         -3.48130       -0.30520        4.24980
C         -2.66960       -1.07910        5.17640
S         -0.96290       -0.78720        5.34620
C         -0.75300       -2.12160        6.42730
C          0.60090       -2.50390        6.91460
C          1.39320       -3.21850        5.81750
C         -1.94900       -2.73520        6.64480
C         -3.04140       -2.14110        5.95480
Cl        -4.63190       -2.78130        6.06090
Cl        -2.14590       -4.12720        7.62850
C         -4.67370        0.30050        4.63160
S         -5.29220        0.40300        6.25630
C         -1.92990       -0.66050        2.25060
C         -1.92360       -0.42040        0.92470
S         -3.33130        0.41170        0.37090
H          4.56110       10.63730      -14.23420
H          6.38890        9.10720      -13.18940
H         11.28330        5.74660      -11.11370
H         10.75350        6.23500       -9.49190
H         10.98510        8.63330      -10.14550
H         11.51670        8.14310      -11.75740
H         12.51270        7.76810      -10.34780
H         -2.55020        9.01800      -12.24110
H         -3.09400        9.43450      -10.60400
H         -3.30250        7.01200      -10.05830
H         -2.75500        6.59230      -11.68450
H         -4.29460        7.43040      -11.45860
H          1.81050        6.11500       -8.57030
H          5.54160        3.64020       -6.84790
H         10.50840        0.64240       -4.48070
H          9.51370       -0.82340       -4.59020
H         10.95920       -0.58410       -6.59730
H          9.25500       -0.45500       -7.04700
H         10.25170        0.99910       -6.93320
H         -3.55890        0.81240       -4.85510
H         -4.14810        2.48530       -4.92430
H         -3.47850        0.96660       -2.35690
H         -5.10620        1.28340       -2.96520
H         -4.07980        2.62090       -2.44410
H          0.87510        0.37560       -2.53050
H          4.56190       -1.89600       -0.47860
H          8.63720       -5.58980        2.77920
H          9.28480       -3.96310        3.06930
H          8.88190       -5.24170        0.31920
H         10.43130       -5.04990        1.14750
H          9.53320       -3.62600        0.61250
H         -5.12370       -2.82730       -0.05890
H         -4.79230       -4.30100       -0.97040
H         -5.05900       -2.37730       -2.50780
H         -3.74630       -1.52200       -1.69520
H         -3.40940       -3.00450       -2.59270
H         -0.30390       -6.12980        2.54330
H          2.39520       -6.48790        6.30590
H          5.24210       -4.69630       11.03090
H          5.17590       -4.20390        9.32740
H          4.91630       -2.23590       10.81970
H          3.43760       -2.50370        9.88870
H          3.51300       -2.98630       11.58640
H         -7.00450       -8.67630        3.72120
H         -7.03940       -7.16750        4.65710
H         -7.01500       -6.69320        2.21820
H         -5.54130       -6.09090        2.98180
H         -5.50110       -7.58940        2.04730
H         -4.23370       -7.32230        8.46760
H         -2.84110       -4.41460       11.92860
H         -3.99200       -2.24740       12.07300
H         -5.41220       -5.60380        8.69850
H         -5.23950        0.06830       11.41590
H         -6.35050        1.91000       10.21590
H         -7.92210       -0.83390        7.32700
H         -8.41550        2.43740        8.49000
H         -8.12690        2.83350        6.16560
H         -7.34290        2.19660        3.86370
H         -9.72600        1.52660       -0.86160
H         -9.11460        2.92770       -1.76280
H         -9.71590        4.41180        0.15050
H        -11.13050        3.52930       -0.43200
H        -10.31730        3.01460        1.04980
H          1.14190       -1.60740        7.22370
H          0.49180       -3.16440        7.77630
H          2.38530       -3.47420        6.17830
H          1.49080       -2.58000        4.94210
H          0.88570       -4.13430        5.52560
H         -1.12630       -1.15760        2.75900
H         -1.16710       -0.67920        0.21030
