
  xtb     03022214333D
 energy: -463.727851064785 gnorm: 0.000427135150 xtb: 6.4.1 (unknown)
236263  0     0  0            999 V2000
    4.4264    9.9195  -13.4489 C   0  0  0  0  0  0  0  0  0  0  0  0
    5.3550    9.1119  -12.8981 C   0  0  0  0  0  0  0  0  0  0  0  0
    4.8232    8.2778  -11.8715 C   0  0  0  0  0  0  0  0  0  0  0  0
    5.4995    7.3453  -11.0686 C   0  0  0  0  0  0  0  0  0  0  0  0
    6.9031    7.0356  -11.2880 C   0  0  0  0  0  0  0  0  0  0  0  0
    8.0700    7.1135  -10.0029 S   0  0  0  0  0  0  0  0  0  0  0  0
    9.3607    6.6142  -11.0408 C   0  0  0  0  0  0  0  0  0  0  0  0
   10.7615    6.5190  -10.5452 C   0  0  0  0  0  0  0  0  0  0  0  0
   11.4918    7.8541  -10.7098 C   0  0  0  0  0  0  0  0  0  0  0  0
    8.8991    6.4062  -12.3066 C   0  0  0  0  0  0  0  0  0  0  0  0
    9.8884    5.8982  -13.6139 Cl  0  0  0  0  0  0  0  0  0  0  0  0
    7.5057    6.6395  -12.4500 C   0  0  0  0  0  0  0  0  0  0  0  0
    6.6689    6.3665  -13.9240 Cl  0  0  0  0  0  0  0  0  0  0  0  0
    4.7622    6.7172  -10.0738 C   0  0  0  0  0  0  0  0  0  0  0  0
    3.3795    6.9501   -9.8765 C   0  0  0  0  0  0  0  0  0  0  0  0
    2.7028    7.8846  -10.6779 C   0  0  0  0  0  0  0  0  0  0  0  0
    1.2996    8.1866  -10.4542 C   0  0  0  0  0  0  0  0  0  0  0  0
    0.1379    8.1349  -11.7461 S   0  0  0  0  0  0  0  0  0  0  0  0
   -1.1612    8.5940  -10.7004 C   0  0  0  0  0  0  0  0  0  0  0  0
   -2.5602    8.6918  -11.2001 C   0  0  0  0  0  0  0  0  0  0  0  0
   -3.2750    7.3424  -11.0934 C   0  0  0  0  0  0  0  0  0  0  0  0
   -0.7066    8.7700   -9.4272 C   0  0  0  0  0  0  0  0  0  0  0  0
    0.6882    8.5444   -9.2836 C   0  0  0  0  0  0  0  0  0  0  0  0
    1.5116    8.7859   -7.7964 Cl  0  0  0  0  0  0  0  0  0  0  0  0
   -1.7055    9.2299   -8.1099 Cl  0  0  0  0  0  0  0  0  0  0  0  0
    3.4439    8.5180  -11.6682 C   0  0  0  0  0  0  0  0  0  0  0  0
    2.8497    9.7362  -12.7612 S   0  0  0  0  0  0  0  0  0  0  0  0
    2.8467    6.1246   -8.8554 C   0  0  0  0  0  0  0  0  0  0  0  0
    3.7753    5.3210   -8.2656 C   0  0  0  0  0  0  0  0  0  0  0  0
    5.3707    5.5222   -8.9634 S   0  0  0  0  0  0  0  0  0  0  0  0
    3.5717    4.4062   -7.1915 C   0  0  0  0  0  0  0  0  0  0  0  0
    4.5073    3.6452   -6.5557 C   0  0  0  0  0  0  0  0  0  0  0  0
    3.9759    2.8580   -5.5059 C   0  0  0  0  0  0  0  0  0  0  0  0
    4.6557    1.9498   -4.6745 C   0  0  0  0  0  0  0  0  0  0  0  0
    6.1015    1.8288   -4.7251 C   0  0  0  0  0  0  0  0  0  0  0  0
    6.8851    0.2838   -4.8752 S   0  0  0  0  0  0  0  0  0  0  0  0
    8.4621    0.9941   -4.8598 C   0  0  0  0  0  0  0  0  0  0  0  0
    9.6879    0.1643   -5.0197 C   0  0  0  0  0  0  0  0  0  0  0  0
   10.0628    0.0216   -6.4969 C   0  0  0  0  0  0  0  0  0  0  0  0
    8.3707    2.3497   -4.7482 C   0  0  0  0  0  0  0  0  0  0  0  0
    9.7285    3.3972   -4.6991 Cl  0  0  0  0  0  0  0  0  0  0  0  0
    7.0359    2.8274   -4.6663 C   0  0  0  0  0  0  0  0  0  0  0  0
    6.6661    4.4871   -4.4286 Cl  0  0  0  0  0  0  0  0  0  0  0  0
    3.8786    1.1858   -3.8143 C   0  0  0  0  0  0  0  0  0  0  0  0
    2.4726    1.3281   -3.7115 C   0  0  0  0  0  0  0  0  0  0  0  0
    1.8031    2.2973   -4.4802 C   0  0  0  0  0  0  0  0  0  0  0  0
    0.3713    2.5207   -4.3624 C   0  0  0  0  0  0  0  0  0  0  0  0
   -0.7775    1.2222   -4.5177 S   0  0  0  0  0  0  0  0  0  0  0  0
   -2.1293    2.2864   -4.3407 C   0  0  0  0  0  0  0  0  0  0  0  0
   -3.5309    1.7834   -4.3587 C   0  0  0  0  0  0  0  0  0  0  0  0
   -4.0852    1.6547   -2.9391 C   0  0  0  0  0  0  0  0  0  0  0  0
   -1.7007    3.5661   -4.1500 C   0  0  0  0  0  0  0  0  0  0  0  0
   -0.2871    3.7049   -4.1675 C   0  0  0  0  0  0  0  0  0  0  0  0
    0.4864    5.2076   -3.8854 Cl  0  0  0  0  0  0  0  0  0  0  0  0
   -2.7573    4.8978   -3.9223 Cl  0  0  0  0  0  0  0  0  0  0  0  0
    2.5751    3.0286   -5.3746 C   0  0  0  0  0  0  0  0  0  0  0  0
    1.9687    4.1833   -6.5254 S   0  0  0  0  0  0  0  0  0  0  0  0
    1.9233    0.4343   -2.7614 C   0  0  0  0  0  0  0  0  0  0  0  0
    2.8532   -0.3578   -2.1555 C   0  0  0  0  0  0  0  0  0  0  0  0
    4.4784   -0.0244   -2.7145 S   0  0  0  0  0  0  0  0  0  0  0  0
    2.6087   -1.3732   -1.1853 C   0  0  0  0  0  0  0  0  0  0  0  0
    3.5010   -2.0574   -0.4162 C   0  0  0  0  0  0  0  0  0  0  0  0
    2.8933   -2.9965    0.4558 C   0  0  0  0  0  0  0  0  0  0  0  0
    3.5078   -3.7834    1.4487 C   0  0  0  0  0  0  0  0  0  0  0  0
    4.9172   -3.6273    1.7626 C   0  0  0  0  0  0  0  0  0  0  0  0
    5.9934   -4.9909    1.8149 S   0  0  0  0  0  0  0  0  0  0  0  0
    7.3517   -4.0013    2.2241 C   0  0  0  0  0  0  0  0  0  0  0  0
    8.7151   -4.5805    2.3722 C   0  0  0  0  0  0  0  0  0  0  0  0
    9.4378   -4.6277    1.0237 C   0  0  0  0  0  0  0  0  0  0  0  0
    6.9775   -2.6929    2.3103 C   0  0  0  0  0  0  0  0  0  0  0  0
    8.0538   -1.4142    2.7004 Cl  0  0  0  0  0  0  0  0  0  0  0  0
    5.5977   -2.4767    2.0538 C   0  0  0  0  0  0  0  0  0  0  0  0
    4.8644   -0.9297    2.1849 Cl  0  0  0  0  0  0  0  0  0  0  0  0
    2.6973   -4.6794    2.1312 C   0  0  0  0  0  0  0  0  0  0  0  0
    1.3152   -4.8159    1.8560 C   0  0  0  0  0  0  0  0  0  0  0  0
    0.6697   -3.9310    0.9744 C   0  0  0  0  0  0  0  0  0  0  0  0
   -0.7790   -3.8629    0.8895 C   0  0  0  0  0  0  0  0  0  0  0  0
   -1.5956   -3.6944   -0.6373 S   0  0  0  0  0  0  0  0  0  0  0  0
   -3.1466   -3.5224    0.1101 C   0  0  0  0  0  0  0  0  0  0  0  0
   -4.3852   -3.3234   -0.6927 C   0  0  0  0  0  0  0  0  0  0  0  0
   -4.1332   -2.5041   -1.9535 C   0  0  0  0  0  0  0  0  0  0  0  0
   -3.0250   -3.6048    1.4651 C   0  0  0  0  0  0  0  0  0  0  0  0
   -1.6917   -3.8055    1.9104 C   0  0  0  0  0  0  0  0  0  0  0  0
   -1.3221   -3.8542    3.5877 Cl  0  0  0  0  0  0  0  0  0  0  0  0
   -4.3337   -3.4233    2.5653 Cl  0  0  0  0  0  0  0  0  0  0  0  0
    1.4896   -3.0555    0.2730 C   0  0  0  0  0  0  0  0  0  0  0  0
    0.9574   -1.8809   -0.8941 S   0  0  0  0  0  0  0  0  0  0  0  0
    0.7210   -5.8250    2.6441 C   0  0  0  0  0  0  0  0  0  0  0  0
    1.5535   -6.3402    3.5950 C   0  0  0  0  0  0  0  0  0  0  0  0
    3.1758   -5.6949    3.4692 S   0  0  0  0  0  0  0  0  0  0  0  0
    1.0671   -7.0638    4.7289 C   0  0  0  0  0  0  0  0  0  0  0  0
    1.4577   -6.9352    6.0307 C   0  0  0  0  0  0  0  0  0  0  0  0
    0.4362   -7.2774    6.9573 C   0  0  0  0  0  0  0  0  0  0  0  0
    0.3524   -6.9467    8.3257 C   0  0  0  0  0  0  0  0  0  0  0  0
    1.4786   -6.4678    9.1051 C   0  0  0  0  0  0  0  0  0  0  0  0
    2.5714   -5.2341    8.5513 S   0  0  0  0  0  0  0  0  0  0  0  0
    3.4661   -5.2381   10.0318 C   0  0  0  0  0  0  0  0  0  0  0  0
    4.5965   -4.2946   10.2481 C   0  0  0  0  0  0  0  0  0  0  0  0
    4.0818   -2.9140   10.6629 C   0  0  0  0  0  0  0  0  0  0  0  0
    2.9363   -6.1460   10.8984 C   0  0  0  0  0  0  0  0  0  0  0  0
    3.5565   -6.4440   12.4702 Cl  0  0  0  0  0  0  0  0  0  0  0  0
    1.8124   -6.8425   10.3795 C   0  0  0  0  0  0  0  0  0  0  0  0
    1.0226   -8.0837   11.2580 Cl  0  0  0  0  0  0  0  0  0  0  0  0
   -0.9201   -6.9611    8.8914 C   0  0  0  0  0  0  0  0  0  0  0  0
   -2.0669   -7.4334    8.2103 C   0  0  0  0  0  0  0  0  0  0  0  0
   -1.9551   -7.9140    6.8984 C   0  0  0  0  0  0  0  0  0  0  0  0
   -3.1076   -8.2738    6.0858 C   0  0  0  0  0  0  0  0  0  0  0  0
   -4.4134   -7.1530    5.8255 S   0  0  0  0  0  0  0  0  0  0  0  0
   -5.1907   -8.2018    4.6924 C   0  0  0  0  0  0  0  0  0  0  0  0
   -6.4350   -7.7844    3.9899 C   0  0  0  0  0  0  0  0  0  0  0  0
   -6.1005   -6.9875    2.7261 C   0  0  0  0  0  0  0  0  0  0  0  0
   -4.4661   -9.3449    4.5291 C   0  0  0  0  0  0  0  0  0  0  0  0
   -3.2800   -9.3848    5.3099 C   0  0  0  0  0  0  0  0  0  0  0  0
   -2.2053  -10.7203    5.3071 Cl  0  0  0  0  0  0  0  0  0  0  0  0
   -4.9247  -10.6271    3.4847 Cl  0  0  0  0  0  0  0  0  0  0  0  0
   -0.7144   -7.7723    6.2961 C   0  0  0  0  0  0  0  0  0  0  0  0
   -0.4924   -7.8471    4.5748 S   0  0  0  0  0  0  0  0  0  0  0  0
   -3.2686   -7.0542    8.8530 C   0  0  0  0  0  0  0  0  0  0  0  0
   -3.0814   -6.1935    9.8939 C   0  0  0  0  0  0  0  0  0  0  0  0
   -1.3788   -6.0819   10.3268 S   0  0  0  0  0  0  0  0  0  0  0  0
   -4.0018   -5.1513   10.2933 C   0  0  0  0  0  0  0  0  0  0  0  0
   -3.6691   -4.2057   11.2658 C   0  0  0  0  0  0  0  0  0  0  0  0
   -4.3095   -2.9752   11.3415 C   0  0  0  0  0  0  0  0  0  0  0  0
   -5.2887   -2.6753   10.4126 C   0  0  0  0  0  0  0  0  0  0  0  0
   -5.7081   -3.6721    9.5090 C   0  0  0  0  0  0  0  0  0  0  0  0
   -5.1028   -4.8990    9.4530 C   0  0  0  0  0  0  0  0  0  0  0  0
   -6.7046   -3.1073    8.5619 C   0  0  0  0  0  0  0  0  0  0  0  0
   -7.3319   -3.6885    7.7082 O   0  0  0  0  0  0  0  0  0  0  0  0
   -6.7324   -1.6618    8.8966 C   0  0  0  0  0  0  0  0  0  0  0  0
   -5.9375   -1.4229   10.0364 C   0  0  0  0  0  0  0  0  0  0  0  0
   -5.8219   -0.1384   10.5305 C   0  0  0  0  0  0  0  0  0  0  0  0
   -6.4518    0.8978    9.8510 C   0  0  0  0  0  0  0  0  0  0  0  0
   -7.1666    0.6753    8.6769 C   0  0  0  0  0  0  0  0  0  0  0  0
   -7.3363   -0.6353    8.2121 C   0  0  0  0  0  0  0  0  0  0  0  0
   -7.7599    1.7832    7.9296 C   0  0  0  0  0  0  0  0  0  0  0  0
   -7.5683    2.0277    6.6265 C   0  0  0  0  0  0  0  0  0  0  0  0
   -6.6356    1.4009    5.7274 C   0  0  0  0  0  0  0  0  0  0  0  0
   -6.6073    1.6049    4.3786 C   0  0  0  0  0  0  0  0  0  0  0  0
   -5.5113    0.9913    3.7219 C   0  0  0  0  0  0  0  0  0  0  0  0
   -5.1652    1.0658    2.3633 C   0  0  0  0  0  0  0  0  0  0  0  0
   -6.0175    1.7207    1.3847 C   0  0  0  0  0  0  0  0  0  0  0  0
   -7.6798    1.2481    1.1871 S   0  0  0  0  0  0  0  0  0  0  0  0
   -7.9243    2.3590   -0.1181 C   0  0  0  0  0  0  0  0  0  0  0  0
   -9.2567    2.5073   -0.7657 C   0  0  0  0  0  0  0  0  0  0  0  0
  -10.1647    3.4263    0.0549 C   0  0  0  0  0  0  0  0  0  0  0  0
   -6.7799    3.0559   -0.3650 C   0  0  0  0  0  0  0  0  0  0  0  0
   -6.6299    4.2532   -1.5855 Cl  0  0  0  0  0  0  0  0  0  0  0  0
   -5.6964    2.6955    0.4813 C   0  0  0  0  0  0  0  0  0  0  0  0
   -4.1812    3.4946    0.4124 Cl  0  0  0  0  0  0  0  0  0  0  0  0
   -3.9623    0.4798    1.9897 C   0  0  0  0  0  0  0  0  0  0  0  0
   -3.1010   -0.1719    2.9028 C   0  0  0  0  0  0  0  0  0  0  0  0
   -3.4813   -0.3052    4.2498 C   0  0  0  0  0  0  0  0  0  0  0  0
   -2.6696   -1.0791    5.1764 C   0  0  0  0  0  0  0  0  0  0  0  0
   -0.9629   -0.7872    5.3462 S   0  0  0  0  0  0  0  0  0  0  0  0
   -0.7530   -2.1216    6.4273 C   0  0  0  0  0  0  0  0  0  0  0  0
    0.6009   -2.5039    6.9146 C   0  0  0  0  0  0  0  0  0  0  0  0
    1.3932   -3.2185    5.8175 C   0  0  0  0  0  0  0  0  0  0  0  0
   -1.9490   -2.7352    6.6448 C   0  0  0  0  0  0  0  0  0  0  0  0
   -3.0414   -2.1411    5.9548 C   0  0  0  0  0  0  0  0  0  0  0  0
   -4.6319   -2.7813    6.0609 Cl  0  0  0  0  0  0  0  0  0  0  0  0
   -2.1459   -4.1272    7.6285 Cl  0  0  0  0  0  0  0  0  0  0  0  0
   -4.6737    0.3005    4.6316 C   0  0  0  0  0  0  0  0  0  0  0  0
   -5.2922    0.4030    6.2563 S   0  0  0  0  0  0  0  0  0  0  0  0
   -1.9299   -0.6605    2.2506 C   0  0  0  0  0  0  0  0  0  0  0  0
   -1.9236   -0.4204    0.9247 C   0  0  0  0  0  0  0  0  0  0  0  0
   -3.3313    0.4117    0.3709 S   0  0  0  0  0  0  0  0  0  0  0  0
    4.5611   10.6373  -14.2342 H   0  0  0  0  0  0  0  0  0  0  0  0
    6.3889    9.1072  -13.1894 H   0  0  0  0  0  0  0  0  0  0  0  0
   11.2833    5.7466  -11.1137 H   0  0  0  0  0  0  0  0  0  0  0  0
   10.7535    6.2350   -9.4919 H   0  0  0  0  0  0  0  0  0  0  0  0
   10.9851    8.6333  -10.1455 H   0  0  0  0  0  0  0  0  0  0  0  0
   11.5167    8.1431  -11.7574 H   0  0  0  0  0  0  0  0  0  0  0  0
   12.5127    7.7681  -10.3478 H   0  0  0  0  0  0  0  0  0  0  0  0
   -2.5502    9.0180  -12.2411 H   0  0  0  0  0  0  0  0  0  0  0  0
   -3.0940    9.4345  -10.6040 H   0  0  0  0  0  0  0  0  0  0  0  0
   -3.3025    7.0120  -10.0583 H   0  0  0  0  0  0  0  0  0  0  0  0
   -2.7550    6.5923  -11.6845 H   0  0  0  0  0  0  0  0  0  0  0  0
   -4.2946    7.4304  -11.4586 H   0  0  0  0  0  0  0  0  0  0  0  0
    1.8105    6.1150   -8.5703 H   0  0  0  0  0  0  0  0  0  0  0  0
    5.5416    3.6402   -6.8479 H   0  0  0  0  0  0  0  0  0  0  0  0
   10.5084    0.6424   -4.4807 H   0  0  0  0  0  0  0  0  0  0  0  0
    9.5137   -0.8234   -4.5902 H   0  0  0  0  0  0  0  0  0  0  0  0
   10.9592   -0.5841   -6.5973 H   0  0  0  0  0  0  0  0  0  0  0  0
    9.2550   -0.4550   -7.0470 H   0  0  0  0  0  0  0  0  0  0  0  0
   10.2517    0.9991   -6.9332 H   0  0  0  0  0  0  0  0  0  0  0  0
   -3.5589    0.8124   -4.8551 H   0  0  0  0  0  0  0  0  0  0  0  0
   -4.1481    2.4853   -4.9243 H   0  0  0  0  0  0  0  0  0  0  0  0
   -3.4785    0.9666   -2.3569 H   0  0  0  0  0  0  0  0  0  0  0  0
   -5.1062    1.2834   -2.9652 H   0  0  0  0  0  0  0  0  0  0  0  0
   -4.0798    2.6209   -2.4441 H   0  0  0  0  0  0  0  0  0  0  0  0
    0.8751    0.3756   -2.5305 H   0  0  0  0  0  0  0  0  0  0  0  0
    4.5619   -1.8960   -0.4786 H   0  0  0  0  0  0  0  0  0  0  0  0
    8.6372   -5.5898    2.7792 H   0  0  0  0  0  0  0  0  0  0  0  0
    9.2848   -3.9631    3.0693 H   0  0  0  0  0  0  0  0  0  0  0  0
    8.8819   -5.2417    0.3192 H   0  0  0  0  0  0  0  0  0  0  0  0
   10.4313   -5.0499    1.1475 H   0  0  0  0  0  0  0  0  0  0  0  0
    9.5332   -3.6260    0.6125 H   0  0  0  0  0  0  0  0  0  0  0  0
   -5.1237   -2.8273   -0.0589 H   0  0  0  0  0  0  0  0  0  0  0  0
   -4.7923   -4.3010   -0.9704 H   0  0  0  0  0  0  0  0  0  0  0  0
   -5.0590   -2.3773   -2.5078 H   0  0  0  0  0  0  0  0  0  0  0  0
   -3.7463   -1.5220   -1.6952 H   0  0  0  0  0  0  0  0  0  0  0  0
   -3.4094   -3.0045   -2.5927 H   0  0  0  0  0  0  0  0  0  0  0  0
   -0.3039   -6.1298    2.5433 H   0  0  0  0  0  0  0  0  0  0  0  0
    2.3952   -6.4879    6.3059 H   0  0  0  0  0  0  0  0  0  0  0  0
    5.2421   -4.6963   11.0309 H   0  0  0  0  0  0  0  0  0  0  0  0
    5.1759   -4.2039    9.3274 H   0  0  0  0  0  0  0  0  0  0  0  0
    4.9163   -2.2359   10.8197 H   0  0  0  0  0  0  0  0  0  0  0  0
    3.4376   -2.5037    9.8887 H   0  0  0  0  0  0  0  0  0  0  0  0
    3.5130   -2.9863   11.5864 H   0  0  0  0  0  0  0  0  0  0  0  0
   -7.0045   -8.6763    3.7212 H   0  0  0  0  0  0  0  0  0  0  0  0
   -7.0394   -7.1675    4.6571 H   0  0  0  0  0  0  0  0  0  0  0  0
   -7.0150   -6.6932    2.2182 H   0  0  0  0  0  0  0  0  0  0  0  0
   -5.5413   -6.0909    2.9818 H   0  0  0  0  0  0  0  0  0  0  0  0
   -5.5011   -7.5894    2.0473 H   0  0  0  0  0  0  0  0  0  0  0  0
   -4.2337   -7.3223    8.4676 H   0  0  0  0  0  0  0  0  0  0  0  0
   -2.8411   -4.4146   11.9286 H   0  0  0  0  0  0  0  0  0  0  0  0
   -3.9920   -2.2474   12.0730 H   0  0  0  0  0  0  0  0  0  0  0  0
   -5.4122   -5.6038    8.6985 H   0  0  0  0  0  0  0  0  0  0  0  0
   -5.2395    0.0683   11.4159 H   0  0  0  0  0  0  0  0  0  0  0  0
   -6.3505    1.9100   10.2159 H   0  0  0  0  0  0  0  0  0  0  0  0
   -7.9221   -0.8339    7.3270 H   0  0  0  0  0  0  0  0  0  0  0  0
   -8.4155    2.4374    8.4900 H   0  0  0  0  0  0  0  0  0  0  0  0
   -8.1269    2.8335    6.1656 H   0  0  0  0  0  0  0  0  0  0  0  0
   -7.3429    2.1966    3.8637 H   0  0  0  0  0  0  0  0  0  0  0  0
   -9.7260    1.5266   -0.8616 H   0  0  0  0  0  0  0  0  0  0  0  0
   -9.1146    2.9277   -1.7628 H   0  0  0  0  0  0  0  0  0  0  0  0
   -9.7159    4.4118    0.1505 H   0  0  0  0  0  0  0  0  0  0  0  0
  -11.1305    3.5293   -0.4320 H   0  0  0  0  0  0  0  0  0  0  0  0
  -10.3173    3.0146    1.0498 H   0  0  0  0  0  0  0  0  0  0  0  0
    1.1419   -1.6074    7.2237 H   0  0  0  0  0  0  0  0  0  0  0  0
    0.4918   -3.1644    7.7763 H   0  0  0  0  0  0  0  0  0  0  0  0
    2.3853   -3.4742    6.1783 H   0  0  0  0  0  0  0  0  0  0  0  0
    1.4908   -2.5800    4.9421 H   0  0  0  0  0  0  0  0  0  0  0  0
    0.8857   -4.1343    5.5256 H   0  0  0  0  0  0  0  0  0  0  0  0
   -1.1263   -1.1576    2.7590 H   0  0  0  0  0  0  0  0  0  0  0  0
   -1.1671   -0.6792    0.2103 H   0  0  0  0  0  0  0  0  0  0  0  0
  1  2  2  0  0  0  0
  2  3  1  0  0  0  0
  3  4  2  0  0  0  0
  4  5  1  0  0  0  0
  5  6  1  0  0  0  0
  6  7  1  0  0  0  0
  7  8  1  0  0  0  0
  8  9  1  0  0  0  0
  7 10  2  0  0  0  0
 10 11  1  0  0  0  0
 10 12  1  0  0  0  0
 12 13  1  0  0  0  0
  4 14  1  0  0  0  0
 14 15  2  0  0  0  0
 15 16  1  0  0  0  0
 16 17  1  0  0  0  0
 17 18  1  0  0  0  0
 18 19  1  0  0  0  0
 19 20  1  0  0  0  0
 20 21  1  0  0  0  0
 19 22  2  0  0  0  0
 22 23  1  0  0  0  0
 23 24  1  0  0  0  0
 22 25  1  0  0  0  0
 16 26  2  0  0  0  0
 26 27  1  0  0  0  0
 15 28  1  0  0  0  0
 28 29  2  0  0  0  0
 29 30  1  0  0  0  0
 29 31  1  0  0  0  0
 31 32  2  0  0  0  0
 32 33  1  0  0  0  0
 33 34  2  0  0  0  0
 34 35  1  0  0  0  0
 35 36  1  0  0  0  0
 36 37  1  0  0  0  0
 37 38  1  0  0  0  0
 38 39  1  0  0  0  0
 37 40  2  0  0  0  0
 40 41  1  0  0  0  0
 40 42  1  0  0  0  0
 42 43  1  0  0  0  0
 34 44  1  0  0  0  0
 44 45  2  0  0  0  0
 45 46  1  0  0  0  0
 46 47  1  0  0  0  0
 47 48  1  0  0  0  0
 48 49  1  0  0  0  0
 49 50  1  0  0  0  0
 50 51  1  0  0  0  0
 49 52  2  0  0  0  0
 52 53  1  0  0  0  0
 53 54  1  0  0  0  0
 52 55  1  0  0  0  0
 46 56  2  0  0  0  0
 56 57  1  0  0  0  0
 45 58  1  0  0  0  0
 58 59  2  0  0  0  0
 59 60  1  0  0  0  0
 59 61  1  0  0  0  0
 61 62  2  0  0  0  0
 62 63  1  0  0  0  0
 63 64  2  0  0  0  0
 64 65  1  0  0  0  0
 65 66  1  0  0  0  0
 66 67  1  0  0  0  0
 67 68  1  0  0  0  0
 68 69  1  0  0  0  0
 67 70  2  0  0  0  0
 70 71  1  0  0  0  0
 70 72  1  0  0  0  0
 72 73  1  0  0  0  0
 64 74  1  0  0  0  0
 74 75  2  0  0  0  0
 75 76  1  0  0  0  0
 76 77  1  0  0  0  0
 77 78  1  0  0  0  0
 78 79  1  0  0  0  0
 79 80  1  0  0  0  0
 80 81  1  0  0  0  0
 79 82  2  0  0  0  0
 82 83  1  0  0  0  0
 83 84  1  0  0  0  0
 82 85  1  0  0  0  0
 76 86  2  0  0  0  0
 86 87  1  0  0  0  0
 75 88  1  0  0  0  0
 88 89  2  0  0  0  0
 89 90  1  0  0  0  0
 89 91  1  0  0  0  0
 91 92  2  0  0  0  0
 92 93  1  0  0  0  0
 93 94  2  0  0  0  0
 94 95  1  0  0  0  0
 95 96  1  0  0  0  0
 96 97  1  0  0  0  0
 97 98  1  0  0  0  0
 98 99  1  0  0  0  0
 97100  2  0  0  0  0
100101  1  0  0  0  0
100102  1  0  0  0  0
102103  1  0  0  0  0
 94104  1  0  0  0  0
104105  2  0  0  0  0
105106  1  0  0  0  0
106107  1  0  0  0  0
107108  1  0  0  0  0
108109  1  0  0  0  0
109110  1  0  0  0  0
110111  1  0  0  0  0
109112  2  0  0  0  0
112113  1  0  0  0  0
113114  1  0  0  0  0
112115  1  0  0  0  0
106116  2  0  0  0  0
116117  1  0  0  0  0
105118  1  0  0  0  0
118119  2  0  0  0  0
119120  1  0  0  0  0
119121  1  0  0  0  0
121122  2  0  0  0  0
122123  1  0  0  0  0
123124  2  0  0  0  0
124125  1  0  0  0  0
125126  2  0  0  0  0
125127  1  0  0  0  0
127128  2  0  0  0  0
127129  1  0  0  0  0
129130  2  0  0  0  0
130131  1  0  0  0  0
131132  2  0  0  0  0
132133  1  0  0  0  0
133134  2  0  0  0  0
133135  1  0  0  0  0
135136  2  0  0  0  0
136137  1  0  0  0  0
137138  2  0  0  0  0
138139  1  0  0  0  0
139140  2  0  0  0  0
140141  1  0  0  0  0
141142  1  0  0  0  0
142143  1  0  0  0  0
143144  1  0  0  0  0
144145  1  0  0  0  0
143146  2  0  0  0  0
146147  1  0  0  0  0
146148  1  0  0  0  0
148149  1  0  0  0  0
140150  1  0  0  0  0
150151  2  0  0  0  0
151152  1  0  0  0  0
152153  1  0  0  0  0
153154  1  0  0  0  0
154155  1  0  0  0  0
155156  1  0  0  0  0
156157  1  0  0  0  0
155158  2  0  0  0  0
158159  1  0  0  0  0
159160  1  0  0  0  0
158161  1  0  0  0  0
152162  2  0  0  0  0
162163  1  0  0  0  0
151164  1  0  0  0  0
164165  2  0  0  0  0
165166  1  0  0  0  0
 27  1  1  0  0  0  0
 57 31  1  0  0  0  0
 87 61  1  0  0  0  0
117 91  1  0  0  0  0
126121  1  0  0  0  0
134129  1  0  0  0  0
163137  1  0  0  0  0
 26  3  1  0  0  0  0
 56 33  1  0  0  0  0
 86 63  1  0  0  0  0
116 93  1  0  0  0  0
130124  1  0  0  0  0
162139  1  0  0  0  0
 12  5  2  0  0  0  0
 30 14  1  0  0  0  0
 42 35  2  0  0  0  0
 60 44  1  0  0  0  0
 72 65  2  0  0  0  0
 90 74  1  0  0  0  0
102 95  2  0  0  0  0
120104  1  0  0  0  0
148141  2  0  0  0  0
166150  1  0  0  0  0
 23 17  2  0  0  0  0
 53 47  2  0  0  0  0
 83 77  2  0  0  0  0
113107  2  0  0  0  0
159153  2  0  0  0  0
  1167  1  0  0  0  0
  2168  1  0  0  0  0
  8169  1  0  0  0  0
  8170  1  0  0  0  0
  9171  1  0  0  0  0
  9172  1  0  0  0  0
  9173  1  0  0  0  0
 20174  1  0  0  0  0
 20175  1  0  0  0  0
 21176  1  0  0  0  0
 21177  1  0  0  0  0
 21178  1  0  0  0  0
 28179  1  0  0  0  0
 32180  1  0  0  0  0
 38181  1  0  0  0  0
 38182  1  0  0  0  0
 39183  1  0  0  0  0
 39184  1  0  0  0  0
 39185  1  0  0  0  0
 50186  1  0  0  0  0
 50187  1  0  0  0  0
 51188  1  0  0  0  0
 51189  1  0  0  0  0
 51190  1  0  0  0  0
 58191  1  0  0  0  0
 62192  1  0  0  0  0
 68193  1  0  0  0  0
 68194  1  0  0  0  0
 69195  1  0  0  0  0
 69196  1  0  0  0  0
 69197  1  0  0  0  0
 80198  1  0  0  0  0
 80199  1  0  0  0  0
 81200  1  0  0  0  0
 81201  1  0  0  0  0
 81202  1  0  0  0  0
 88203  1  0  0  0  0
 92204  1  0  0  0  0
 98205  1  0  0  0  0
 98206  1  0  0  0  0
 99207  1  0  0  0  0
 99208  1  0  0  0  0
 99209  1  0  0  0  0
110210  1  0  0  0  0
110211  1  0  0  0  0
111212  1  0  0  0  0
111213  1  0  0  0  0
111214  1  0  0  0  0
118215  1  0  0  0  0
122216  1  0  0  0  0
123217  1  0  0  0  0
126218  1  0  0  0  0
131219  1  0  0  0  0
132220  1  0  0  0  0
134221  1  0  0  0  0
135222  1  0  0  0  0
136223  1  0  0  0  0
138224  1  0  0  0  0
144225  1  0  0  0  0
144226  1  0  0  0  0
145227  1  0  0  0  0
145228  1  0  0  0  0
145229  1  0  0  0  0
156230  1  0  0  0  0
156231  1  0  0  0  0
157232  1  0  0  0  0
157233  1  0  0  0  0
157234  1  0  0  0  0
164235  1  0  0  0  0
165236  1  0  0  0  0
M  END
