221

C         11.96480       -1.63250        4.41590
C         11.65400       -0.97510        3.28000
C         10.24840       -0.88160        3.06180
C          9.57100       -0.26630        1.99870
C         10.28570        0.43190        0.93900
S         11.34120        1.76670        1.29850
C         11.69430        2.04170       -0.37390
C         12.56950        3.16550       -0.80720
C         11.75800        4.45010       -0.99120
C         11.02110        1.14690       -1.14940
Cl        11.10940        1.10730       -2.86110
C         10.22780        0.22770       -0.41050
Cl         9.36760       -1.05250       -1.15890
C          8.18300       -0.32220        2.01570
C          7.45490       -0.94670        3.05810
C          8.13250       -1.56410        4.12090
C          7.40060       -2.19950        5.20770
S          6.28940       -1.29280        6.18950
C          5.86910       -2.67960        7.13520
C          4.89870       -2.58930        8.26060
C          5.61390       -2.29740        9.58090
C          6.56920       -3.76940        6.71220
C          7.44230       -3.49930        5.62440
Cl         8.40130       -4.71630        4.89180
Cl         6.40210       -5.33550        7.39350
C          9.51950       -1.52460        4.09150
S         10.58470       -2.19020        5.29630
C          6.05740       -0.87580        2.84420
C          5.71380       -0.22720        1.69600
S          7.11490        0.36810        0.82980
C          4.40080       -0.03860        1.16540
C          3.19870       -0.31520        1.75340
C          2.08490       -0.01470        0.93030
C          0.71180       -0.08560        1.23870
C          0.24580       -0.45060        2.56900
S          0.69310       -1.94010        3.34440
C         -0.21880       -1.57380        4.76660
C         -0.21520       -2.48120        5.94640
C          0.85430       -2.04880        6.95280
C         -0.82360       -0.35910        4.63910
Cl        -1.82490        0.34340        5.84350
C         -0.55560        0.28340        3.40170
Cl        -1.09420        1.87720        3.07250
C         -0.17750        0.31060        0.24780
C          0.23630        0.77620       -1.02590
C          1.60330        0.86480       -1.32840
C          2.07340        1.39850       -2.59740
S          3.13770        2.77410       -2.64070
C          3.17120        2.79560       -4.37020
C          3.88130        3.87370       -5.11050
C          3.02350        5.14070       -5.16700
C          2.40920        1.78300       -4.87110
C          1.78230        0.99380       -3.86940
Cl         0.79480       -0.35280       -4.25830
Cl         2.21890        1.46130       -6.54720
C          2.48960        0.49140       -0.32900
S          4.21480        0.61310       -0.44430
C         -0.84860        1.24760       -1.80090
C         -2.05460        1.17480       -1.16440
S         -1.91030        0.38310        0.39720
C         -3.26270        1.82100       -1.55600
S         -4.84090        1.21310       -1.18310
C         -5.64110        2.59520       -1.86260
C         -4.69450        3.51790       -2.32850
C         -3.34740        3.07190       -2.17320
C         -2.29940        3.93260       -2.56220
C         -2.58610        5.13410       -3.13550
S         -1.24370        6.20020       -3.61890
C         -1.26600        7.36560       -2.20580
C         -0.85630        6.69570       -0.91010
C         -3.92780        5.54890       -3.36620
S         -4.10360        7.10710       -4.16420
C         -5.88670        7.24960       -4.51950
C         -6.32070        6.34830       -5.65980
C         -4.96260        4.75610       -2.94530
C         -7.04500        2.84350       -1.81110
C         -8.11100        2.03340       -2.04390
C         -8.15800        0.73620       -2.59740
S         -6.75250       -0.16390       -3.05540
C         -7.66880       -1.44530       -3.77680
C         -9.04160       -1.17100       -3.68510
C         -9.32140        0.05020       -2.99670
C        -10.66000        0.43450       -2.81020
C        -11.67780       -0.35110       -3.28460
S        -13.35270        0.16880       -2.98500
C        -13.88050        0.54960       -4.69400
C        -13.12120        1.73060       -5.26320
C        -11.39680       -1.57160       -3.94430
S        -12.71660       -2.63040       -4.51480
C        -12.57850       -3.96240       -3.27270
C        -13.02200       -3.48990       -1.90290
C        -10.10340       -1.96910       -4.14630
C         -7.02760       -2.53810       -4.40970
C         -5.76330       -2.98180       -4.16700
C         -4.94340       -2.70040       -3.04080
S         -3.21360       -2.74270       -3.22900
C         -2.92360       -2.49820       -1.53830
C         -4.13700       -2.37200       -0.84810
C         -5.27800       -2.50460       -1.69120
C         -6.56020       -2.48850       -1.11040
C         -6.70920       -2.25290        0.23000
S         -8.26330       -2.11370        1.03970
C         -9.49240       -2.65280       -0.19930
C         -9.46330       -4.15270       -0.42370
C         -5.56460       -2.05780        1.05800
S         -5.86250       -1.80220        2.77890
C         -4.51780       -0.67120        3.28900
C         -4.66660        0.69050        2.64500
C         -4.30750       -2.14720        0.52940
C         -1.63150       -2.55070       -0.97700
C         -0.46210       -2.47790       -1.65610
C          0.79700       -2.70300       -1.04080
C          2.04480       -2.44330       -1.53180
C          3.09530       -2.87040       -0.68460
C          4.48370       -2.77670       -0.89380
C          5.01650       -2.28810       -2.15140
S          6.30520       -1.12500       -2.19090
C          6.29430       -1.03900       -3.91310
C          7.17530       -0.07750       -4.62950
C          6.53440        1.31200       -4.66200
C          5.35300       -1.88410       -4.42210
Cl         5.04040       -2.06800       -6.09950
C          4.63910       -2.60690       -3.43030
Cl         3.50960       -3.83330       -3.84170
C          5.30240       -3.18560        0.15540
C          4.80710       -3.75240        1.35410
C          3.42250       -3.91060        1.53090
C          2.86360       -4.59340        2.68870
S          1.83160       -5.97770        2.47420
C          1.64760       -6.20980        4.17870
C          0.86020       -7.34850        4.72710
C          1.73130       -8.59840        4.87120
C          2.35400       -5.26660        4.86260
C          3.03210       -4.34750        4.02060
Cl         3.89140       -3.01350        4.65430
Cl         2.43780       -5.18270        6.57530
C          2.60420       -3.45220        0.50940
S          0.86860       -3.48820        0.52950
C          5.86350       -4.16080        2.21870
C          7.08580       -3.90550        1.71000
S          7.04320       -3.16910        0.14900
H         12.94010       -1.84100        4.81020
H         12.38550       -0.56650        2.60740
H         13.04440        2.89600       -1.75250
H         13.34620        3.32980       -0.05870
H         10.98690        4.30330       -1.74280
H         12.40840        5.25950       -1.31130
H         11.28200        4.73280       -0.05530
H          4.17690       -1.79800        8.05250
H          4.36370       -3.53790        8.33820
H          4.89130       -2.23410       10.39010
H          6.32370       -3.08830        9.80830
H          6.15210       -1.35490        9.51810
H          5.33740       -1.31360        3.50630
H          3.11070       -0.71280        2.74720
H         -1.19740       -2.44970        6.42250
H         -0.01690       -3.50260        5.61750
H          0.65610       -1.03900        7.30330
H          0.85660       -2.72140        7.80610
H          1.83740       -2.06980        6.48940
H          4.82720        4.09550       -4.61350
H          4.09020        3.52660       -6.12370
H          2.07760        4.93860       -5.66280
H          2.81330        5.49980       -4.16260
H          3.54490        5.92000       -5.71550
H         -0.73450        1.63170       -2.79680
H         -1.27080        3.66240       -2.39100
H         -0.56070        8.14440       -2.49130
H         -2.26660        7.79160       -2.14540
H         -0.84050        7.42780       -0.10510
H         -1.55830        5.90640       -0.64580
H          0.13530        6.25860       -1.00470
H         -6.44120        7.06060       -3.60090
H         -6.00930        8.29920       -4.78790
H         -5.76390        6.59250       -6.56150
H         -6.14370        5.30130       -5.42230
H         -7.38220        6.48570       -5.85750
H         -5.99010        5.05310       -3.07280
H         -7.28360        3.87760       -1.58530
H         -9.08610        2.47470       -1.88290
H        -10.90390        1.34590       -2.28780
H        -14.94450        0.76510       -4.60530
H        -13.74210       -0.34890       -5.29420
H        -13.25610        2.60940       -4.63570
H        -13.48580        1.95590       -6.26340
H        -12.05690        1.50810       -5.32470
H        -13.22500       -4.75450       -3.64910
H        -11.54480       -4.31060       -3.27210
H        -12.97300       -4.31030       -1.18900
H        -12.38440       -2.68050       -1.55100
H        -14.04450       -3.12240       -1.94510
H         -9.89790       -2.89790       -4.65700
H         -7.58660       -3.01380       -5.20560
H         -5.32070       -3.64660       -4.89890
H         -7.41380       -2.66370       -1.74050
H        -10.44190       -2.34690        0.24070
H         -9.34190       -2.08680       -1.11840
H         -9.64960       -4.67300        0.51270
H        -10.23320       -4.43590       -1.13840
H         -8.49730       -4.47470       -0.80650
H         -3.55530       -1.12780        3.06320
H         -4.63130       -0.61170        4.37110
H         -5.63580        1.11940        2.88830
H         -3.88570        1.35640        3.00430
H         -4.58220        0.61170        1.56300
H         -3.43810       -2.04810        1.15800
H         -1.59040       -2.69010        0.09660
H         -0.45960       -2.25950       -2.71450
H          2.19980       -1.93180       -2.46250
H          8.13840       -0.02130       -4.11940
H          7.33680       -0.43360       -5.64850
H          6.35890        1.66730       -3.64870
H          5.58280        1.27400       -5.18630
H          7.18840        2.01340       -5.17310
H          0.02420       -7.56250        4.05980
H          0.46450       -7.06560        5.70480
H          1.14340       -9.41850        5.27430
H          2.12810       -8.89480        3.90350
H          2.56340       -8.40360        5.54300
H          5.70610       -4.63320        3.17060
H          8.04090       -4.10640        2.15360
