176

C         -2.94720        3.58310        7.00930
S         -2.49340        3.45610        8.66480
C         -0.88910        2.98860        8.20570
C         -0.73740        2.93920        6.85220
C         -1.92600        3.27420        6.17030
S          0.33010        2.68420        9.43850
C          1.18670        1.36510        8.66350
C          2.52900        1.24580        8.53410
C          2.91670        0.06040        7.84740
C          4.20910       -0.30600        7.43910
C          5.38650        0.45640        7.87150
C          5.58410        0.73460        9.22380
C          6.69210        1.43910        9.64080
C          7.64880        1.89270        8.73350
S          9.04700        2.74550        9.39930
C          9.39080        4.07230        8.18470
C          8.19190        4.97510        7.97540
C          7.45050        1.58580        7.39090
F          8.34800        1.96110        6.45320
C          6.33850        0.89210        6.95710
C          4.30590       -1.41990        6.61780
C          3.18830       -2.21300        6.25570
C          1.89730       -1.86410        6.68710
C          0.71340       -2.63270        6.29030
C         -0.26870       -2.97650        7.22020
C         -1.38840       -3.67600        6.83320
C         -1.59570       -4.06750        5.50630
S         -3.09550       -4.95670        5.23690
C         -3.20790       -5.39660        3.46440
C         -3.71570       -4.25430        2.60760
C         -0.60650       -3.71870        4.59240
C          0.52330       -3.01970        4.96850
F         -0.70600       -4.03440        3.27720
C          1.79870       -0.72150        7.46850
S          0.30820       -0.00090        8.01430
C          3.56180       -3.29310        5.42020
C          4.88400       -3.30160        5.08920
S          5.77440       -2.02310        5.88870
C          5.47420       -4.07950        4.04920
S          4.47820       -5.20790        3.17830
C          5.67250       -5.31960        1.92170
C          6.80580       -4.62590        2.23120
C          6.69480       -3.92170        3.44090
S          5.31540       -6.14880        0.41440
C          4.10870       -5.04850       -0.25180
C          3.76550       -4.98980       -1.56160
C          2.75670       -4.02250       -1.83510
C          2.16050       -3.71960       -3.06850
C          2.57580       -4.35650       -4.32390
C          1.63280       -4.91240       -5.18320
C          2.00440       -5.46220       -6.39420
C          3.33450       -5.46230       -6.79770
S          3.93690       -6.11320       -8.32010
C          2.44780       -6.22500       -9.37200
C          1.89910       -4.86140       -9.74760
C          4.27260       -4.92230       -5.91550
F          5.57390       -4.91890       -6.26570
C          3.91680       -4.37930       -4.70140
C          1.16070       -2.75700       -3.05410
C          0.73710       -2.09590       -1.87690
C          1.31100       -2.41870       -0.63400
C          0.80440       -1.80340        0.59870
C          1.64550       -1.26520        1.57200
C          1.12520       -0.68030        2.70760
C         -0.25160       -0.59130        2.92400
S         -0.78790        0.19910        4.41090
C         -2.44450       -0.52290        4.74100
C         -2.80270       -0.32990        6.19950
C         -1.07670       -1.11150        1.93270
C         -0.56990       -1.72790        0.80810
F         -2.42570       -1.02060        2.02270
C          2.32940       -3.35920       -0.65830
S          3.20300       -3.92580        0.73930
C         -0.24240       -1.11040       -2.15150
C         -0.58570       -1.02670       -3.46700
S          0.30520       -2.16450       -4.45780
C         -1.57250       -0.16430       -4.02600
C         -1.94800       -0.01730       -5.32700
C         -3.00300        0.91440       -5.51080
C         -3.60450        1.32460       -6.71360
C         -3.23070        0.70150       -7.98800
C         -3.19400       -0.68520       -8.10800
C         -2.81830       -1.29430       -9.28920
C         -2.45740       -0.53380      -10.39600
S         -1.92990       -1.18120      -11.94390
C         -1.70910       -2.96720      -11.59580
C         -1.05640       -3.61970      -12.79990
C         -2.52520        0.85570      -10.27030
F         -2.19570        1.62140      -11.32920
C         -2.90280        1.47420       -9.10020
C         -4.56460        2.32080       -6.61980
C         -4.97040        2.90110       -5.39040
C         -4.38440        2.47720       -4.18820
C         -4.72980        3.04120       -2.87790
C         -5.02520        2.19880       -1.80890
C         -5.24200        2.70030       -0.54180
C         -5.15860        4.06560       -0.29410
S         -5.35700        4.80580        1.29380
C         -4.92590        3.45480        2.44810
C         -3.48240        3.01180        2.30980
C         -4.91310        4.90290       -1.38320
C         -4.70060        4.41570       -2.65450
F         -4.85750        6.23550       -1.18870
C         -3.41490        1.49090       -4.28580
S         -2.50640        0.85160       -2.94330
C         -6.00670        3.85100       -5.56840
C         -6.38370        4.01230       -6.86890
S         -5.47100        2.98250       -7.95670
C         -7.37980        4.88720       -7.38810
S         -8.27310        5.94310       -6.32270
C         -9.16680        6.58330       -7.66400
C         -8.79390        6.01290       -8.84810
C         -7.78200        5.05400       -8.68870
S        -10.39510        7.81380       -7.45480
H         -3.94600        3.88460        6.76400
H          0.17870        2.66870        6.35990
H         -2.00130        3.28920        5.09850
H          3.22040        1.99620        8.87060
H          4.86770        0.38250        9.95020
H          6.84170        1.65270       10.68770
H          9.73270        3.62370        7.25480
H         10.21730        4.61640        8.64180
H          7.85020        5.38300        8.92440
H          7.36930        4.42920        7.51720
H          8.46460        5.79840        7.31830
H          6.22770        0.70490        5.90060
H         -0.14240       -2.71070        8.25830
H         -2.14170       -3.94110        7.55890
H         -3.91950       -6.22340        3.46610
H         -2.24070       -5.76640        3.13370
H         -4.66540       -3.88520        2.98860
H         -3.85970       -4.60150        1.58660
H         -3.00700       -3.43230        2.58950
H          1.23020       -2.75470        4.19830
H          2.87450       -4.03050        5.04810
H          7.66420       -4.58970        1.58570
H          7.45780       -3.27010        3.82770
H          4.20790       -5.62120       -2.30960
H          0.59340       -4.93220       -4.89330
H          1.24430       -5.89740       -7.02230
H          1.70840       -6.84790       -8.87000
H          2.80370       -6.75550      -10.25520
H          2.65870       -4.28200      -10.26700
H          1.04000       -4.97820      -10.40600
H          1.59020       -4.30680       -8.86360
H          4.68040       -3.94750       -4.07380
H          2.71550       -1.29380        1.43360
H          1.78370       -0.27010        3.45890
H         -3.16840       -0.03070        4.09290
H         -2.38800       -1.58130        4.49540
H         -2.08750       -0.84080        6.83870
H         -2.80790        0.72650        6.45740
H         -3.79220       -0.74160        6.38510
H         -1.26470       -2.15430        0.10170
H         -0.66490       -0.45940       -1.40760
H         -1.46710       -0.54540       -6.13090
H         -3.48520       -1.29900       -7.26900
H         -2.81250       -2.37070       -9.34150
H         -2.69070       -3.40160      -11.40410
H         -1.07690       -3.05650      -10.71200
H         -0.92520       -4.68500      -12.62020
H         -1.67580       -3.49080      -13.68420
H         -0.08380       -3.17370      -12.99360
H         -2.91260        2.55160       -9.05650
H         -5.09820        1.13450       -1.97210
H         -5.47490        2.01580        0.25760
H         -5.10440        3.89870        3.42770
H         -5.62650        2.63240        2.30800
H         -3.25570        2.25470        3.05820
H         -2.81360        3.85770        2.45320
H         -3.29450        2.58880        1.32490
H         -4.47200        5.10600       -3.45140
H         -6.46970        4.38540       -4.75790
H         -9.23410        6.27960       -9.79110
H         -7.35240        4.49620       -9.50170
H        -10.23890        7.93750       -6.13810
