
  xtb     03072223593D
 energy: -311.249305439835 gnorm: 0.000336208866 xtb: 6.4.1 (unknown)
176193  0     0  0            999 V2000
   -2.9472    3.5831    7.0093 C   0  0  0  0  0  0  0  0  0  0  0  0
   -2.4934    3.4561    8.6648 S   0  0  0  0  0  0  0  0  0  0  0  0
   -0.8891    2.9886    8.2057 C   0  0  0  0  0  0  0  0  0  0  0  0
   -0.7374    2.9392    6.8522 C   0  0  0  0  0  0  0  0  0  0  0  0
   -1.9260    3.2742    6.1703 C   0  0  0  0  0  0  0  0  0  0  0  0
    0.3301    2.6842    9.4385 S   0  0  0  0  0  0  0  0  0  0  0  0
    1.1867    1.3651    8.6635 C   0  0  0  0  0  0  0  0  0  0  0  0
    2.5290    1.2458    8.5341 C   0  0  0  0  0  0  0  0  0  0  0  0
    2.9167    0.0604    7.8474 C   0  0  0  0  0  0  0  0  0  0  0  0
    4.2091   -0.3060    7.4391 C   0  0  0  0  0  0  0  0  0  0  0  0
    5.3865    0.4564    7.8715 C   0  0  0  0  0  0  0  0  0  0  0  0
    5.5841    0.7346    9.2238 C   0  0  0  0  0  0  0  0  0  0  0  0
    6.6921    1.4391    9.6408 C   0  0  0  0  0  0  0  0  0  0  0  0
    7.6488    1.8927    8.7335 C   0  0  0  0  0  0  0  0  0  0  0  0
    9.0470    2.7455    9.3993 S   0  0  0  0  0  0  0  0  0  0  0  0
    9.3908    4.0723    8.1847 C   0  0  0  0  0  0  0  0  0  0  0  0
    8.1919    4.9751    7.9754 C   0  0  0  0  0  0  0  0  0  0  0  0
    7.4505    1.5858    7.3909 C   0  0  0  0  0  0  0  0  0  0  0  0
    8.3480    1.9611    6.4532 F   0  0  0  0  0  0  0  0  0  0  0  0
    6.3385    0.8921    6.9571 C   0  0  0  0  0  0  0  0  0  0  0  0
    4.3059   -1.4199    6.6178 C   0  0  0  0  0  0  0  0  0  0  0  0
    3.1883   -2.2130    6.2557 C   0  0  0  0  0  0  0  0  0  0  0  0
    1.8973   -1.8641    6.6871 C   0  0  0  0  0  0  0  0  0  0  0  0
    0.7134   -2.6327    6.2903 C   0  0  0  0  0  0  0  0  0  0  0  0
   -0.2687   -2.9765    7.2202 C   0  0  0  0  0  0  0  0  0  0  0  0
   -1.3884   -3.6760    6.8332 C   0  0  0  0  0  0  0  0  0  0  0  0
   -1.5957   -4.0675    5.5063 C   0  0  0  0  0  0  0  0  0  0  0  0
   -3.0955   -4.9567    5.2369 S   0  0  0  0  0  0  0  0  0  0  0  0
   -3.2079   -5.3966    3.4644 C   0  0  0  0  0  0  0  0  0  0  0  0
   -3.7157   -4.2543    2.6076 C   0  0  0  0  0  0  0  0  0  0  0  0
   -0.6065   -3.7187    4.5924 C   0  0  0  0  0  0  0  0  0  0  0  0
    0.5233   -3.0197    4.9685 C   0  0  0  0  0  0  0  0  0  0  0  0
   -0.7060   -4.0344    3.2772 F   0  0  0  0  0  0  0  0  0  0  0  0
    1.7987   -0.7215    7.4685 C   0  0  0  0  0  0  0  0  0  0  0  0
    0.3082   -0.0009    8.0143 S   0  0  0  0  0  0  0  0  0  0  0  0
    3.5618   -3.2931    5.4202 C   0  0  0  0  0  0  0  0  0  0  0  0
    4.8840   -3.3016    5.0892 C   0  0  0  0  0  0  0  0  0  0  0  0
    5.7744   -2.0231    5.8887 S   0  0  0  0  0  0  0  0  0  0  0  0
    5.4742   -4.0795    4.0492 C   0  0  0  0  0  0  0  0  0  0  0  0
    4.4782   -5.2079    3.1783 S   0  0  0  0  0  0  0  0  0  0  0  0
    5.6725   -5.3196    1.9217 C   0  0  0  0  0  0  0  0  0  0  0  0
    6.8058   -4.6259    2.2312 C   0  0  0  0  0  0  0  0  0  0  0  0
    6.6948   -3.9217    3.4409 C   0  0  0  0  0  0  0  0  0  0  0  0
    5.3154   -6.1488    0.4144 S   0  0  0  0  0  0  0  0  0  0  0  0
    4.1087   -5.0485   -0.2518 C   0  0  0  0  0  0  0  0  0  0  0  0
    3.7655   -4.9898   -1.5616 C   0  0  0  0  0  0  0  0  0  0  0  0
    2.7567   -4.0225   -1.8351 C   0  0  0  0  0  0  0  0  0  0  0  0
    2.1605   -3.7196   -3.0685 C   0  0  0  0  0  0  0  0  0  0  0  0
    2.5758   -4.3565   -4.3239 C   0  0  0  0  0  0  0  0  0  0  0  0
    1.6328   -4.9124   -5.1832 C   0  0  0  0  0  0  0  0  0  0  0  0
    2.0044   -5.4622   -6.3942 C   0  0  0  0  0  0  0  0  0  0  0  0
    3.3345   -5.4623   -6.7977 C   0  0  0  0  0  0  0  0  0  0  0  0
    3.9369   -6.1132   -8.3201 S   0  0  0  0  0  0  0  0  0  0  0  0
    2.4478   -6.2250   -9.3720 C   0  0  0  0  0  0  0  0  0  0  0  0
    1.8991   -4.8614   -9.7476 C   0  0  0  0  0  0  0  0  0  0  0  0
    4.2726   -4.9223   -5.9155 C   0  0  0  0  0  0  0  0  0  0  0  0
    5.5739   -4.9189   -6.2657 F   0  0  0  0  0  0  0  0  0  0  0  0
    3.9168   -4.3793   -4.7014 C   0  0  0  0  0  0  0  0  0  0  0  0
    1.1607   -2.7570   -3.0541 C   0  0  0  0  0  0  0  0  0  0  0  0
    0.7371   -2.0959   -1.8769 C   0  0  0  0  0  0  0  0  0  0  0  0
    1.3110   -2.4187   -0.6340 C   0  0  0  0  0  0  0  0  0  0  0  0
    0.8044   -1.8034    0.5987 C   0  0  0  0  0  0  0  0  0  0  0  0
    1.6455   -1.2652    1.5720 C   0  0  0  0  0  0  0  0  0  0  0  0
    1.1252   -0.6803    2.7076 C   0  0  0  0  0  0  0  0  0  0  0  0
   -0.2516   -0.5913    2.9240 C   0  0  0  0  0  0  0  0  0  0  0  0
   -0.7879    0.1991    4.4109 S   0  0  0  0  0  0  0  0  0  0  0  0
   -2.4445   -0.5229    4.7410 C   0  0  0  0  0  0  0  0  0  0  0  0
   -2.8027   -0.3299    6.1995 C   0  0  0  0  0  0  0  0  0  0  0  0
   -1.0767   -1.1115    1.9327 C   0  0  0  0  0  0  0  0  0  0  0  0
   -0.5699   -1.7279    0.8081 C   0  0  0  0  0  0  0  0  0  0  0  0
   -2.4257   -1.0206    2.0227 F   0  0  0  0  0  0  0  0  0  0  0  0
    2.3294   -3.3592   -0.6583 C   0  0  0  0  0  0  0  0  0  0  0  0
    3.2030   -3.9258    0.7393 S   0  0  0  0  0  0  0  0  0  0  0  0
   -0.2424   -1.1104   -2.1515 C   0  0  0  0  0  0  0  0  0  0  0  0
   -0.5857   -1.0267   -3.4670 C   0  0  0  0  0  0  0  0  0  0  0  0
    0.3052   -2.1645   -4.4578 S   0  0  0  0  0  0  0  0  0  0  0  0
   -1.5725   -0.1643   -4.0260 C   0  0  0  0  0  0  0  0  0  0  0  0
   -1.9480   -0.0173   -5.3270 C   0  0  0  0  0  0  0  0  0  0  0  0
   -3.0030    0.9144   -5.5108 C   0  0  0  0  0  0  0  0  0  0  0  0
   -3.6045    1.3246   -6.7136 C   0  0  0  0  0  0  0  0  0  0  0  0
   -3.2307    0.7015   -7.9880 C   0  0  0  0  0  0  0  0  0  0  0  0
   -3.1940   -0.6852   -8.1080 C   0  0  0  0  0  0  0  0  0  0  0  0
   -2.8183   -1.2943   -9.2892 C   0  0  0  0  0  0  0  0  0  0  0  0
   -2.4574   -0.5338  -10.3960 C   0  0  0  0  0  0  0  0  0  0  0  0
   -1.9299   -1.1812  -11.9439 S   0  0  0  0  0  0  0  0  0  0  0  0
   -1.7091   -2.9672  -11.5958 C   0  0  0  0  0  0  0  0  0  0  0  0
   -1.0564   -3.6197  -12.7999 C   0  0  0  0  0  0  0  0  0  0  0  0
   -2.5252    0.8557  -10.2703 C   0  0  0  0  0  0  0  0  0  0  0  0
   -2.1957    1.6214  -11.3292 F   0  0  0  0  0  0  0  0  0  0  0  0
   -2.9028    1.4742   -9.1002 C   0  0  0  0  0  0  0  0  0  0  0  0
   -4.5646    2.3208   -6.6198 C   0  0  0  0  0  0  0  0  0  0  0  0
   -4.9704    2.9011   -5.3904 C   0  0  0  0  0  0  0  0  0  0  0  0
   -4.3844    2.4772   -4.1882 C   0  0  0  0  0  0  0  0  0  0  0  0
   -4.7298    3.0412   -2.8779 C   0  0  0  0  0  0  0  0  0  0  0  0
   -5.0252    2.1988   -1.8089 C   0  0  0  0  0  0  0  0  0  0  0  0
   -5.2420    2.7003   -0.5418 C   0  0  0  0  0  0  0  0  0  0  0  0
   -5.1586    4.0656   -0.2941 C   0  0  0  0  0  0  0  0  0  0  0  0
   -5.3570    4.8058    1.2938 S   0  0  0  0  0  0  0  0  0  0  0  0
   -4.9259    3.4548    2.4481 C   0  0  0  0  0  0  0  0  0  0  0  0
   -3.4824    3.0118    2.3098 C   0  0  0  0  0  0  0  0  0  0  0  0
   -4.9131    4.9029   -1.3832 C   0  0  0  0  0  0  0  0  0  0  0  0
   -4.7006    4.4157   -2.6545 C   0  0  0  0  0  0  0  0  0  0  0  0
   -4.8575    6.2355   -1.1887 F   0  0  0  0  0  0  0  0  0  0  0  0
   -3.4149    1.4909   -4.2858 C   0  0  0  0  0  0  0  0  0  0  0  0
   -2.5064    0.8516   -2.9433 S   0  0  0  0  0  0  0  0  0  0  0  0
   -6.0067    3.8510   -5.5684 C   0  0  0  0  0  0  0  0  0  0  0  0
   -6.3837    4.0123   -6.8689 C   0  0  0  0  0  0  0  0  0  0  0  0
   -5.4710    2.9825   -7.9567 S   0  0  0  0  0  0  0  0  0  0  0  0
   -7.3798    4.8872   -7.3881 C   0  0  0  0  0  0  0  0  0  0  0  0
   -8.2731    5.9431   -6.3227 S   0  0  0  0  0  0  0  0  0  0  0  0
   -9.1668    6.5833   -7.6640 C   0  0  0  0  0  0  0  0  0  0  0  0
   -8.7939    6.0129   -8.8481 C   0  0  0  0  0  0  0  0  0  0  0  0
   -7.7820    5.0540   -8.6887 C   0  0  0  0  0  0  0  0  0  0  0  0
  -10.3951    7.8138   -7.4548 S   0  0  0  0  0  0  0  0  0  0  0  0
   -3.9460    3.8846    6.7640 H   0  0  0  0  0  0  0  0  0  0  0  0
    0.1787    2.6687    6.3599 H   0  0  0  0  0  0  0  0  0  0  0  0
   -2.0013    3.2892    5.0985 H   0  0  0  0  0  0  0  0  0  0  0  0
    3.2204    1.9962    8.8706 H   0  0  0  0  0  0  0  0  0  0  0  0
    4.8677    0.3825    9.9502 H   0  0  0  0  0  0  0  0  0  0  0  0
    6.8417    1.6527   10.6877 H   0  0  0  0  0  0  0  0  0  0  0  0
    9.7327    3.6237    7.2548 H   0  0  0  0  0  0  0  0  0  0  0  0
   10.2173    4.6164    8.6418 H   0  0  0  0  0  0  0  0  0  0  0  0
    7.8502    5.3830    8.9244 H   0  0  0  0  0  0  0  0  0  0  0  0
    7.3693    4.4292    7.5172 H   0  0  0  0  0  0  0  0  0  0  0  0
    8.4646    5.7984    7.3183 H   0  0  0  0  0  0  0  0  0  0  0  0
    6.2277    0.7049    5.9006 H   0  0  0  0  0  0  0  0  0  0  0  0
   -0.1424   -2.7107    8.2583 H   0  0  0  0  0  0  0  0  0  0  0  0
   -2.1417   -3.9411    7.5589 H   0  0  0  0  0  0  0  0  0  0  0  0
   -3.9195   -6.2234    3.4661 H   0  0  0  0  0  0  0  0  0  0  0  0
   -2.2407   -5.7664    3.1337 H   0  0  0  0  0  0  0  0  0  0  0  0
   -4.6654   -3.8852    2.9886 H   0  0  0  0  0  0  0  0  0  0  0  0
   -3.8597   -4.6015    1.5866 H   0  0  0  0  0  0  0  0  0  0  0  0
   -3.0070   -3.4323    2.5895 H   0  0  0  0  0  0  0  0  0  0  0  0
    1.2302   -2.7547    4.1983 H   0  0  0  0  0  0  0  0  0  0  0  0
    2.8745   -4.0305    5.0481 H   0  0  0  0  0  0  0  0  0  0  0  0
    7.6642   -4.5897    1.5857 H   0  0  0  0  0  0  0  0  0  0  0  0
    7.4578   -3.2701    3.8277 H   0  0  0  0  0  0  0  0  0  0  0  0
    4.2079   -5.6212   -2.3096 H   0  0  0  0  0  0  0  0  0  0  0  0
    0.5934   -4.9322   -4.8933 H   0  0  0  0  0  0  0  0  0  0  0  0
    1.2443   -5.8974   -7.0223 H   0  0  0  0  0  0  0  0  0  0  0  0
    1.7084   -6.8479   -8.8700 H   0  0  0  0  0  0  0  0  0  0  0  0
    2.8037   -6.7555  -10.2552 H   0  0  0  0  0  0  0  0  0  0  0  0
    2.6587   -4.2820  -10.2670 H   0  0  0  0  0  0  0  0  0  0  0  0
    1.0400   -4.9782  -10.4060 H   0  0  0  0  0  0  0  0  0  0  0  0
    1.5902   -4.3068   -8.8636 H   0  0  0  0  0  0  0  0  0  0  0  0
    4.6804   -3.9475   -4.0738 H   0  0  0  0  0  0  0  0  0  0  0  0
    2.7155   -1.2938    1.4336 H   0  0  0  0  0  0  0  0  0  0  0  0
    1.7837   -0.2701    3.4589 H   0  0  0  0  0  0  0  0  0  0  0  0
   -3.1684   -0.0307    4.0929 H   0  0  0  0  0  0  0  0  0  0  0  0
   -2.3880   -1.5813    4.4954 H   0  0  0  0  0  0  0  0  0  0  0  0
   -2.0875   -0.8408    6.8387 H   0  0  0  0  0  0  0  0  0  0  0  0
   -2.8079    0.7265    6.4574 H   0  0  0  0  0  0  0  0  0  0  0  0
   -3.7922   -0.7416    6.3851 H   0  0  0  0  0  0  0  0  0  0  0  0
   -1.2647   -2.1543    0.1017 H   0  0  0  0  0  0  0  0  0  0  0  0
   -0.6649   -0.4594   -1.4076 H   0  0  0  0  0  0  0  0  0  0  0  0
   -1.4671   -0.5454   -6.1309 H   0  0  0  0  0  0  0  0  0  0  0  0
   -3.4852   -1.2990   -7.2690 H   0  0  0  0  0  0  0  0  0  0  0  0
   -2.8125   -2.3707   -9.3415 H   0  0  0  0  0  0  0  0  0  0  0  0
   -2.6907   -3.4016  -11.4041 H   0  0  0  0  0  0  0  0  0  0  0  0
   -1.0769   -3.0565  -10.7120 H   0  0  0  0  0  0  0  0  0  0  0  0
   -0.9252   -4.6850  -12.6202 H   0  0  0  0  0  0  0  0  0  0  0  0
   -1.6758   -3.4908  -13.6842 H   0  0  0  0  0  0  0  0  0  0  0  0
   -0.0838   -3.1737  -12.9936 H   0  0  0  0  0  0  0  0  0  0  0  0
   -2.9126    2.5516   -9.0565 H   0  0  0  0  0  0  0  0  0  0  0  0
   -5.0982    1.1345   -1.9721 H   0  0  0  0  0  0  0  0  0  0  0  0
   -5.4749    2.0158    0.2576 H   0  0  0  0  0  0  0  0  0  0  0  0
   -5.1044    3.8987    3.4277 H   0  0  0  0  0  0  0  0  0  0  0  0
   -5.6265    2.6324    2.3080 H   0  0  0  0  0  0  0  0  0  0  0  0
   -3.2557    2.2547    3.0582 H   0  0  0  0  0  0  0  0  0  0  0  0
   -2.8136    3.8577    2.4532 H   0  0  0  0  0  0  0  0  0  0  0  0
   -3.2945    2.5888    1.3249 H   0  0  0  0  0  0  0  0  0  0  0  0
   -4.4720    5.1060   -3.4514 H   0  0  0  0  0  0  0  0  0  0  0  0
   -6.4697    4.3854   -4.7579 H   0  0  0  0  0  0  0  0  0  0  0  0
   -9.2341    6.2796   -9.7911 H   0  0  0  0  0  0  0  0  0  0  0  0
   -7.3524    4.4962   -9.5017 H   0  0  0  0  0  0  0  0  0  0  0  0
  -10.2389    7.9375   -6.1381 H   0  0  0  0  0  0  0  0  0  0  0  0
  1  2  1  0  0  0  0
  2  3  1  0  0  0  0
  3  4  2  0  0  0  0
  4  5  1  0  0  0  0
  3  6  1  0  0  0  0
  6  7  1  0  0  0  0
  7  8  2  0  0  0  0
  8  9  1  0  0  0  0
  9 10  2  0  0  0  0
 10 11  1  0  0  0  0
 11 12  2  0  0  0  0
 12 13  1  0  0  0  0
 13 14  2  0  0  0  0
 14 15  1  0  0  0  0
 15 16  1  0  0  0  0
 16 17  1  0  0  0  0
 14 18  1  0  0  0  0
 18 19  1  0  0  0  0
 18 20  2  0  0  0  0
 10 21  1  0  0  0  0
 21 22  2  0  0  0  0
 22 23  1  0  0  0  0
 23 24  1  0  0  0  0
 24 25  2  0  0  0  0
 25 26  1  0  0  0  0
 26 27  2  0  0  0  0
 27 28  1  0  0  0  0
 28 29  1  0  0  0  0
 29 30  1  0  0  0  0
 27 31  1  0  0  0  0
 31 32  2  0  0  0  0
 31 33  1  0  0  0  0
 23 34  2  0  0  0  0
 34 35  1  0  0  0  0
 22 36  1  0  0  0  0
 36 37  2  0  0  0  0
 37 38  1  0  0  0  0
 37 39  1  0  0  0  0
 39 40  1  0  0  0  0
 40 41  1  0  0  0  0
 41 42  2  0  0  0  0
 42 43  1  0  0  0  0
 41 44  1  0  0  0  0
 44 45  1  0  0  0  0
 45 46  2  0  0  0  0
 46 47  1  0  0  0  0
 47 48  2  0  0  0  0
 48 49  1  0  0  0  0
 49 50  2  0  0  0  0
 50 51  1  0  0  0  0
 51 52  2  0  0  0  0
 52 53  1  0  0  0  0
 53 54  1  0  0  0  0
 54 55  1  0  0  0  0
 52 56  1  0  0  0  0
 56 57  1  0  0  0  0
 56 58  2  0  0  0  0
 48 59  1  0  0  0  0
 59 60  2  0  0  0  0
 60 61  1  0  0  0  0
 61 62  1  0  0  0  0
 62 63  2  0  0  0  0
 63 64  1  0  0  0  0
 64 65  2  0  0  0  0
 65 66  1  0  0  0  0
 66 67  1  0  0  0  0
 67 68  1  0  0  0  0
 65 69  1  0  0  0  0
 69 70  2  0  0  0  0
 69 71  1  0  0  0  0
 61 72  2  0  0  0  0
 72 73  1  0  0  0  0
 60 74  1  0  0  0  0
 74 75  2  0  0  0  0
 75 76  1  0  0  0  0
 75 77  1  0  0  0  0
 77 78  2  0  0  0  0
 78 79  1  0  0  0  0
 79 80  2  0  0  0  0
 80 81  1  0  0  0  0
 81 82  2  0  0  0  0
 82 83  1  0  0  0  0
 83 84  2  0  0  0  0
 84 85  1  0  0  0  0
 85 86  1  0  0  0  0
 86 87  1  0  0  0  0
 84 88  1  0  0  0  0
 88 89  1  0  0  0  0
 88 90  2  0  0  0  0
 80 91  1  0  0  0  0
 91 92  2  0  0  0  0
 92 93  1  0  0  0  0
 93 94  1  0  0  0  0
 94 95  2  0  0  0  0
 95 96  1  0  0  0  0
 96 97  2  0  0  0  0
 97 98  1  0  0  0  0
 98 99  1  0  0  0  0
 99100  1  0  0  0  0
 97101  1  0  0  0  0
101102  2  0  0  0  0
101103  1  0  0  0  0
 93104  2  0  0  0  0
104105  1  0  0  0  0
 92106  1  0  0  0  0
106107  2  0  0  0  0
107108  1  0  0  0  0
107109  1  0  0  0  0
109110  1  0  0  0  0
110111  1  0  0  0  0
111112  2  0  0  0  0
112113  1  0  0  0  0
111114  1  0  0  0  0
  5  1  2  0  0  0  0
 35  7  1  0  0  0  0
 43 39  2  0  0  0  0
 73 45  1  0  0  0  0
105 77  1  0  0  0  0
113109  2  0  0  0  0
 34  9  1  0  0  0  0
 72 47  1  0  0  0  0
104 79  1  0  0  0  0
 20 11  1  0  0  0  0
 38 21  1  0  0  0  0
 58 49  1  0  0  0  0
 76 59  1  0  0  0  0
 90 81  1  0  0  0  0
108 91  1  0  0  0  0
 32 24  1  0  0  0  0
 70 62  1  0  0  0  0
102 94  1  0  0  0  0
  1115  1  0  0  0  0
  4116  1  0  0  0  0
  5117  1  0  0  0  0
  8118  1  0  0  0  0
 12119  1  0  0  0  0
 13120  1  0  0  0  0
 16121  1  0  0  0  0
 16122  1  0  0  0  0
 17123  1  0  0  0  0
 17124  1  0  0  0  0
 17125  1  0  0  0  0
 20126  1  0  0  0  0
 25127  1  0  0  0  0
 26128  1  0  0  0  0
 29129  1  0  0  0  0
 29130  1  0  0  0  0
 30131  1  0  0  0  0
 30132  1  0  0  0  0
 30133  1  0  0  0  0
 32134  1  0  0  0  0
 36135  1  0  0  0  0
 42136  1  0  0  0  0
 43137  1  0  0  0  0
 46138  1  0  0  0  0
 50139  1  0  0  0  0
 51140  1  0  0  0  0
 54141  1  0  0  0  0
 54142  1  0  0  0  0
 55143  1  0  0  0  0
 55144  1  0  0  0  0
 55145  1  0  0  0  0
 58146  1  0  0  0  0
 63147  1  0  0  0  0
 64148  1  0  0  0  0
 67149  1  0  0  0  0
 67150  1  0  0  0  0
 68151  1  0  0  0  0
 68152  1  0  0  0  0
 68153  1  0  0  0  0
 70154  1  0  0  0  0
 74155  1  0  0  0  0
 78156  1  0  0  0  0
 82157  1  0  0  0  0
 83158  1  0  0  0  0
 86159  1  0  0  0  0
 86160  1  0  0  0  0
 87161  1  0  0  0  0
 87162  1  0  0  0  0
 87163  1  0  0  0  0
 90164  1  0  0  0  0
 95165  1  0  0  0  0
 96166  1  0  0  0  0
 99167  1  0  0  0  0
 99168  1  0  0  0  0
100169  1  0  0  0  0
100170  1  0  0  0  0
100171  1  0  0  0  0
102172  1  0  0  0  0
106173  1  0  0  0  0
112174  1  0  0  0  0
113175  1  0  0  0  0
114176  1  0  0  0  0
M  END
