238

C          2.46220       -2.05350        8.36620
C          2.03660       -1.17870        7.43250
C          2.22210       -1.65510        6.10090
C          1.88320       -1.02300        4.89450
C          1.21950        0.28860        4.86450
C          1.71280        1.31010        4.05860
C          1.10540        2.54950        4.02010
C         -0.03060        2.80860        4.77590
S         -0.87880        4.35170        4.82300
C         -0.33800        5.20270        3.30030
C          0.87110        6.09120        3.52430
C         -0.52040        1.77520        5.57580
F         -1.62890        1.98730        6.31750
C          0.08220        0.53920        5.63340
C          2.22650       -1.69250        3.72810
C          2.87650       -2.95130        3.71270
C          3.17470       -3.60170        4.91900
C          3.75970       -4.94680        4.93820
C          3.17100       -5.97720        4.21130
C          3.67920       -7.26060        4.24960
C          4.81080       -7.55500        5.00110
S          5.56270       -9.14010        5.15640
C          4.70450      -10.17140        3.91850
C          5.12720       -9.84290        2.49870
C          5.39330       -6.50930        5.72060
C          4.88700       -5.22990        5.70600
F          6.49370       -6.75990        6.45840
C          2.84880       -2.92460        6.08700
S          3.12680       -3.50710        7.70670
C          3.20450       -3.36420        2.39190
C          2.78010       -2.50820        1.42420
S          1.89540       -1.14110        2.10550
C          3.24190       -2.40330        0.07010
S          4.94920       -2.65240       -0.16210
C          4.94300       -1.82250       -1.64430
C          3.68240       -1.38170       -1.98780
C          2.67570       -1.78070       -1.03950
C          1.29780       -1.61590       -1.38850
C          1.01660       -0.87690       -2.51500
C          2.00750       -0.29420       -3.31710
C          3.33130       -0.55510       -3.09210
O          4.28460       -0.00260       -3.88670
C          0.22230       -2.33310       -0.72230
C         -0.70110       -2.99320       -1.44940
C         -1.77680       -3.77300       -0.92810
S         -2.28160       -3.55990        0.72310
C         -3.33100       -4.89790        0.65720
C         -3.30230       -5.51340       -0.57310
C         -2.46120       -4.83890       -1.51950
C         -2.39520       -5.33930       -2.85730
C         -3.00530       -6.53820       -3.13250
C         -3.76720       -7.23820       -2.17930
C         -3.96560       -6.72260       -0.92850
O         -4.74350       -7.30590        0.01620
C         -1.84860       -4.53010       -3.93470
C         -1.02870       -4.90830       -4.92320
C         -0.56300       -3.91070       -5.86200
C          0.72590       -3.60520       -6.17840
C          0.88680       -2.28790       -6.69510
C          2.05520       -1.50140       -6.72370
C          3.36660       -1.99230       -6.28440
C          3.51080       -2.76380       -5.13170
C          4.76240       -3.10500       -4.66590
C          5.91930       -2.65980       -5.30050
S          7.46370       -2.99910       -4.49690
C          8.59470       -3.44510       -5.86090
C          8.07690       -4.62470       -6.65780
C          5.76430       -1.89230       -6.45000
F          6.84230       -1.41510       -7.10900
C          4.51730       -1.57740       -6.94930
C          1.88390       -0.13660       -6.92800
C          0.62360        0.45740       -7.18520
C         -0.53030       -0.33440       -7.22750
C         -1.87080        0.27780       -7.29190
C         -2.71370        0.09660       -8.38220
C         -3.94600        0.71560       -8.42000
C         -4.39520        1.51380       -7.36820
S         -5.99790        2.23530       -7.53830
C         -5.89710        3.83410       -6.65180
C         -4.78990        4.72060       -7.18370
C         -3.56260        1.63360       -6.25960
C         -2.31500        1.04600       -6.22200
F         -3.94260        2.33030       -5.16640
C         -0.37020       -1.67370       -6.92600
S         -1.69110       -2.69470       -6.42960
C          0.61720        1.85310       -6.93210
C          1.76100        2.28660       -6.32050
S          3.05050        1.08800       -6.45470
C          1.71000        3.17500       -5.19660
C          2.37900        2.93420       -4.02820
C          1.62460        3.24730       -2.86530
C          1.86090        2.75630       -1.56290
C          3.20350        2.31930       -1.18660
C          3.45720        1.28050       -0.29100
C          4.74670        0.90310        0.00860
C          5.85080        1.52620       -0.57210
S          7.43760        0.88710       -0.13510
C          8.51000        1.21060       -1.58420
C          7.99970        0.55000       -2.84930
C          5.58930        2.60850       -1.40760
F          6.59590        3.33520       -1.94540
C          4.30350        2.99740       -1.71510
C          0.74400        2.70050       -0.72980
C         -0.49450        3.31150       -1.05510
C         -0.67300        3.94200       -2.29960
C         -1.94110        4.55460       -2.71330
C         -1.94740        5.81610       -3.30680
C         -3.12980        6.39870       -3.70860
C         -4.34890        5.74300       -3.55210
S         -5.80210        6.57090       -4.13350
C         -7.06620        6.20030       -2.86210
C         -6.63290        6.64790       -1.48110
C         -4.32310        4.46570       -3.00170
C         -3.14940        3.87900       -2.57530
F         -5.45970        3.74990       -2.87000
C          0.37980        3.83350       -3.19290
S          0.23800        4.10750       -4.91620
C         -1.47450        3.10500       -0.04790
C         -1.06450        2.27780        0.95100
S          0.61580        1.82500        0.77780
C         -1.86550        1.74800        2.01840
C         -1.84660        0.49630        2.55380
C         -2.82260        0.29740        3.57150
C         -3.14590       -0.87100        4.28520
C         -2.50170       -2.17550        4.07350
C         -1.11800       -2.31170        4.02860
C         -0.53130       -3.55930        3.96170
C         -1.29930       -4.71250        3.91950
S         -0.50240       -6.30370        3.93520
C         -0.92230       -6.90620        2.25570
C         -0.01240       -6.29550        1.20730
C         -2.68100       -4.56940        3.93370
F         -3.47230       -5.66020        3.88330
C         -3.28210       -3.32890        3.99700
C         -4.13140       -0.74980        5.26120
C         -4.82570        0.45220        5.52890
C         -4.56310        1.59410        4.76380
C         -5.30580        2.84450        4.96490
C         -4.63670        4.04660        5.18310
C         -5.34420        5.21410        5.37670
C         -6.73610        5.23140        5.34610
S         -7.54960        6.79160        5.55550
C         -8.90010        6.40310        6.73000
C         -8.36980        5.83230        8.02990
C         -7.38920        4.02760        5.10150
C         -6.69650        2.84630        4.93030
F         -8.73820        3.97650        5.02080
C         -3.56380        1.48380        3.81060
S         -3.10040        2.76450        2.72770
C         -5.72080        0.31820        6.63170
C         -5.70690       -0.91700        7.16930
S         -4.62190       -2.00460        6.37420
H          2.43740       -1.94100        9.43250
H          1.61710       -0.21710        7.66550
H          2.60270        1.14880        3.47040
H          1.53370        3.31510        3.39510
H         -1.20360        5.79720        3.00750
H         -0.16500        4.44340        2.53940
H          1.72750        5.51700        3.87090
H          1.13970        6.58820        2.59380
H          0.64650        6.84910        4.27110
H         -0.35440       -0.22720        6.25550
H          2.27640       -5.78420        3.64020
H          3.17070       -8.03320        3.69660
H          3.63020      -10.07360        4.06950
H          5.00040      -11.18640        4.18340
H          4.88910       -8.81180        2.24720
H          4.61520      -10.49970        1.79780
H          6.19970       -9.98240        2.38640
H          5.38450       -4.46180        6.27640
H          3.77820       -4.24850        2.17850
H          5.86780       -1.71680       -2.17720
H         -0.01540       -0.71610       -2.78870
H          1.71890        0.33340       -4.14180
H          5.15520       -0.34010       -3.64520
H          0.20640       -2.38460        0.35710
H         -0.58360       -3.01630       -2.52380
H         -3.92030       -5.18540        1.50300
H         -2.95350       -6.93070       -4.13710
H         -4.23950       -8.16890       -2.46250
H         -5.14230       -8.11130       -0.33570
H         -2.18860       -3.49970       -3.92510
H         -0.59110       -5.89580       -4.95860
H          1.54380       -4.26790       -5.96310
H          2.64280       -3.05580       -4.56290
H          4.86470       -3.69990       -3.77140
H          8.75390       -2.56820       -6.48470
H          9.52420       -3.69140       -5.34710
H          7.89990       -5.47890       -6.00720
H          7.14460       -4.37310       -7.16090
H          8.80910       -4.90510       -7.41220
H          4.45690       -0.98300       -7.84770
H         -2.39060       -0.51320       -9.21200
H         -4.59110        0.59440       -9.27610
H         -5.79540        3.64170       -5.58720
H         -6.87480        4.27870       -6.83800
H         -4.85320        5.69840       -6.71090
H         -3.81000        4.30030       -6.96550
H         -4.88390        4.84420       -8.26070
H         -1.70630        1.17720       -5.33970
H         -0.27480        2.45010       -6.99140
H          3.28400        2.35350       -4.00210
H          2.64320        0.72660        0.14420
H          4.92810        0.09610        0.70130
H          9.46510        0.78260       -1.27910
H          8.62660        2.28500       -1.70520
H          7.03740        0.96550       -3.14380
H          8.70410        0.72570       -3.65960
H          7.90040       -0.52490       -2.70880
H          4.17320        3.85820       -2.35200
H         -1.01840        6.35140       -3.43140
H         -3.13120        7.38160       -4.15350
H         -7.29870        5.13820       -2.89320
H         -7.93400        6.76410       -3.20470
H         -7.44170        6.48260       -0.77240
H         -5.76350        6.08580       -1.14460
H         -6.38070        7.70640       -1.48310
H         -3.18920        2.87370       -2.18710
H         -2.46610        3.51790       -0.08420
H         -1.17270       -0.26670        2.20810
H         -0.49930       -1.43300        4.08180
H          0.54140       -3.65940        3.96300
H         -0.79910       -7.98730        2.30590
H         -1.96920       -6.67730        2.06720
H         -0.32410       -6.61170        0.21300
H         -0.05080       -5.20850        1.24930
H          1.01750       -6.60770        1.36650
H         -4.35950       -3.27590        3.99290
H         -3.56000        4.05760        5.23830
H         -4.82460        6.14130        5.56100
H         -9.60660        5.73150        6.24730
H         -9.38040        7.36820        6.89040
H         -7.87900        4.87530        7.86100
H         -7.65040        6.51300        8.48030
H         -9.19170        5.67990        8.72660
H         -7.25020        1.94000        4.73690
H         -6.32180        1.12740        7.00420
H         -6.27540       -1.28250        8.00220
