230

C          2.01730       -5.31220        1.29690
C          1.74810       -3.99560        1.41170
C          0.57030       -3.73590        2.17300
C          0.03470       -2.49460        2.55610
C          0.59090       -1.25590        2.03320
S          0.72840       -1.03150        0.31210
C          1.39550        0.55630        0.49160
C          1.80260        1.35080       -0.69950
C          2.97920        0.70120       -1.42850
C          1.49860        0.87980        1.81110
Cl         2.11670        2.37560        2.38400
C          1.04060       -0.14420        2.68690
Cl         1.14280       -0.00830        4.38770
C         -1.05520       -2.51990        3.41790
C         -1.67580       -3.72510        3.83090
C         -1.18270       -4.96020        3.38990
C         -1.87920       -6.19920        3.70150
S         -2.55120       -7.16100        2.41990
C         -3.23940       -8.29690        3.52920
C         -4.07490       -9.42700        3.03900
C         -5.44740       -8.92650        2.58250
C         -2.95470       -7.93820        4.81240
C         -2.18310       -6.74800        4.91320
Cl        -1.64870       -6.10950        6.41510
Cl        -3.46440       -8.82030        6.19400
C         -0.03930       -4.93480        2.60510
S          0.86190       -6.32990        2.08920
C         -2.77680       -3.49410        4.69230
C         -3.00060       -2.17520        4.94760
S         -1.86750       -1.13890        4.09690
C         -3.90790       -1.62810        5.91380
S         -3.27390       -0.40130        6.96220
C         -4.63040       -0.47110        7.98150
C         -5.56720       -1.38470        7.54330
C         -5.17630       -2.03870        6.31930
C         -6.12670       -2.88020        5.65440
C         -7.29980       -3.16450        6.32260
C         -7.62330       -2.62830        7.57410
C         -6.80050       -1.71300        8.17580
O         -7.17880       -1.14510        9.34690
C         -5.95570       -3.29930        4.27860
C         -6.97740       -3.37470        3.40760
C         -6.81810       -3.59030        2.00190
C         -7.64210       -3.09140        1.03580
C         -7.12810       -3.22120       -0.27680
C         -7.63310       -2.62250       -1.44460
C         -8.90220       -1.90970       -1.43370
S        -10.37860       -2.73720       -1.03260
C        -11.33330       -1.31260       -1.26760
C        -12.81550       -1.34300       -1.13070
C        -13.47590       -1.76600       -2.44520
C        -10.53970       -0.26830       -1.63620
Cl       -11.12650        1.31210       -1.95450
C         -9.16040       -0.60040       -1.72600
Cl        -7.95650        0.56680       -2.08230
C         -6.82980       -2.68160       -2.57420
C         -5.62900       -3.42850       -2.60250
C         -5.18290       -4.13100       -1.46490
C         -4.01160       -4.97690       -1.60310
S         -2.60460       -4.89340       -0.58240
C         -1.74200       -6.03750       -1.55530
C         -0.35020       -6.46180       -1.24520
C         -0.31940       -7.87610       -0.66300
C         -2.52170       -6.47290       -2.58530
C         -3.80610       -5.87700       -2.61680
Cl        -4.98580       -6.30340       -3.78920
Cl        -2.00060       -7.59900       -3.76990
C         -5.89730       -3.92540       -0.29370
S         -5.40760       -4.38110        1.31580
C         -4.89610       -3.19890       -3.78910
C         -5.48460       -2.29980       -4.63190
S         -7.05850       -1.79820       -4.06030
C         -4.74930       -1.58180       -5.62890
C         -3.56320       -1.97360       -6.17720
C         -2.76820       -0.89380       -6.63550
C         -1.39110       -0.93700       -6.93070
C         -0.73380       -2.22040       -7.09290
S          0.67440       -2.66180       -6.17270
C          0.70260       -4.25970       -6.83870
C          1.70130       -5.26260       -6.37760
C          1.30880       -5.83100       -5.01140
C         -0.31820       -4.42390       -7.72700
Cl        -0.61230       -5.87440       -8.59540
C         -1.13520       -3.27100       -7.87280
Cl        -2.45620       -3.20410       -8.96560
C         -0.70740        0.27040       -6.88750
C         -1.35930        1.51230       -6.68280
C         -2.74930        1.56120       -6.49130
C         -3.42090        2.79970       -6.11620
S         -4.74610        3.44080       -7.03420
C         -4.96900        4.76090       -5.93650
C         -6.07140        5.74240       -6.12780
C         -7.38900        5.18980       -5.57840
C         -4.06960        4.68600       -4.91520
C         -3.18860        3.57670       -5.01590
Cl        -2.01200        3.22930       -3.81290
Cl        -3.98260        5.80910       -3.62140
C         -3.42020        0.34890       -6.45110
S         -5.03690        0.13770       -5.83440
C         -0.43950        2.56650       -6.46940
C          0.85750        2.14750       -6.40860
S          1.02520        0.45590       -6.84860
C          1.89900        2.81550       -5.68930
C          1.63520        3.66460       -4.65310
C          2.74140        3.88200       -3.80310
C          2.70590        4.47020       -2.52620
C          1.51590        5.17350       -2.08610
S          0.72790        4.81980       -0.57640
C         -0.53270        5.96660       -0.87530
C         -1.60950        6.20030        0.12490
C         -1.11190        7.08580        1.26940
C         -0.33100        6.59470       -2.06820
Cl        -1.35580        7.81880       -2.69490
C          0.82060        6.13940       -2.76280
Cl         1.31080        6.80290       -4.26730
C          3.81250        4.25660       -1.71720
C          4.98770        3.60710       -2.17350
C          5.05540        3.10760       -3.48880
C          6.23340        2.43490       -4.00500
S          7.02640        1.15250       -3.13660
C          8.19490        0.91590       -4.38980
C          9.22910       -0.15060       -4.29290
C          8.70740       -1.46950       -4.86840
C          7.96540        1.77890       -5.41940
C          6.85550        2.63960       -5.20680
Cl         6.41380        3.86090       -6.32420
Cl         8.92320        1.84520       -6.84100
C          3.89900        3.20600       -4.25590
S          3.58270        2.34660       -5.74210
C          5.94700        3.47830       -1.13900
C          5.51190        3.94600        0.06620
S          3.92190        4.66530       -0.03070
C          6.16180        3.80170        1.33180
C          7.48110        3.55890        1.57300
C          7.77070        3.33840        2.94330
C          9.01570        3.07880        3.54090
C         10.23050        2.98570        2.74830
S         10.32970        1.91820        1.37690
C         11.97500        2.35100        1.05560
C         12.73510        1.71190       -0.05360
C         13.20510        0.30970        0.33960
C         12.40850        3.26440        1.96850
Cl        13.98660        3.93740        1.97590
C         11.42310        3.62920        2.92660
Cl        11.70510        4.82630        4.11930
C          9.02470        2.88040        4.91740
C          7.85360        2.92990        5.71270
C          6.61620        3.22420        5.12100
C          5.39010        3.29260        5.90010
S          3.99550        2.34940        5.46610
C          3.07010        2.96420        6.79130
C          1.65510        2.55090        6.99830
C          0.72240        3.27170        6.02280
C          3.80750        3.85800        7.50950
C          5.12540        4.04200        7.01200
Cl         6.23180        5.15620        7.70690
Cl         3.22550        4.68970        8.89410
C          6.60750        3.41870        3.74600
S          5.20340        3.79500        2.79520
C          8.12570        2.59240        7.07060
C          9.42670        2.31500        7.28990
S         10.41080        2.44070        5.87390
H          2.84430       -5.77270        0.79270
H          2.36630       -3.22290        0.99360
H          2.07430        2.35310       -0.36640
H          0.95800        1.43620       -1.38750
H          3.23310        1.27630       -2.31410
H          2.72060       -0.30970       -1.73490
H          3.85250        0.65920       -0.78180
H         -4.19350      -10.15130        3.84630
H         -3.57190       -9.91560        2.20200
H         -5.96950       -8.45040        3.40880
H         -6.04800       -9.75770        2.22330
H         -5.33560       -8.20100        1.77990
H         -3.33550       -4.28250        5.16150
H         -4.65770        0.16140        8.84820
H         -8.00840       -3.83600        5.86280
H         -8.54720       -2.89700        8.05970
H         -6.49890       -0.54190        9.66680
H         -4.95630       -3.45190        3.90220
H         -7.98430       -3.12890        3.71780
H         -8.55420       -2.56930        1.26170
H        -13.16210       -0.34590       -0.85250
H        -13.09290       -2.04450       -0.34210
H        -13.13940       -2.75880       -2.73420
H        -14.55640       -1.78240       -2.33170
H        -13.21870       -1.06750       -3.23730
H          0.23550       -6.44180       -2.16770
H          0.08870       -5.75510       -0.54200
H         -0.91330       -7.92330        0.24580
H          0.70250       -8.15870       -0.42650
H         -0.72040       -8.58640       -1.38020
H         -3.90590       -3.58250       -3.95130
H         -3.22250       -2.99210       -6.15990
H          2.68330       -4.79110       -6.30500
H          1.75230       -6.06850       -7.11130
H          1.25150       -5.03140       -4.27580
H          0.34010       -6.32060       -5.07070
H          2.04700       -6.55850       -4.68410
H         -6.18460        5.96040       -7.19120
H         -5.81390        6.66600       -5.60620
H         -8.18660        5.91340       -5.72300
H         -7.29630        4.98000       -4.51580
H         -7.65430        4.26840       -6.09140
H         -0.73640        3.58380       -6.29770
H          0.64770        4.02110       -4.43120
H         -1.94400        5.24220        0.52770
H         -2.45150        6.68170       -0.37590
H         -0.27450        6.61090        1.77540
H         -1.90960        7.24810        1.98920
H         -0.78630        8.04990        0.88680
H          9.50540       -0.29330       -3.24680
H         10.11220        0.16600       -4.85110
H          7.82920       -1.79970       -4.31880
H          9.47380       -2.23650       -4.79800
H          8.43610       -1.34230       -5.91320
H          6.90200        3.00460       -1.26560
H          8.22430        3.54830        0.79800
H         13.59820        2.33680       -0.28860
H         12.09920        1.64590       -0.93880
H         13.76050       -0.14140       -0.47820
H         13.85030        0.36020        1.21290
H         12.35140       -0.32180        0.57420
H          1.56660        1.47330        6.84770
H          1.36980        2.78480        8.02550
H          1.00670        3.04900        4.99780
H         -0.30220        2.94430        6.17790
H          0.77510        4.34710        6.17330
H          7.36990        2.54940        7.83260
H          9.89430        2.03650        8.21400
