221

C          5.77960       -4.24180        8.12540
C          6.06520       -4.24310        6.80770
C          4.89720       -4.22650        5.98990
C          4.81890       -4.27070        4.59060
C          6.01270       -4.20260        3.76230
S          7.10380       -2.85790        3.91590
C          8.12700       -3.44120        2.64800
C          9.34580       -2.68800        2.24080
C          9.07060       -1.19090        2.12590
C          7.63980       -4.61240        2.15000
Cl         8.38550       -5.50280        0.88690
C          6.43870       -5.04640        2.77630
Cl         5.66530       -6.51920        2.36610
C          3.54950       -4.34300        4.03330
C          2.36010       -4.33090        4.80580
C          2.43930       -4.25140        6.20720
C          1.25900       -4.19430        7.05370
S          1.11800       -2.96180        8.27730
C         -0.40660       -3.55950        8.82810
C         -1.14030       -2.89700        9.94110
C         -2.09280       -1.81930        9.42020
C         -0.78140       -4.64070        8.08870
C          0.15900       -5.00650        7.08640
Cl        -0.05870       -6.39660        6.09900
Cl        -2.24000       -5.50780        8.34320
C          3.71430       -4.21260        6.76270
S          4.08230       -4.20660        8.46600
C          1.20610       -4.36990        3.98520
C          1.48570       -4.43390        2.65060
S          3.20330       -4.40480        2.33260
C          0.55640       -4.53890        1.57070
C         -0.80600       -4.56560        1.65090
C         -1.44310       -4.66680        0.39140
C         -2.82250       -4.66270        0.11690
C         -3.78860       -4.67770        1.20310
S         -3.72160       -5.91830        2.42150
C         -5.07790       -5.26360        3.27650
C         -5.54560       -5.87810        4.54950
C         -4.56420       -5.59850        5.68950
C         -5.53860       -4.14740        2.64470
Cl        -6.86080       -3.20520        3.20220
C         -4.81380       -3.81370        1.46700
Cl        -5.15140       -2.40630        0.55000
C         -3.19640       -4.63410       -1.21890
C         -2.26260       -4.65430       -2.28780
C         -0.89160       -4.79240       -2.00890
C          0.09180       -5.09110       -3.03840
S          0.32230       -4.14980       -4.47990
C          1.56690       -5.20360       -5.06920
C          2.22010       -4.99910       -6.39140
C          1.32900       -5.50160       -7.52980
C          1.77110       -6.22490       -4.19130
C          0.94260       -6.16380       -3.04040
Cl         0.96460       -7.38620       -1.83890
Cl         2.91430       -7.48190       -4.43110
C         -0.51220       -4.73830       -0.67140
S          1.12220       -4.67310       -0.07940
C         -2.90490       -4.55310       -3.54860
C         -4.26300       -4.49800       -3.46750
S         -4.83210       -4.60460       -1.81180
C         -5.21400       -4.25420       -4.50860
S         -4.80860       -3.16920       -5.82030
C         -6.44040       -3.23030       -6.40570
C         -7.21580       -4.08390       -5.67070
C         -6.52220       -4.64610       -4.58530
N         -6.84760       -2.43570       -7.47130
C         -6.33400       -1.15090       -7.56070
C         -5.04210       -0.79710       -7.75350
C         -4.80600        0.58850       -7.53460
C         -3.57840        1.26280       -7.56420
C         -2.30720        0.61750       -7.84690
S         -1.79340       -0.78180       -6.94890
C         -0.19940       -0.71610       -7.61690
C          0.86190       -1.65150       -7.15790
C          1.61880       -1.05320       -5.96950
C         -0.08890        0.32370       -8.49060
Cl         1.34830        0.70330       -9.34510
C         -1.28030        1.08490       -8.62000
Cl        -1.41540        2.41960       -9.68560
C         -3.57150        2.56830       -7.08680
C         -4.72080        3.22210       -6.58820
C         -5.98200        2.60810       -6.73170
C         -7.18620        3.31740       -6.35500
S         -8.46250        2.57350       -5.43700
C         -9.41140        4.01950       -5.43350
C        -10.76060        4.05160       -4.80580
C        -11.81910        3.50460       -5.76660
C         -8.77180        5.00930       -6.11950
C         -7.50810        4.62030       -6.63510
Cl        -6.54340        5.67290       -7.58650
Cl        -9.41390        6.58450       -6.34700
C         -5.98130        1.28760       -7.16940
S         -7.36800        0.23140       -7.18910
C         -4.37830        4.32580       -5.76140
C         -3.03280        4.51850       -5.64860
S         -2.12420        3.44680       -6.70610
C         -2.28510        5.11000       -4.58460
C         -0.92500        5.06540       -4.47290
C         -0.46530        5.10520       -3.13670
C          0.83280        4.82850       -2.67930
C          1.91030        4.53300       -3.61470
S          3.38970        5.44160       -3.62800
C          4.05120        4.49060       -4.91490
C          5.38440        4.80410       -5.49890
C          5.26970        5.88870       -6.57270
C          3.16380        3.53040       -5.29900
Cl         3.45700        2.40190       -6.55640
C          1.95190        3.54360       -4.55730
Cl         0.71310        2.37640       -4.79480
C          1.00190        4.69590       -1.30950
C         -0.06830        4.82500       -0.39240
C         -1.35830        5.15600       -0.84550
C         -2.45900        5.26450        0.10100
S         -2.38720        6.40830        1.40880
C         -3.92540        5.91450        2.02930
C         -4.47520        6.50010        3.28250
C         -3.90060        5.78680        4.50930
C         -4.44490        4.91500        1.26260
C         -3.61820        4.54420        0.16690
Cl        -4.01830        3.25240       -0.88720
Cl        -5.95300        4.15750        1.57150
C         -1.53250        5.26930       -2.21600
S         -3.05740        5.44400       -3.04320
C          0.29500        4.38030        0.90260
C          1.57920        3.93310        0.98520
S          2.44960        4.12450       -0.52570
C          2.16480        3.20320        2.06400
C          3.47350        2.89780        2.28320
C          3.67250        2.00850        3.37180
C          4.87680        1.47310        3.86030
C          6.14340        1.77270        3.21170
S          6.33510        1.50370        1.50280
C          7.98140        2.03810        1.52020
C          8.77450        2.11480        0.26260
C          8.30430        3.27840       -0.61310
C          8.34580        2.39670        2.78280
Cl         9.90480        2.97660        3.20250
C          7.30990        2.24300        3.74530
Cl         7.50900        2.70000        5.38430
C          4.78940        0.60840        4.94720
C          3.55370        0.19630        5.50360
C          2.35350        0.70890        4.99870
C          1.04790        0.22570        5.43030
S          0.58450       -1.41510        5.09600
C         -1.02670       -1.15810        5.67540
C         -2.06210       -2.22270        5.56830
C         -2.71080       -2.20090        4.18170
C         -1.17680        0.12770        6.10130
C         -0.00230        0.91680        5.95970
Cl         0.08070        2.55870        6.44170
Cl        -2.63900        0.76260        6.73710
C          2.44530        1.64040        3.97440
S          1.09360        2.41720        3.20820
C          3.73340       -0.72260        6.57730
C          5.03300       -0.98500        6.82130
S          6.11990       -0.16170        5.76130
H          6.46580       -4.26040        8.94960
H          7.06380       -4.26610        6.41170
H         10.13660       -2.85310        2.97880
H          9.69140       -3.08610        1.28490
H          8.75610       -0.78860        3.08660
H          8.28050       -1.00790        1.40180
H          9.96690       -0.66580        1.80720
H         -1.71030       -3.65360       10.48420
H         -0.41950       -2.44480       10.62400
H         -2.59460       -1.33290       10.25200
H         -2.84510       -2.26230        8.77320
H         -1.54400       -1.06930        8.85660
H          0.20540       -4.35490        4.36990
H         -1.34020       -4.50420        2.57980
H         -6.52620       -5.46770        4.79500
H         -5.64250       -6.95760        4.41680
H         -3.57920       -5.98890        5.44380
H         -4.90830       -6.07490        6.60330
H         -4.48130       -4.52910        5.86750
H          2.43680       -3.94090       -6.53820
H          3.16190       -5.55050       -6.39660
H          1.14120       -6.56640       -7.41800
H          0.37470       -4.98010       -7.52660
H          1.81540       -5.33260       -8.48660
H         -2.37970       -4.50060       -4.48500
H         -8.25390       -4.27040       -5.87910
H         -6.97260       -5.30860       -3.86770
H         -7.84340       -2.50340       -7.64770
H         -4.27020       -1.49530       -8.01700
H          0.40120       -2.59270       -6.85570
H          1.55400       -1.83490       -7.98240
H          0.93720       -0.87930       -5.14070
H          2.40070       -1.72980       -5.63490
H          2.07510       -0.10840       -6.25100
H        -11.00150        5.08320       -4.54300
H        -10.75140        3.45010       -3.89530
H        -11.58660        2.47730       -6.03690
H        -11.85100        4.10410       -6.67280
H        -12.79870        3.53020       -5.29700
H         -5.09500        4.87560       -5.17760
H         -0.28220        4.91130       -5.32010
H          6.05460        5.14490       -4.70800
H          5.79620        3.89450       -5.94020
H          4.86350        6.80180       -6.14400
H          4.61310        5.55830       -7.37350
H          6.24860        6.10470       -6.99200
H         -4.22580        7.56150        3.32920
H         -5.56140        6.39440        3.27240
H         -4.31150        6.21730        5.41840
H         -2.81800        5.88840        4.53310
H         -4.14920        4.72890        4.48130
H         -0.38820        4.33640        1.73170
H          4.26730        3.29850        1.67940
H          9.82560        2.24790        0.52270
H          8.66760        1.18150       -0.29390
H          8.41550        4.22010       -0.08180
H          8.89450        3.32120       -1.52440
H          7.25780        3.15020       -0.87960
H         -2.82490       -2.05160        6.32950
H         -1.60570       -3.19780        5.74710
H         -3.22410       -1.25670        4.02040
H         -1.95650       -2.31690        3.40650
H         -3.43460       -3.00650        4.09290
H          2.91790       -1.13870        7.14100
H          5.44870       -1.61070        7.58550
