
  xtb     03012211553D
 energy: -435.994014268919 gnorm: 0.000194617968 xtb: 6.4.1 (unknown)
232255  0     0  0            999 V2000
    3.7621    1.4333    9.2489 C   0  0  0  0  0  0  0  0  0  0  0  0
    4.0084    2.7289    8.9680 C   0  0  0  0  0  0  0  0  0  0  0  0
    3.4160    3.1556    7.7423 C   0  0  0  0  0  0  0  0  0  0  0  0
    3.4104    4.4437    7.1796 C   0  0  0  0  0  0  0  0  0  0  0  0
    4.0636    5.5671    7.8333 C   0  0  0  0  0  0  0  0  0  0  0  0
    5.7458    5.5148    8.2707 S   0  0  0  0  0  0  0  0  0  0  0  0
    5.7156    7.1279    8.8979 C   0  0  0  0  0  0  0  0  0  0  0  0
    6.9474    7.7719    9.4309 C   0  0  0  0  0  0  0  0  0  0  0  0
    7.7853    8.3711    8.2989 C   0  0  0  0  0  0  0  0  0  0  0  0
    4.4703    7.6636    8.7619 C   0  0  0  0  0  0  0  0  0  0  0  0
    4.0488    9.2461    9.2733 Cl  0  0  0  0  0  0  0  0  0  0  0  0
    3.5309    6.7825    8.1608 C   0  0  0  0  0  0  0  0  0  0  0  0
    1.8811    7.1974    7.9545 Cl  0  0  0  0  0  0  0  0  0  0  0  0
    2.7528    4.6004    5.9640 C   0  0  0  0  0  0  0  0  0  0  0  0
    2.1006    3.5231    5.3243 C   0  0  0  0  0  0  0  0  0  0  0  0
    2.0048    2.2662    5.9391 C   0  0  0  0  0  0  0  0  0  0  0  0
    1.1000    1.2838    5.3582 C   0  0  0  0  0  0  0  0  0  0  0  0
    1.5696   -0.2727    4.7509 S   0  0  0  0  0  0  0  0  0  0  0  0
   -0.0301   -0.6165    4.1859 C   0  0  0  0  0  0  0  0  0  0  0  0
   -0.3797   -1.8919    3.5052 C   0  0  0  0  0  0  0  0  0  0  0  0
   -1.0353   -2.8776    4.4755 C   0  0  0  0  0  0  0  0  0  0  0  0
   -0.8733    0.4127    4.4833 C   0  0  0  0  0  0  0  0  0  0  0  0
   -0.2350    1.4943    5.1413 C   0  0  0  0  0  0  0  0  0  0  0  0
   -1.0694    2.8991    5.6614 Cl  0  0  0  0  0  0  0  0  0  0  0  0
   -2.5429    0.4167    4.0849 Cl  0  0  0  0  0  0  0  0  0  0  0  0
    2.7026    2.0992    7.1239 C   0  0  0  0  0  0  0  0  0  0  0  0
    2.7867    0.6361    8.0620 S   0  0  0  0  0  0  0  0  0  0  0  0
    1.5952    3.8862    4.0539 C   0  0  0  0  0  0  0  0  0  0  0  0
    1.7829    5.1964    3.7462 C   0  0  0  0  0  0  0  0  0  0  0  0
    2.6322    6.0578    5.0089 S   0  0  0  0  0  0  0  0  0  0  0  0
    1.2544    5.7846    2.5439 C   0  0  0  0  0  0  0  0  0  0  0  0
    0.4282    6.8529    2.3923 C   0  0  0  0  0  0  0  0  0  0  0  0
   -0.2093    6.8914    1.1200 C   0  0  0  0  0  0  0  0  0  0  0  0
   -1.3435    7.6341    0.7372 C   0  0  0  0  0  0  0  0  0  0  0  0
   -2.0221    8.5243    1.6654 C   0  0  0  0  0  0  0  0  0  0  0  0
   -2.4335   10.1466    1.1938 S   0  0  0  0  0  0  0  0  0  0  0  0
   -3.1903   10.4817    2.7127 C   0  0  0  0  0  0  0  0  0  0  0  0
   -3.7536   11.8264    3.0133 C   0  0  0  0  0  0  0  0  0  0  0  0
   -2.6530   12.7968    3.4485 C   0  0  0  0  0  0  0  0  0  0  0  0
   -3.1189    9.3914    3.5270 C   0  0  0  0  0  0  0  0  0  0  0  0
   -3.7682    9.3365    5.1156 Cl  0  0  0  0  0  0  0  0  0  0  0  0
   -2.4618    8.2780    2.9373 C   0  0  0  0  0  0  0  0  0  0  0  0
   -2.3218    6.7715    3.7467 Cl  0  0  0  0  0  0  0  0  0  0  0  0
   -1.8631    7.3921   -0.5297 C   0  0  0  0  0  0  0  0  0  0  0  0
   -1.2589    6.4907   -1.4365 C   0  0  0  0  0  0  0  0  0  0  0  0
   -0.2183    5.6511   -1.0106 C   0  0  0  0  0  0  0  0  0  0  0  0
    0.1106    4.4455   -1.7573 C   0  0  0  0  0  0  0  0  0  0  0  0
    1.7331    3.9631   -2.1470 S   0  0  0  0  0  0  0  0  0  0  0  0
    1.2068    2.4709   -2.8519 C   0  0  0  0  0  0  0  0  0  0  0  0
    2.1760    1.4656   -3.3679 C   0  0  0  0  0  0  0  0  0  0  0  0
    2.5516    0.4679   -2.2689 C   0  0  0  0  0  0  0  0  0  0  0  0
   -0.1491    2.3630   -2.7730 C   0  0  0  0  0  0  0  0  0  0  0  0
   -0.7720    3.4781   -2.1566 C   0  0  0  0  0  0  0  0  0  0  0  0
   -2.4649    3.5137   -1.8830 Cl  0  0  0  0  0  0  0  0  0  0  0  0
   -1.0535    1.0145   -3.3354 Cl  0  0  0  0  0  0  0  0  0  0  0  0
    0.2825    5.8758    0.2628 C   0  0  0  0  0  0  0  0  0  0  0  0
    1.4251    4.8506    1.0711 S   0  0  0  0  0  0  0  0  0  0  0  0
   -2.0133    6.3389   -2.6233 C   0  0  0  0  0  0  0  0  0  0  0  0
   -3.2456    6.9218   -2.5635 C   0  0  0  0  0  0  0  0  0  0  0  0
   -3.4288    7.9055   -1.1250 S   0  0  0  0  0  0  0  0  0  0  0  0
   -4.3178    6.3055   -3.3127 C   0  0  0  0  0  0  0  0  0  0  0  0
   -4.2771    5.8257   -4.5950 C   0  0  0  0  0  0  0  0  0  0  0  0
   -4.9764    4.6128   -4.7779 C   0  0  0  0  0  0  0  0  0  0  0  0
   -4.9553    3.8090   -6.0103 C   0  0  0  0  0  0  0  0  0  0  0  0
   -3.7836    3.1393   -6.3610 C   0  0  0  0  0  0  0  0  0  0  0  0
   -3.7942    2.2843   -7.4528 C   0  0  0  0  0  0  0  0  0  0  0  0
   -4.9565    2.1364   -8.2137 C   0  0  0  0  0  0  0  0  0  0  0  0
   -6.1101    2.8259   -7.8791 C   0  0  0  0  0  0  0  0  0  0  0  0
   -7.2851    2.7756   -8.5585 O   0  0  0  0  0  0  0  0  0  0  0  0
   -7.4528    1.8292   -9.5944 C   0  0  0  0  0  0  0  0  0  0  0  0
   -7.6341    0.4121   -9.0587 C   0  0  0  0  0  0  0  0  0  0  0  0
   -6.1077    3.6564   -6.7555 C   0  0  0  0  0  0  0  0  0  0  0  0
   -2.7410    1.5358   -7.8666 O   0  0  0  0  0  0  0  0  0  0  0  0
   -1.5634    1.5196   -7.0816 C   0  0  0  0  0  0  0  0  0  0  0  0
   -0.5882    0.5498   -7.7282 C   0  0  0  0  0  0  0  0  0  0  0  0
   -5.5195    4.1292   -3.6023 C   0  0  0  0  0  0  0  0  0  0  0  0
   -5.3791    5.3169   -2.3246 S   0  0  0  0  0  0  0  0  0  0  0  0
   -5.6159    2.7546   -3.2170 C   0  0  0  0  0  0  0  0  0  0  0  0
   -5.3056    2.3334   -1.9532 C   0  0  0  0  0  0  0  0  0  0  0  0
   -4.8336    1.0042   -1.8864 C   0  0  0  0  0  0  0  0  0  0  0  0
   -4.0927    0.4296   -0.8341 C   0  0  0  0  0  0  0  0  0  0  0  0
   -3.8347    1.2275    0.3566 C   0  0  0  0  0  0  0  0  0  0  0  0
   -5.1423    1.9516    1.2483 S   0  0  0  0  0  0  0  0  0  0  0  0
   -4.0728    2.9586    2.1627 C   0  0  0  0  0  0  0  0  0  0  0  0
   -4.5990    3.9920    3.0941 C   0  0  0  0  0  0  0  0  0  0  0  0
   -5.0618    5.2248    2.3124 C   0  0  0  0  0  0  0  0  0  0  0  0
   -2.7819    2.7130    1.8077 C   0  0  0  0  0  0  0  0  0  0  0  0
   -1.4427    3.5777    2.4323 Cl  0  0  0  0  0  0  0  0  0  0  0  0
   -2.6383    1.7121    0.8098 C   0  0  0  0  0  0  0  0  0  0  0  0
   -1.0975    1.2489    0.2237 Cl  0  0  0  0  0  0  0  0  0  0  0  0
   -3.5042   -0.7986   -1.0834 C   0  0  0  0  0  0  0  0  0  0  0  0
   -3.6264   -1.4799   -2.3223 C   0  0  0  0  0  0  0  0  0  0  0  0
   -4.3105   -0.8706   -3.3914 C   0  0  0  0  0  0  0  0  0  0  0  0
   -4.3059   -1.4451   -4.7268 C   0  0  0  0  0  0  0  0  0  0  0  0
   -5.7796   -1.6469   -5.6260 S   0  0  0  0  0  0  0  0  0  0  0  0
   -4.9489   -2.3040   -6.9933 C   0  0  0  0  0  0  0  0  0  0  0  0
   -5.6834   -2.8132   -8.1846 C   0  0  0  0  0  0  0  0  0  0  0  0
   -5.8828   -4.3284   -8.0929 C   0  0  0  0  0  0  0  0  0  0  0  0
   -3.6075   -2.3464   -6.7563 C   0  0  0  0  0  0  0  0  0  0  0  0
   -3.2376   -1.8569   -5.4763 C   0  0  0  0  0  0  0  0  0  0  0  0
   -1.5989   -1.7460   -4.9800 Cl  0  0  0  0  0  0  0  0  0  0  0  0
   -2.4600   -2.9347   -7.8883 Cl  0  0  0  0  0  0  0  0  0  0  0  0
   -4.9013    0.3619   -3.1452 C   0  0  0  0  0  0  0  0  0  0  0  0
   -5.5632    1.4269   -4.3646 S   0  0  0  0  0  0  0  0  0  0  0  0
   -2.9195   -2.7081   -2.3170 C   0  0  0  0  0  0  0  0  0  0  0  0
   -2.2308   -2.9367   -1.1621 C   0  0  0  0  0  0  0  0  0  0  0  0
   -2.4942   -1.6746    0.0266 S   0  0  0  0  0  0  0  0  0  0  0  0
   -1.2921   -3.9680   -0.8726 C   0  0  0  0  0  0  0  0  0  0  0  0
   -0.3890   -3.9780    0.1604 C   0  0  0  0  0  0  0  0  0  0  0  0
    0.5130   -5.0558    0.1311 C   0  0  0  0  0  0  0  0  0  0  0  0
    1.6353   -5.1047    1.0755 C   0  0  0  0  0  0  0  0  0  0  0  0
    2.9381   -5.2655    0.6248 C   0  0  0  0  0  0  0  0  0  0  0  0
    4.0023   -5.1870    1.5181 C   0  0  0  0  0  0  0  0  0  0  0  0
    3.7681   -4.9048    2.8619 C   0  0  0  0  0  0  0  0  0  0  0  0
    2.4625   -4.7307    3.3109 C   0  0  0  0  0  0  0  0  0  0  0  0
    2.1229   -4.4205    4.5894 O   0  0  0  0  0  0  0  0  0  0  0  0
    3.1377   -4.0891    5.5172 C   0  0  0  0  0  0  0  0  0  0  0  0
    2.4651   -3.5548    6.7722 C   0  0  0  0  0  0  0  0  0  0  0  0
    1.3998   -4.8554    2.4204 C   0  0  0  0  0  0  0  0  0  0  0  0
    5.2311   -5.3828    0.9777 O   0  0  0  0  0  0  0  0  0  0  0  0
    6.3692   -5.3703    1.8151 C   0  0  0  0  0  0  0  0  0  0  0  0
    7.5651   -5.7818    0.9713 C   0  0  0  0  0  0  0  0  0  0  0  0
    0.2649   -5.9098   -0.9305 C   0  0  0  0  0  0  0  0  0  0  0  0
   -1.0642   -5.3453   -1.9055 S   0  0  0  0  0  0  0  0  0  0  0  0
    0.9189   -7.1349   -1.2578 C   0  0  0  0  0  0  0  0  0  0  0  0
    1.6877   -7.9139   -0.4439 C   0  0  0  0  0  0  0  0  0  0  0  0
    2.2321   -9.0476   -1.0941 C   0  0  0  0  0  0  0  0  0  0  0  0
    3.0644  -10.0396   -0.5489 C   0  0  0  0  0  0  0  0  0  0  0  0
    3.4916   -9.9829    0.8392 C   0  0  0  0  0  0  0  0  0  0  0  0
    4.2621   -8.5670    1.4913 S   0  0  0  0  0  0  0  0  0  0  0  0
    4.4151   -9.2794    3.0606 C   0  0  0  0  0  0  0  0  0  0  0  0
    5.0709   -8.5497    4.1810 C   0  0  0  0  0  0  0  0  0  0  0  0
    6.5895   -8.7390    4.1460 C   0  0  0  0  0  0  0  0  0  0  0  0
    3.9100  -10.5451    3.0592 C   0  0  0  0  0  0  0  0  0  0  0  0
    3.8870  -11.5670    4.4371 Cl  0  0  0  0  0  0  0  0  0  0  0  0
    3.3825  -10.9466    1.8032 C   0  0  0  0  0  0  0  0  0  0  0  0
    2.6102  -12.4590    1.5724 Cl  0  0  0  0  0  0  0  0  0  0  0  0
    3.4729  -11.0581   -1.4022 C   0  0  0  0  0  0  0  0  0  0  0  0
    3.0618  -11.1415   -2.7540 C   0  0  0  0  0  0  0  0  0  0  0  0
    2.1870  -10.1787   -3.2830 C   0  0  0  0  0  0  0  0  0  0  0  0
    1.6835  -10.2789   -4.6426 C   0  0  0  0  0  0  0  0  0  0  0  0
    1.7767   -8.9456   -5.7534 S   0  0  0  0  0  0  0  0  0  0  0  0
    0.9876   -9.8358   -7.0098 C   0  0  0  0  0  0  0  0  0  0  0  0
    0.7748   -9.2425   -8.3586 C   0  0  0  0  0  0  0  0  0  0  0  0
    2.0246   -9.3949   -9.2287 C   0  0  0  0  0  0  0  0  0  0  0  0
    0.6811  -11.0925   -6.5801 C   0  0  0  0  0  0  0  0  0  0  0  0
    1.0688  -11.3462   -5.2374 C   0  0  0  0  0  0  0  0  0  0  0  0
    0.7134  -12.8232   -4.4375 Cl  0  0  0  0  0  0  0  0  0  0  0  0
   -0.1109  -12.2688   -7.5470 Cl  0  0  0  0  0  0  0  0  0  0  0  0
    1.8181   -9.1344   -2.4453 C   0  0  0  0  0  0  0  0  0  0  0  0
    0.7833   -7.8031   -2.8741 S   0  0  0  0  0  0  0  0  0  0  0  0
    3.6894  -12.2302   -3.4269 C   0  0  0  0  0  0  0  0  0  0  0  0
    4.5179  -12.9320   -2.6274 C   0  0  0  0  0  0  0  0  0  0  0  0
    4.5951  -12.3291   -1.0087 S   0  0  0  0  0  0  0  0  0  0  0  0
    4.0913    0.8715   10.1010 H   0  0  0  0  0  0  0  0  0  0  0  0
    4.5888    3.3737    9.6017 H   0  0  0  0  0  0  0  0  0  0  0  0
    6.6556    8.5603   10.1272 H   0  0  0  0  0  0  0  0  0  0  0  0
    7.5412    7.0307    9.9688 H   0  0  0  0  0  0  0  0  0  0  0  0
    8.6785    8.8393    8.7033 H   0  0  0  0  0  0  0  0  0  0  0  0
    8.0836    7.5944    7.5987 H   0  0  0  0  0  0  0  0  0  0  0  0
    7.2106    9.1213    7.7617 H   0  0  0  0  0  0  0  0  0  0  0  0
    0.5234   -2.3368    3.0855 H   0  0  0  0  0  0  0  0  0  0  0  0
   -1.0786   -1.6637    2.6953 H   0  0  0  0  0  0  0  0  0  0  0  0
   -0.3103   -3.2253    5.2062 H   0  0  0  0  0  0  0  0  0  0  0  0
   -1.4194   -3.7363    3.9311 H   0  0  0  0  0  0  0  0  0  0  0  0
   -1.8647   -2.4029    4.9933 H   0  0  0  0  0  0  0  0  0  0  0  0
    1.0993    3.1966    3.3959 H   0  0  0  0  0  0  0  0  0  0  0  0
    0.2332    7.5541    3.1828 H   0  0  0  0  0  0  0  0  0  0  0  0
   -4.2512   12.2177    2.1242 H   0  0  0  0  0  0  0  0  0  0  0  0
   -4.4907   11.7256    3.8119 H   0  0  0  0  0  0  0  0  0  0  0  0
   -2.1541   12.4258    4.3403 H   0  0  0  0  0  0  0  0  0  0  0  0
   -1.9149   12.9082    2.6577 H   0  0  0  0  0  0  0  0  0  0  0  0
   -3.0799   13.7714    3.6682 H   0  0  0  0  0  0  0  0  0  0  0  0
    1.7178    0.9308   -4.2027 H   0  0  0  0  0  0  0  0  0  0  0  0
    3.0730    1.9737   -3.7248 H   0  0  0  0  0  0  0  0  0  0  0  0
    3.0077    0.9860   -1.4286 H   0  0  0  0  0  0  0  0  0  0  0  0
    3.2554   -0.2654   -2.6532 H   0  0  0  0  0  0  0  0  0  0  0  0
    1.6656   -0.0531   -1.9144 H   0  0  0  0  0  0  0  0  0  0  0  0
   -1.7092    5.7101   -3.4399 H   0  0  0  0  0  0  0  0  0  0  0  0
   -3.6976    6.2837   -5.3769 H   0  0  0  0  0  0  0  0  0  0  0  0
   -2.9069    3.2631   -5.7455 H   0  0  0  0  0  0  0  0  0  0  0  0
   -4.9030    1.4643   -9.0539 H   0  0  0  0  0  0  0  0  0  0  0  0
   -6.6151    1.8752  -10.3009 H   0  0  0  0  0  0  0  0  0  0  0  0
   -8.3588    2.1531  -10.1140 H   0  0  0  0  0  0  0  0  0  0  0  0
   -8.5080    0.3703   -8.4135 H   0  0  0  0  0  0  0  0  0  0  0  0
   -6.7655    0.1138   -8.4767 H   0  0  0  0  0  0  0  0  0  0  0  0
   -7.7683   -0.2799   -9.8858 H   0  0  0  0  0  0  0  0  0  0  0  0
   -7.0165    4.1695   -6.4857 H   0  0  0  0  0  0  0  0  0  0  0  0
   -1.8012    1.1963   -6.0596 H   0  0  0  0  0  0  0  0  0  0  0  0
   -1.1229    2.5258   -7.0376 H   0  0  0  0  0  0  0  0  0  0  0  0
   -0.3512    0.8760   -8.7372 H   0  0  0  0  0  0  0  0  0  0  0  0
    0.3258    0.5018   -7.1428 H   0  0  0  0  0  0  0  0  0  0  0  0
   -1.0292   -0.4412   -7.7793 H   0  0  0  0  0  0  0  0  0  0  0  0
   -5.2854    3.0112   -1.1200 H   0  0  0  0  0  0  0  0  0  0  0  0
   -3.8095    4.2713    3.7942 H   0  0  0  0  0  0  0  0  0  0  0  0
   -5.4374    3.5838    3.6617 H   0  0  0  0  0  0  0  0  0  0  0  0
   -4.2424    5.6292    1.7215 H   0  0  0  0  0  0  0  0  0  0  0  0
   -5.4079    5.9940    2.9973 H   0  0  0  0  0  0  0  0  0  0  0  0
   -5.8751    4.9627    1.6394 H   0  0  0  0  0  0  0  0  0  0  0  0
   -6.6554   -2.3231   -8.2474 H   0  0  0  0  0  0  0  0  0  0  0  0
   -5.1094   -2.5765   -9.0833 H   0  0  0  0  0  0  0  0  0  0  0  0
   -6.4587   -4.5792   -7.2055 H   0  0  0  0  0  0  0  0  0  0  0  0
   -6.4163   -4.6879   -8.9686 H   0  0  0  0  0  0  0  0  0  0  0  0
   -4.9223   -4.8341   -8.0380 H   0  0  0  0  0  0  0  0  0  0  0  0
   -2.8989   -3.3937   -3.1447 H   0  0  0  0  0  0  0  0  0  0  0  0
   -0.3435   -3.1935    0.8937 H   0  0  0  0  0  0  0  0  0  0  0  0
    3.1517   -5.4432   -0.4159 H   0  0  0  0  0  0  0  0  0  0  0  0
    4.5928   -4.8079    3.5479 H   0  0  0  0  0  0  0  0  0  0  0  0
    3.7350   -4.9808    5.7568 H   0  0  0  0  0  0  0  0  0  0  0  0
    3.7987   -3.3210    5.0937 H   0  0  0  0  0  0  0  0  0  0  0  0
    3.2149   -3.3285    7.5244 H   0  0  0  0  0  0  0  0  0  0  0  0
    1.7746   -4.2950    7.1671 H   0  0  0  0  0  0  0  0  0  0  0  0
    1.9157   -2.6464    6.5409 H   0  0  0  0  0  0  0  0  0  0  0  0
    0.3960   -4.7511    2.7952 H   0  0  0  0  0  0  0  0  0  0  0  0
    6.2364   -6.0775    2.6441 H   0  0  0  0  0  0  0  0  0  0  0  0
    6.5228   -4.3637    2.2305 H   0  0  0  0  0  0  0  0  0  0  0  0
    7.3988   -6.7737    0.5600 H   0  0  0  0  0  0  0  0  0  0  0  0
    8.4645   -5.7900    1.5805 H   0  0  0  0  0  0  0  0  0  0  0  0
    7.6964   -5.0849    0.1486 H   0  0  0  0  0  0  0  0  0  0  0  0
    1.8509   -7.6850    0.5919 H   0  0  0  0  0  0  0  0  0  0  0  0
    4.6777   -8.9311    5.1252 H   0  0  0  0  0  0  0  0  0  0  0  0
    4.8257   -7.4882    4.1055 H   0  0  0  0  0  0  0  0  0  0  0  0
    6.9941   -8.3902    3.1985 H   0  0  0  0  0  0  0  0  0  0  0  0
    7.0576   -8.1830    4.9544 H   0  0  0  0  0  0  0  0  0  0  0  0
    6.8368   -9.7913    4.2591 H   0  0  0  0  0  0  0  0  0  0  0  0
    0.5326   -8.1837   -8.2531 H   0  0  0  0  0  0  0  0  0  0  0  0
   -0.0666   -9.7493   -8.8348 H   0  0  0  0  0  0  0  0  0  0  0  0
    1.8532   -8.9571  -10.2084 H   0  0  0  0  0  0  0  0  0  0  0  0
    2.2699  -10.4463   -9.3549 H   0  0  0  0  0  0  0  0  0  0  0  0
    2.8700   -8.8930   -8.7641 H   0  0  0  0  0  0  0  0  0  0  0  0
    3.5342  -12.4534   -4.4661 H   0  0  0  0  0  0  0  0  0  0  0  0
    5.1097  -13.7893   -2.8825 H   0  0  0  0  0  0  0  0  0  0  0  0
  1  2  2  0  0  0  0
  2  3  1  0  0  0  0
  3  4  2  0  0  0  0
  4  5  1  0  0  0  0
  5  6  1  0  0  0  0
  6  7  1  0  0  0  0
  7  8  1  0  0  0  0
  8  9  1  0  0  0  0
  7 10  2  0  0  0  0
 10 11  1  0  0  0  0
 10 12  1  0  0  0  0
 12 13  1  0  0  0  0
  4 14  1  0  0  0  0
 14 15  2  0  0  0  0
 15 16  1  0  0  0  0
 16 17  1  0  0  0  0
 17 18  1  0  0  0  0
 18 19  1  0  0  0  0
 19 20  1  0  0  0  0
 20 21  1  0  0  0  0
 19 22  2  0  0  0  0
 22 23  1  0  0  0  0
 23 24  1  0  0  0  0
 22 25  1  0  0  0  0
 16 26  2  0  0  0  0
 26 27  1  0  0  0  0
 15 28  1  0  0  0  0
 28 29  2  0  0  0  0
 29 30  1  0  0  0  0
 29 31  1  0  0  0  0
 31 32  2  0  0  0  0
 32 33  1  0  0  0  0
 33 34  2  0  0  0  0
 34 35  1  0  0  0  0
 35 36  1  0  0  0  0
 36 37  1  0  0  0  0
 37 38  1  0  0  0  0
 38 39  1  0  0  0  0
 37 40  2  0  0  0  0
 40 41  1  0  0  0  0
 40 42  1  0  0  0  0
 42 43  1  0  0  0  0
 34 44  1  0  0  0  0
 44 45  2  0  0  0  0
 45 46  1  0  0  0  0
 46 47  1  0  0  0  0
 47 48  1  0  0  0  0
 48 49  1  0  0  0  0
 49 50  1  0  0  0  0
 50 51  1  0  0  0  0
 49 52  2  0  0  0  0
 52 53  1  0  0  0  0
 53 54  1  0  0  0  0
 52 55  1  0  0  0  0
 46 56  2  0  0  0  0
 56 57  1  0  0  0  0
 45 58  1  0  0  0  0
 58 59  2  0  0  0  0
 59 60  1  0  0  0  0
 59 61  1  0  0  0  0
 61 62  2  0  0  0  0
 62 63  1  0  0  0  0
 63 64  1  0  0  0  0
 64 65  2  0  0  0  0
 65 66  1  0  0  0  0
 66 67  2  0  0  0  0
 67 68  1  0  0  0  0
 68 69  1  0  0  0  0
 69 70  1  0  0  0  0
 70 71  1  0  0  0  0
 68 72  2  0  0  0  0
 66 73  1  0  0  0  0
 73 74  1  0  0  0  0
 74 75  1  0  0  0  0
 63 76  2  0  0  0  0
 76 77  1  0  0  0  0
 76 78  1  0  0  0  0
 78 79  2  0  0  0  0
 79 80  1  0  0  0  0
 80 81  2  0  0  0  0
 81 82  1  0  0  0  0
 82 83  1  0  0  0  0
 83 84  1  0  0  0  0
 84 85  1  0  0  0  0
 85 86  1  0  0  0  0
 84 87  2  0  0  0  0
 87 88  1  0  0  0  0
 87 89  1  0  0  0  0
 89 90  1  0  0  0  0
 81 91  1  0  0  0  0
 91 92  2  0  0  0  0
 92 93  1  0  0  0  0
 93 94  1  0  0  0  0
 94 95  1  0  0  0  0
 95 96  1  0  0  0  0
 96 97  1  0  0  0  0
 97 98  1  0  0  0  0
 96 99  2  0  0  0  0
 99100  1  0  0  0  0
100101  1  0  0  0  0
 99102  1  0  0  0  0
 93103  2  0  0  0  0
103104  1  0  0  0  0
 92105  1  0  0  0  0
105106  2  0  0  0  0
106107  1  0  0  0  0
106108  1  0  0  0  0
108109  2  0  0  0  0
109110  1  0  0  0  0
110111  1  0  0  0  0
111112  2  0  0  0  0
112113  1  0  0  0  0
113114  2  0  0  0  0
114115  1  0  0  0  0
115116  1  0  0  0  0
116117  1  0  0  0  0
117118  1  0  0  0  0
115119  2  0  0  0  0
113120  1  0  0  0  0
120121  1  0  0  0  0
121122  1  0  0  0  0
110123  2  0  0  0  0
123124  1  0  0  0  0
123125  1  0  0  0  0
125126  2  0  0  0  0
126127  1  0  0  0  0
127128  2  0  0  0  0
128129  1  0  0  0  0
129130  1  0  0  0  0
130131  1  0  0  0  0
131132  1  0  0  0  0
132133  1  0  0  0  0
131134  2  0  0  0  0
134135  1  0  0  0  0
134136  1  0  0  0  0
136137  1  0  0  0  0
128138  1  0  0  0  0
138139  2  0  0  0  0
139140  1  0  0  0  0
140141  1  0  0  0  0
141142  1  0  0  0  0
142143  1  0  0  0  0
143144  1  0  0  0  0
144145  1  0  0  0  0
143146  2  0  0  0  0
146147  1  0  0  0  0
147148  1  0  0  0  0
146149  1  0  0  0  0
140150  2  0  0  0  0
150151  1  0  0  0  0
139152  1  0  0  0  0
152153  2  0  0  0  0
153154  1  0  0  0  0
 27  1  1  0  0  0  0
 57 31  1  0  0  0  0
 77 61  1  0  0  0  0
104 78  1  0  0  0  0
124108  1  0  0  0  0
151125  1  0  0  0  0
 26  3  1  0  0  0  0
 56 33  1  0  0  0  0
 72 64  1  0  0  0  0
103 80  1  0  0  0  0
119111  1  0  0  0  0
150127  1  0  0  0  0
 12  5  2  0  0  0  0
 30 14  1  0  0  0  0
 42 35  2  0  0  0  0
 60 44  1  0  0  0  0
 89 82  2  0  0  0  0
107 91  1  0  0  0  0
136129  2  0  0  0  0
154138  1  0  0  0  0
 23 17  2  0  0  0  0
 53 47  2  0  0  0  0
100 94  2  0  0  0  0
147141  2  0  0  0  0
  1155  1  0  0  0  0
  2156  1  0  0  0  0
  8157  1  0  0  0  0
  8158  1  0  0  0  0
  9159  1  0  0  0  0
  9160  1  0  0  0  0
  9161  1  0  0  0  0
 20162  1  0  0  0  0
 20163  1  0  0  0  0
 21164  1  0  0  0  0
 21165  1  0  0  0  0
 21166  1  0  0  0  0
 28167  1  0  0  0  0
 32168  1  0  0  0  0
 38169  1  0  0  0  0
 38170  1  0  0  0  0
 39171  1  0  0  0  0
 39172  1  0  0  0  0
 39173  1  0  0  0  0
 50174  1  0  0  0  0
 50175  1  0  0  0  0
 51176  1  0  0  0  0
 51177  1  0  0  0  0
 51178  1  0  0  0  0
 58179  1  0  0  0  0
 62180  1  0  0  0  0
 65181  1  0  0  0  0
 67182  1  0  0  0  0
 70183  1  0  0  0  0
 70184  1  0  0  0  0
 71185  1  0  0  0  0
 71186  1  0  0  0  0
 71187  1  0  0  0  0
 72188  1  0  0  0  0
 74189  1  0  0  0  0
 74190  1  0  0  0  0
 75191  1  0  0  0  0
 75192  1  0  0  0  0
 75193  1  0  0  0  0
 79194  1  0  0  0  0
 85195  1  0  0  0  0
 85196  1  0  0  0  0
 86197  1  0  0  0  0
 86198  1  0  0  0  0
 86199  1  0  0  0  0
 97200  1  0  0  0  0
 97201  1  0  0  0  0
 98202  1  0  0  0  0
 98203  1  0  0  0  0
 98204  1  0  0  0  0
105205  1  0  0  0  0
109206  1  0  0  0  0
112207  1  0  0  0  0
114208  1  0  0  0  0
117209  1  0  0  0  0
117210  1  0  0  0  0
118211  1  0  0  0  0
118212  1  0  0  0  0
118213  1  0  0  0  0
119214  1  0  0  0  0
121215  1  0  0  0  0
121216  1  0  0  0  0
122217  1  0  0  0  0
122218  1  0  0  0  0
122219  1  0  0  0  0
126220  1  0  0  0  0
132221  1  0  0  0  0
132222  1  0  0  0  0
133223  1  0  0  0  0
133224  1  0  0  0  0
133225  1  0  0  0  0
144226  1  0  0  0  0
144227  1  0  0  0  0
145228  1  0  0  0  0
145229  1  0  0  0  0
145230  1  0  0  0  0
152231  1  0  0  0  0
153232  1  0  0  0  0
M  END
