
  xtb     02282216513D
 energy: -172.537650909530 gnorm: 0.000456968607 xtb: 6.4.1 (unknown)
 77 88  0     0  0            999 V2000
    7.7670    0.2639   -3.1938 C   0  0  0  0  0  0  0  0  0  0  0  0
    9.0358   -0.0254   -2.0754 S   0  0  0  0  0  3  0  0  0  0  0  0
    7.8909    0.1203   -0.6185 C   0  0  0  0  0  0  0  0  0  0  0  0
    8.2807   -0.0051    0.5068 O   0  0  0  0  0  0  0  0  0  0  0  0
    6.5951    0.3892   -1.1669 C   0  0  0  0  0  0  0  0  0  0  0  0
    6.5598    0.4631   -2.5943 C   0  0  0  0  0  0  0  0  0  0  0  0
    5.2561    0.7331   -3.1503 C   0  0  0  0  0  0  0  0  0  0  0  0
    4.8781    0.8572   -4.2760 O   0  0  0  0  0  0  0  0  0  0  0  0
    4.1129    0.8846   -1.7185 S   0  0  0  0  0  3  0  0  0  0  0  0
    5.3786    0.5825   -0.5396 C   0  0  0  0  0  0  0  0  0  0  0  0
    5.1378    0.5562    0.8493 C   0  0  0  0  0  0  0  0  0  0  0  0
    3.9010    0.7000    1.3939 C   0  0  0  0  0  0  0  0  0  0  0  0
    3.6269    0.7155    2.7868 C   0  0  0  0  0  0  0  0  0  0  0  0
    2.3455    0.7322    3.2895 C   0  0  0  0  0  0  0  0  0  0  0  0
    2.0056    0.8529    4.5931 O   0  0  0  0  0  0  0  0  0  0  0  0
    2.9058    1.2936    5.5118 C   0  0  0  0  0  0  0  0  0  0  0  0
    2.5290    1.7532    6.7359 C   0  0  0  0  0  0  0  0  0  0  0  0
    3.8867    2.2000    7.6865 S   0  0  0  0  0  0  0  0  0  0  0  0
    4.9744    1.7700    6.4235 C   0  0  0  0  0  0  0  0  0  0  0  0
    4.3140    1.3056    5.3316 C   0  0  0  0  0  0  0  0  0  0  0  0
    5.0633    0.7662    3.8353 S   0  0  0  0  0  0  0  0  0  0  0  0
    1.1541    0.5895    2.4881 C   0  0  0  0  0  0  0  0  0  0  0  0
    1.0227   -0.5493    1.1667 S   0  0  0  0  0  3  0  0  0  0  0  0
   -0.7783   -0.2888    1.0059 C   0  0  0  0  0  0  0  0  0  0  0  0
   -1.4158   -0.9806    0.2406 O   0  0  0  0  0  0  0  0  0  0  0  0
   -1.1409    0.7450    1.9172 C   0  0  0  0  0  0  0  0  0  0  0  0
   -0.0677    1.1694    2.7577 C   0  0  0  0  0  0  0  0  0  0  0  0
   -0.4230    2.1876    3.7228 C   0  0  0  0  0  0  0  0  0  0  0  0
    0.2421    2.8277    4.4866 O   0  0  0  0  0  0  0  0  0  0  0  0
   -2.2190    2.4355    3.5686 S   0  0  0  0  0  3  0  0  0  0  0  0
   -2.3637    1.3546    2.1920 C   0  0  0  0  0  0  0  0  0  0  0  0
   -3.6405    1.2184    1.6124 C   0  0  0  0  0  0  0  0  0  0  0  0
   -3.9938    0.7940    0.3671 C   0  0  0  0  0  0  0  0  0  0  0  0
   -3.1614    0.6253   -0.7743 C   0  0  0  0  0  0  0  0  0  0  0  0
   -3.4646   -0.2862   -1.7487 C   0  0  0  0  0  0  0  0  0  0  0  0
   -2.6263   -0.7027   -2.7244 O   0  0  0  0  0  0  0  0  0  0  0  0
   -1.2979   -0.4110   -2.6608 C   0  0  0  0  0  0  0  0  0  0  0  0
   -0.3549   -1.1401   -3.3222 C   0  0  0  0  0  0  0  0  0  0  0  0
    1.2201   -0.5195   -3.0569 S   0  0  0  0  0  0  0  0  0  0  0  0
    0.6135    0.7255   -2.0383 C   0  0  0  0  0  0  0  0  0  0  0  0
   -0.7377    0.6633   -1.9230 C   0  0  0  0  0  0  0  0  0  0  0  0
   -1.7547    1.7116   -0.9466 S   0  0  0  0  0  0  0  0  0  0  0  0
   -4.7498   -0.9772   -1.8807 C   0  0  0  0  0  0  0  0  0  0  0  0
   -4.7799   -2.3078   -2.1292 C   0  0  0  0  0  0  0  0  0  0  0  0
   -5.8289   -3.0600   -2.5365 O   0  0  0  0  0  0  0  0  0  0  0  0
   -7.0269   -2.4603   -2.7937 C   0  0  0  0  0  0  0  0  0  0  0  0
   -8.0865   -3.1638   -3.2766 C   0  0  0  0  0  0  0  0  0  0  0  0
   -9.4734   -2.1712   -3.4829 S   0  0  0  0  0  0  0  0  0  0  0  0
   -8.6205   -0.7906   -2.9146 C   0  0  0  0  0  0  0  0  0  0  0  0
   -7.3372   -1.0884   -2.5850 C   0  0  0  0  0  0  0  0  0  0  0  0
   -6.1646    0.0870   -1.9920 S   0  0  0  0  0  0  0  0  0  0  0  0
   -3.5777   -3.0996   -1.9016 C   0  0  0  0  0  0  0  0  0  0  0  0
   -2.8504   -4.0513   -3.1596 S   0  0  0  0  0  3  0  0  0  0  0  0
   -1.4451   -4.5626   -2.0633 C   0  0  0  0  0  0  0  0  0  0  0  0
   -0.5455   -5.2365   -2.4728 O   0  0  0  0  0  0  0  0  0  0  0  0
   -1.7267   -4.0077   -0.7693 C   0  0  0  0  0  0  0  0  0  0  0  0
   -2.8978   -3.1938   -0.7182 C   0  0  0  0  0  0  0  0  0  0  0  0
   -3.2128   -2.6809    0.5948 C   0  0  0  0  0  0  0  0  0  0  0  0
   -4.1185   -2.0030    0.9841 O   0  0  0  0  0  0  0  0  0  0  0  0
   -1.9434   -3.3698    1.7263 S   0  0  0  0  0  3  0  0  0  0  0  0
   -1.0814   -4.1684    0.4375 C   0  0  0  0  0  0  0  0  0  0  0  0
    0.1340   -4.8954    0.6491 C   0  0  0  0  0  0  0  0  0  0  0  0
    0.7406   -5.0037    1.8315 C   0  0  0  0  0  0  0  0  0  0  0  0
    7.9730    0.2730   -4.2476 H   0  0  0  0  0  0  0  0  0  0  0  0
    6.0094    0.4008    1.4719 H   0  0  0  0  0  0  0  0  0  0  0  0
    3.0645    0.8287    0.7219 H   0  0  0  0  0  0  0  0  0  0  0  0
    1.5310    1.8590    7.1067 H   0  0  0  0  0  0  0  0  0  0  0  0
    6.0314    1.8751    6.5553 H   0  0  0  0  0  0  0  0  0  0  0  0
   -4.4538    1.4659    2.2831 H   0  0  0  0  0  0  0  0  0  0  0  0
   -5.0391    0.5581    0.2264 H   0  0  0  0  0  0  0  0  0  0  0  0
   -0.5125   -1.9955   -3.9469 H   0  0  0  0  0  0  0  0  0  0  0  0
    1.2793    1.4419   -1.6036 H   0  0  0  0  0  0  0  0  0  0  0  0
   -8.1150   -4.2066   -3.5160 H   0  0  0  0  0  0  0  0  0  0  0  0
   -9.1055    0.1616   -2.8527 H   0  0  0  0  0  0  0  0  0  0  0  0
    0.5464   -5.3543   -0.2400 H   0  0  0  0  0  0  0  0  0  0  0  0
    0.3289   -4.5420    2.7145 H   0  0  0  0  0  0  0  0  0  0  0  0
    1.6589   -5.5521    1.9447 H   0  0  0  0  0  0  0  0  0  0  0  0
  1  2  2  0  0  0  0
  2  3  1  0  0  0  0
  3  4  2  0  0  0  0
  3  5  1  0  0  0  0
  5  6  2  0  0  0  0
  6  7  1  0  0  0  0
  7  8  2  0  0  0  0
  7  9  1  0  0  0  0
  9 10  2  0  0  0  0
 10 11  1  0  0  0  0
 11 12  2  0  0  0  0
 12 13  1  0  0  0  0
 13 14  2  0  0  0  0
 14 15  1  0  0  0  0
 15 16  1  0  0  0  0
 16 17  2  0  0  0  0
 17 18  1  0  0  0  0
 18 19  1  0  0  0  0
 19 20  2  0  0  0  0
 20 21  1  0  0  0  0
 14 22  1  0  0  0  0
 22 23  2  0  0  0  0
 23 24  1  0  0  0  0
 24 25  2  0  0  0  0
 24 26  1  0  0  0  0
 26 27  2  0  0  0  0
 27 28  1  0  0  0  0
 28 29  2  0  0  0  0
 28 30  1  0  0  0  0
 30 31  2  0  0  0  0
 31 32  1  0  0  0  0
 32 33  2  0  0  0  0
 33 34  1  0  0  0  0
 34 35  2  0  0  0  0
 35 36  1  0  0  0  0
 36 37  1  0  0  0  0
 37 38  2  0  0  0  0
 38 39  1  0  0  0  0
 39 40  1  0  0  0  0
 40 41  2  0  0  0  0
 41 42  1  0  0  0  0
 35 43  1  0  0  0  0
 43 44  2  0  0  0  0
 44 45  1  0  0  0  0
 45 46  1  0  0  0  0
 46 47  2  0  0  0  0
 47 48  1  0  0  0  0
 48 49  1  0  0  0  0
 49 50  2  0  0  0  0
 50 51  1  0  0  0  0
 44 52  1  0  0  0  0
 52 53  2  0  0  0  0
 53 54  1  0  0  0  0
 54 55  2  0  0  0  0
 54 56  1  0  0  0  0
 56 57  2  0  0  0  0
 57 58  1  0  0  0  0
 58 59  2  0  0  0  0
 58 60  1  0  0  0  0
 60 61  2  0  0  0  0
 61 62  1  0  0  0  0
 62 63  2  0  0  0  0
  6  1  1  0  0  0  0
 21 13  1  0  0  0  0
 27 22  1  0  0  0  0
 42 34  1  0  0  0  0
 51 43  1  0  0  0  0
 57 52  1  0  0  0  0
 10  5  1  0  0  0  0
 20 16  1  0  0  0  0
 31 26  1  0  0  0  0
 41 37  1  0  0  0  0
 50 46  1  0  0  0  0
 61 56  1  0  0  0  0
  1 64  1  0  0  0  0
 11 65  1  0  0  0  0
 12 66  1  0  0  0  0
 17 67  1  0  0  0  0
 19 68  1  0  0  0  0
 32 69  1  0  0  0  0
 33 70  1  0  0  0  0
 38 71  1  0  0  0  0
 40 72  1  0  0  0  0
 47 73  1  0  0  0  0
 49 74  1  0  0  0  0
 62 75  1  0  0  0  0
 63 76  1  0  0  0  0
 63 77  1  0  0  0  0
M  END
