
  xtb     03012205393D
 energy: -429.987909603476 gnorm: 0.000163751229 xtb: 6.4.1 (unknown)
210233  0     0  0            999 V2000
  -10.5853  -12.0207   10.8556 C   0  0  0  0  0  0  0  0  0  0  0  0
   -9.4971  -11.8877    9.5569 S   0  0  0  0  0  0  0  0  0  0  0  0
   -9.9670  -10.2487    9.2148 C   0  0  0  0  0  0  0  0  0  0  0  0
  -10.9525   -9.8298   10.1113 C   0  0  0  0  0  0  0  0  0  0  0  0
  -11.3009  -10.8593   11.0508 C   0  0  0  0  0  0  0  0  0  0  0  0
  -12.2838  -10.6074   12.0341 C   0  0  0  0  0  0  0  0  0  0  0  0
  -12.8827   -9.3851   12.0803 C   0  0  0  0  0  0  0  0  0  0  0  0
  -13.9314   -9.0756   13.1104 C   0  0  0  0  0  0  0  0  0  0  0  0
  -15.1133   -8.7449   12.5658 F   0  0  0  0  0  0  0  0  0  0  0  0
  -14.1776  -10.1209   13.9192 F   0  0  0  0  0  0  0  0  0  0  0  0
  -13.5835   -8.0599   13.9173 F   0  0  0  0  0  0  0  0  0  0  0  0
  -12.5369   -8.3455   11.1559 C   0  0  0  0  0  0  0  0  0  0  0  0
  -13.2056   -7.1860   11.3303 O   0  0  0  0  0  0  0  0  0  0  0  0
  -12.9238   -6.1066   10.4698 C   0  0  0  0  0  0  0  0  0  0  0  0
  -11.5896   -8.5747   10.1925 C   0  0  0  0  0  0  0  0  0  0  0  0
   -9.3286   -9.5655    8.1425 C   0  0  0  0  0  0  0  0  0  0  0  0
   -8.2920  -10.0391    7.3851 C   0  0  0  0  0  0  0  0  0  0  0  0
   -7.8345   -9.1343    6.3993 C   0  0  0  0  0  0  0  0  0  0  0  0
   -6.8028   -9.3156    5.4598 C   0  0  0  0  0  0  0  0  0  0  0  0
   -6.0308  -10.5449    5.3985 C   0  0  0  0  0  0  0  0  0  0  0  0
   -5.2338  -11.1910    6.8038 S   0  0  0  0  0  0  0  0  0  0  0  0
   -4.5632  -12.5145    5.9144 C   0  0  0  0  0  0  0  0  0  0  0  0
   -3.6578  -13.5042    6.5601 C   0  0  0  0  0  0  0  0  0  0  0  0
   -2.1972  -13.0591    6.4514 C   0  0  0  0  0  0  0  0  0  0  0  0
   -4.9392  -12.4436    4.6064 C   0  0  0  0  0  0  0  0  0  0  0  0
   -4.4715  -13.5871    3.4161 Cl  0  0  0  0  0  0  0  0  0  0  0  0
   -5.7720  -11.3315    4.3098 C   0  0  0  0  0  0  0  0  0  0  0  0
   -6.4429  -11.0771    2.7537 Cl  0  0  0  0  0  0  0  0  0  0  0  0
   -6.5347   -8.2524    4.6060 C   0  0  0  0  0  0  0  0  0  0  0  0
   -7.2693   -7.0410    4.6306 C   0  0  0  0  0  0  0  0  0  0  0  0
   -8.3476   -6.8854    5.5214 C   0  0  0  0  0  0  0  0  0  0  0  0
   -9.1625   -5.6846    5.5096 C   0  0  0  0  0  0  0  0  0  0  0  0
   -9.5467   -4.8361    6.9794 S   0  0  0  0  0  0  0  0  0  0  0  0
  -10.4548   -3.6248    6.1386 C   0  0  0  0  0  0  0  0  0  0  0  0
  -11.1416   -2.5316    6.8795 C   0  0  0  0  0  0  0  0  0  0  0  0
  -12.3713   -3.0606    7.6209 C   0  0  0  0  0  0  0  0  0  0  0  0
  -10.4614   -3.8835    4.8008 C   0  0  0  0  0  0  0  0  0  0  0  0
   -9.7307   -5.0481    4.4391 C   0  0  0  0  0  0  0  0  0  0  0  0
   -9.6711   -5.6169    2.8193 Cl  0  0  0  0  0  0  0  0  0  0  0  0
  -11.2560   -2.9059    3.6346 Cl  0  0  0  0  0  0  0  0  0  0  0  0
   -8.5779   -7.9292    6.4049 C   0  0  0  0  0  0  0  0  0  0  0  0
   -9.8102   -7.9572    7.6311 S   0  0  0  0  0  0  0  0  0  0  0  0
   -6.7372   -6.0823    3.7396 C   0  0  0  0  0  0  0  0  0  0  0  0
   -5.6566   -6.5313    3.0361 C   0  0  0  0  0  0  0  0  0  0  0  0
   -5.2314   -8.1739    3.4559 S   0  0  0  0  0  0  0  0  0  0  0  0
   -4.9202   -5.7939    2.0610 C   0  0  0  0  0  0  0  0  0  0  0  0
   -5.2747   -4.5899    1.5236 C   0  0  0  0  0  0  0  0  0  0  0  0
   -4.3350   -4.0865    0.5951 C   0  0  0  0  0  0  0  0  0  0  0  0
   -4.3780   -2.8633   -0.0997 C   0  0  0  0  0  0  0  0  0  0  0  0
   -5.5489   -2.0080   -0.0328 C   0  0  0  0  0  0  0  0  0  0  0  0
   -5.4150   -0.3095    0.3151 S   0  0  0  0  0  0  0  0  0  0  0  0
   -7.1287   -0.0750    0.2272 C   0  0  0  0  0  0  0  0  0  0  0  0
   -7.7268    1.2744    0.4221 C   0  0  0  0  0  0  0  0  0  0  0  0
   -7.2585    2.2495   -0.6585 C   0  0  0  0  0  0  0  0  0  0  0  0
   -7.7528   -1.2511   -0.0640 C   0  0  0  0  0  0  0  0  0  0  0  0
   -9.4524   -1.4260   -0.2302 Cl  0  0  0  0  0  0  0  0  0  0  0  0
   -6.8624   -2.3490   -0.2118 C   0  0  0  0  0  0  0  0  0  0  0  0
   -7.4093   -3.9136   -0.6619 Cl  0  0  0  0  0  0  0  0  0  0  0  0
   -3.2470   -2.5184   -0.8264 C   0  0  0  0  0  0  0  0  0  0  0  0
   -2.1127   -3.3615   -0.9347 C   0  0  0  0  0  0  0  0  0  0  0  0
   -2.0927   -4.6057   -0.2810 C   0  0  0  0  0  0  0  0  0  0  0  0
   -0.9314   -5.4772   -0.3479 C   0  0  0  0  0  0  0  0  0  0  0  0
   -1.0828   -7.1396   -0.8323 S   0  0  0  0  0  0  0  0  0  0  0  0
    0.6138   -7.4265   -0.6541 C   0  0  0  0  0  0  0  0  0  0  0  0
    1.1943   -8.7768   -0.8900 C   0  0  0  0  0  0  0  0  0  0  0  0
    1.0186   -9.6668    0.3427 C   0  0  0  0  0  0  0  0  0  0  0  0
    1.2440   -6.2956   -0.2276 C   0  0  0  0  0  0  0  0  0  0  0  0
    0.3729   -5.1863   -0.0565 C   0  0  0  0  0  0  0  0  0  0  0  0
    0.9210   -3.6715    0.5397 Cl  0  0  0  0  0  0  0  0  0  0  0  0
    2.9306   -6.1920    0.0717 Cl  0  0  0  0  0  0  0  0  0  0  0  0
   -3.2139   -4.9421    0.4644 C   0  0  0  0  0  0  0  0  0  0  0  0
   -3.3919   -6.3740    1.4379 S   0  0  0  0  0  0  0  0  0  0  0  0
   -1.0945   -2.7760   -1.7246 C   0  0  0  0  0  0  0  0  0  0  0  0
   -1.4035   -1.5259   -2.1711 C   0  0  0  0  0  0  0  0  0  0  0  0
   -3.0194   -1.0322   -1.7036 S   0  0  0  0  0  0  0  0  0  0  0  0
   -0.5344   -0.5986   -2.8143 C   0  0  0  0  0  0  0  0  0  0  0  0
   -0.8303    0.6642   -3.2367 C   0  0  0  0  0  0  0  0  0  0  0  0
    0.3032    1.4019   -3.6513 C   0  0  0  0  0  0  0  0  0  0  0  0
    0.3492    2.7236   -4.1335 C   0  0  0  0  0  0  0  0  0  0  0  0
   -0.8572    3.5191   -4.2865 C   0  0  0  0  0  0  0  0  0  0  0  0
   -1.9954    3.6976   -2.9825 S   0  0  0  0  0  0  0  0  0  0  0  0
   -3.0252    4.7292   -3.9140 C   0  0  0  0  0  0  0  0  0  0  0  0
   -4.3166    5.2235   -3.3632 C   0  0  0  0  0  0  0  0  0  0  0  0
   -5.4125    4.1669   -3.5241 C   0  0  0  0  0  0  0  0  0  0  0  0
   -2.5087    4.9108   -5.1619 C   0  0  0  0  0  0  0  0  0  0  0  0
   -3.2543    5.8640   -6.3778 Cl  0  0  0  0  0  0  0  0  0  0  0  0
   -1.2768    4.2347   -5.3744 C   0  0  0  0  0  0  0  0  0  0  0  0
   -0.4730    4.2586   -6.8871 Cl  0  0  0  0  0  0  0  0  0  0  0  0
    1.6047    3.2399   -4.4243 C   0  0  0  0  0  0  0  0  0  0  0  0
    2.7982    2.4929   -4.2670 C   0  0  0  0  0  0  0  0  0  0  0  0
    2.7508    1.1560   -3.8281 C   0  0  0  0  0  0  0  0  0  0  0  0
    3.9742    0.3863   -3.6770 C   0  0  0  0  0  0  0  0  0  0  0  0
    5.1201    0.2779   -4.9839 S   0  0  0  0  0  0  0  0  0  0  0  0
    6.2133   -0.6902   -4.0561 C   0  0  0  0  0  0  0  0  0  0  0  0
    7.5348   -1.0985   -4.6065 C   0  0  0  0  0  0  0  0  0  0  0  0
    8.5464    0.0458   -4.4981 C   0  0  0  0  0  0  0  0  0  0  0  0
    5.7056   -0.9099   -2.8107 C   0  0  0  0  0  0  0  0  0  0  0  0
    4.4368   -0.3066   -2.5921 C   0  0  0  0  0  0  0  0  0  0  0  0
    3.6487   -0.3768   -1.0723 Cl  0  0  0  0  0  0  0  0  0  0  0  0
    6.5053   -1.8236   -1.5983 Cl  0  0  0  0  0  0  0  0  0  0  0  0
    1.4968    0.6436   -3.5288 C   0  0  0  0  0  0  0  0  0  0  0  0
    1.1701   -0.9663   -2.9598 S   0  0  0  0  0  0  0  0  0  0  0  0
    3.9441    3.2762   -4.5121 C   0  0  0  0  0  0  0  0  0  0  0  0
    3.6714    4.5738   -4.8570 C   0  0  0  0  0  0  0  0  0  0  0  0
    1.9468    4.8776   -4.9070 S   0  0  0  0  0  0  0  0  0  0  0  0
    4.6597    5.5644   -5.0974 C   0  0  0  0  0  0  0  0  0  0  0  0
    6.2943    5.1841   -4.6851 S   0  0  0  0  0  0  0  0  0  0  0  0
    6.8847    6.7374   -5.1642 C   0  0  0  0  0  0  0  0  0  0  0  0
    5.8467    7.5242   -5.6735 C   0  0  0  0  0  0  0  0  0  0  0  0
    4.5771    6.8609   -5.6177 C   0  0  0  0  0  0  0  0  0  0  0  0
    3.4331    7.5295   -6.0936 C   0  0  0  0  0  0  0  0  0  0  0  0
    3.5520    8.7881   -6.6092 C   0  0  0  0  0  0  0  0  0  0  0  0
    2.3490    9.5263   -7.1235 C   0  0  0  0  0  0  0  0  0  0  0  0
    1.2133    8.8267   -6.9746 F   0  0  0  0  0  0  0  0  0  0  0  0
    2.4379    9.8151   -8.4326 F   0  0  0  0  0  0  0  0  0  0  0  0
    2.1496   10.6940   -6.4889 F   0  0  0  0  0  0  0  0  0  0  0  0
    4.8191    9.4433   -6.7048 C   0  0  0  0  0  0  0  0  0  0  0  0
    4.7891   10.6697   -7.2673 O   0  0  0  0  0  0  0  0  0  0  0  0
    5.9934   11.3895   -7.3897 C   0  0  0  0  0  0  0  0  0  0  0  0
    5.9443    8.8090   -6.2442 C   0  0  0  0  0  0  0  0  0  0  0  0
    8.2667    7.0194   -4.9856 C   0  0  0  0  0  0  0  0  0  0  0  0
    8.9192    8.2185   -4.9273 C   0  0  0  0  0  0  0  0  0  0  0  0
   10.3159    8.0982   -4.7301 C   0  0  0  0  0  0  0  0  0  0  0  0
   11.2587    9.1318   -4.5975 C   0  0  0  0  0  0  0  0  0  0  0  0
   10.8625   10.5250   -4.7129 C   0  0  0  0  0  0  0  0  0  0  0  0
    9.9542   11.0942   -6.0866 S   0  0  0  0  0  0  0  0  0  0  0  0
    9.9065   12.7177   -5.4885 C   0  0  0  0  0  0  0  0  0  0  0  0
    9.2656   13.8145   -6.2652 C   0  0  0  0  0  0  0  0  0  0  0  0
   10.2811   14.5023   -7.1809 C   0  0  0  0  0  0  0  0  0  0  0  0
   10.5661   12.7997   -4.2992 C   0  0  0  0  0  0  0  0  0  0  0  0
   10.7274   14.2499   -3.3972 Cl  0  0  0  0  0  0  0  0  0  0  0  0
   11.1038   11.5612   -3.8540 C   0  0  0  0  0  0  0  0  0  0  0  0
   11.8861   11.3987   -2.3388 Cl  0  0  0  0  0  0  0  0  0  0  0  0
   12.5765    8.7541   -4.3600 C   0  0  0  0  0  0  0  0  0  0  0  0
   12.9776    7.4032   -4.2227 C   0  0  0  0  0  0  0  0  0  0  0  0
   12.0331    6.3714   -4.3449 C   0  0  0  0  0  0  0  0  0  0  0  0
   12.3895    4.9727   -4.1665 C   0  0  0  0  0  0  0  0  0  0  0  0
   13.1855    4.4351   -2.7157 S   0  0  0  0  0  0  0  0  0  0  0  0
   13.1403    2.7764   -3.2087 C   0  0  0  0  0  0  0  0  0  0  0  0
   13.7441    1.7054   -2.3692 C   0  0  0  0  0  0  0  0  0  0  0  0
   15.2637    1.6614   -2.5455 C   0  0  0  0  0  0  0  0  0  0  0  0
   12.5536    2.6651   -4.4332 C   0  0  0  0  0  0  0  0  0  0  0  0
   12.1225    3.9051   -4.9779 C   0  0  0  0  0  0  0  0  0  0  0  0
   11.4249    4.0230   -6.5386 Cl  0  0  0  0  0  0  0  0  0  0  0  0
   12.3309    1.1770   -5.2563 Cl  0  0  0  0  0  0  0  0  0  0  0  0
   10.7226    6.7470   -4.6093 C   0  0  0  0  0  0  0  0  0  0  0  0
    9.3679    5.6699   -4.7606 S   0  0  0  0  0  0  0  0  0  0  0  0
   14.3836    7.2906   -4.0212 C   0  0  0  0  0  0  0  0  0  0  0  0
   15.0091    8.4857   -4.0183 C   0  0  0  0  0  0  0  0  0  0  0  0
   13.9430    9.8258   -4.2496 S   0  0  0  0  0  0  0  0  0  0  0  0
  -10.6509  -12.9337   11.4124 H   0  0  0  0  0  0  0  0  0  0  0  0
  -12.5473  -11.3826   12.7363 H   0  0  0  0  0  0  0  0  0  0  0  0
  -13.5708   -5.2965   10.8008 H   0  0  0  0  0  0  0  0  0  0  0  0
  -13.1527   -6.3570    9.4295 H   0  0  0  0  0  0  0  0  0  0  0  0
  -11.8771   -5.7976   10.5498 H   0  0  0  0  0  0  0  0  0  0  0  0
  -11.3204   -7.8013    9.4961 H   0  0  0  0  0  0  0  0  0  0  0  0
   -7.8645  -11.0131    7.5403 H   0  0  0  0  0  0  0  0  0  0  0  0
   -3.7815  -14.4689    6.0639 H   0  0  0  0  0  0  0  0  0  0  0  0
   -3.9295  -13.6122    7.6112 H   0  0  0  0  0  0  0  0  0  0  0  0
   -2.0569  -12.0998    6.9439 H   0  0  0  0  0  0  0  0  0  0  0  0
   -1.5480  -13.7922    6.9222 H   0  0  0  0  0  0  0  0  0  0  0  0
   -1.9113  -12.9589    5.4076 H   0  0  0  0  0  0  0  0  0  0  0  0
  -11.4415   -1.7634    6.1653 H   0  0  0  0  0  0  0  0  0  0  0  0
  -10.4502   -2.0887    7.5993 H   0  0  0  0  0  0  0  0  0  0  0  0
  -13.0763   -3.4970    6.9180 H   0  0  0  0  0  0  0  0  0  0  0  0
  -12.8646   -2.2508    8.1513 H   0  0  0  0  0  0  0  0  0  0  0  0
  -12.0788   -3.8229    8.3394 H   0  0  0  0  0  0  0  0  0  0  0  0
   -7.1178   -5.0828    3.6517 H   0  0  0  0  0  0  0  0  0  0  0  0
   -6.1724   -4.0689    1.7962 H   0  0  0  0  0  0  0  0  0  0  0  0
   -7.4398    1.6614    1.4030 H   0  0  0  0  0  0  0  0  0  0  0  0
   -8.8132    1.1773    0.3942 H   0  0  0  0  0  0  0  0  0  0  0  0
   -7.7112    3.2250   -0.5028 H   0  0  0  0  0  0  0  0  0  0  0  0
   -7.5413    1.8872   -1.6438 H   0  0  0  0  0  0  0  0  0  0  0  0
   -6.1768    2.3553   -0.6236 H   0  0  0  0  0  0  0  0  0  0  0  0
    0.6996   -9.2405   -1.7452 H   0  0  0  0  0  0  0  0  0  0  0  0
    2.2565   -8.6670   -1.1160 H   0  0  0  0  0  0  0  0  0  0  0  0
   -0.0371   -9.7817    0.5768 H   0  0  0  0  0  0  0  0  0  0  0  0
    1.5186   -9.2245    1.2007 H   0  0  0  0  0  0  0  0  0  0  0  0
    1.4455  -10.6487    0.1579 H   0  0  0  0  0  0  0  0  0  0  0  0
   -0.1563   -3.2510   -1.9448 H   0  0  0  0  0  0  0  0  0  0  0  0
   -1.8322    1.0526   -3.2241 H   0  0  0  0  0  0  0  0  0  0  0  0
   -4.6006    6.1318   -3.8970 H   0  0  0  0  0  0  0  0  0  0  0  0
   -4.1940    5.4611   -2.3051 H   0  0  0  0  0  0  0  0  0  0  0  0
   -5.1357    3.2540   -3.0022 H   0  0  0  0  0  0  0  0  0  0  0  0
   -5.5594    3.9355   -4.5759 H   0  0  0  0  0  0  0  0  0  0  0  0
   -6.3491    4.5334   -3.1132 H   0  0  0  0  0  0  0  0  0  0  0  0
    7.4216   -1.3831   -5.6541 H   0  0  0  0  0  0  0  0  0  0  0  0
    7.8956   -1.9623   -4.0454 H   0  0  0  0  0  0  0  0  0  0  0  0
    9.5081   -0.2675   -4.8947 H   0  0  0  0  0  0  0  0  0  0  0  0
    8.6774    0.3379   -3.4591 H   0  0  0  0  0  0  0  0  0  0  0  0
    8.2029    0.9106   -5.0611 H   0  0  0  0  0  0  0  0  0  0  0  0
    4.9491    2.9059   -4.4245 H   0  0  0  0  0  0  0  0  0  0  0  0
    2.4692    7.0483   -6.0579 H   0  0  0  0  0  0  0  0  0  0  0  0
    6.4455   11.5767   -6.4104 H   0  0  0  0  0  0  0  0  0  0  0  0
    5.7174   12.3354   -7.8517 H   0  0  0  0  0  0  0  0  0  0  0  0
    6.7108   10.8653   -8.0287 H   0  0  0  0  0  0  0  0  0  0  0  0
    6.9125    9.2653   -6.3442 H   0  0  0  0  0  0  0  0  0  0  0  0
    8.4204    9.1670   -4.9614 H   0  0  0  0  0  0  0  0  0  0  0  0
    8.4507   13.4068   -6.8661 H   0  0  0  0  0  0  0  0  0  0  0  0
    8.8554   14.5452   -5.5652 H   0  0  0  0  0  0  0  0  0  0  0  0
   10.6971   13.7883   -7.8877 H   0  0  0  0  0  0  0  0  0  0  0  0
    9.7996   15.3030   -7.7353 H   0  0  0  0  0  0  0  0  0  0  0  0
   11.0925   14.9235   -6.5934 H   0  0  0  0  0  0  0  0  0  0  0  0
   13.5070    1.8888   -1.3196 H   0  0  0  0  0  0  0  0  0  0  0  0
   13.3120    0.7475   -2.6634 H   0  0  0  0  0  0  0  0  0  0  0  0
   15.7053    2.6096   -2.2478 H   0  0  0  0  0  0  0  0  0  0  0  0
   15.6878    0.8712   -1.9322 H   0  0  0  0  0  0  0  0  0  0  0  0
   15.5176    1.4698   -3.5851 H   0  0  0  0  0  0  0  0  0  0  0  0
   14.8904    6.3516   -3.8965 H   0  0  0  0  0  0  0  0  0  0  0  0
   16.0559    8.6810   -3.8914 H   0  0  0  0  0  0  0  0  0  0  0  0
  1  2  1  0  0  0  0
  2  3  1  0  0  0  0
  3  4  2  0  0  0  0
  4  5  1  0  0  0  0
  5  6  1  0  0  0  0
  6  7  2  0  0  0  0
  7  8  1  0  0  0  0
  8  9  1  0  0  0  0
  8 10  1  0  0  0  0
  8 11  1  0  0  0  0
  7 12  1  0  0  0  0
 12 13  1  0  0  0  0
 13 14  1  0  0  0  0
 12 15  2  0  0  0  0
  3 16  1  0  0  0  0
 16 17  2  0  0  0  0
 17 18  1  0  0  0  0
 18 19  2  0  0  0  0
 19 20  1  0  0  0  0
 20 21  1  0  0  0  0
 21 22  1  0  0  0  0
 22 23  1  0  0  0  0
 23 24  1  0  0  0  0
 22 25  2  0  0  0  0
 25 26  1  0  0  0  0
 25 27  1  0  0  0  0
 27 28  1  0  0  0  0
 19 29  1  0  0  0  0
 29 30  2  0  0  0  0
 30 31  1  0  0  0  0
 31 32  1  0  0  0  0
 32 33  1  0  0  0  0
 33 34  1  0  0  0  0
 34 35  1  0  0  0  0
 35 36  1  0  0  0  0
 34 37  2  0  0  0  0
 37 38  1  0  0  0  0
 38 39  1  0  0  0  0
 37 40  1  0  0  0  0
 31 41  2  0  0  0  0
 41 42  1  0  0  0  0
 30 43  1  0  0  0  0
 43 44  2  0  0  0  0
 44 45  1  0  0  0  0
 44 46  1  0  0  0  0
 46 47  2  0  0  0  0
 47 48  1  0  0  0  0
 48 49  2  0  0  0  0
 49 50  1  0  0  0  0
 50 51  1  0  0  0  0
 51 52  1  0  0  0  0
 52 53  1  0  0  0  0
 53 54  1  0  0  0  0
 52 55  2  0  0  0  0
 55 56  1  0  0  0  0
 55 57  1  0  0  0  0
 57 58  1  0  0  0  0
 49 59  1  0  0  0  0
 59 60  2  0  0  0  0
 60 61  1  0  0  0  0
 61 62  1  0  0  0  0
 62 63  1  0  0  0  0
 63 64  1  0  0  0  0
 64 65  1  0  0  0  0
 65 66  1  0  0  0  0
 64 67  2  0  0  0  0
 67 68  1  0  0  0  0
 68 69  1  0  0  0  0
 67 70  1  0  0  0  0
 61 71  2  0  0  0  0
 71 72  1  0  0  0  0
 60 73  1  0  0  0  0
 73 74  2  0  0  0  0
 74 75  1  0  0  0  0
 74 76  1  0  0  0  0
 76 77  2  0  0  0  0
 77 78  1  0  0  0  0
 78 79  2  0  0  0  0
 79 80  1  0  0  0  0
 80 81  1  0  0  0  0
 81 82  1  0  0  0  0
 82 83  1  0  0  0  0
 83 84  1  0  0  0  0
 82 85  2  0  0  0  0
 85 86  1  0  0  0  0
 85 87  1  0  0  0  0
 87 88  1  0  0  0  0
 79 89  1  0  0  0  0
 89 90  2  0  0  0  0
 90 91  1  0  0  0  0
 91 92  1  0  0  0  0
 92 93  1  0  0  0  0
 93 94  1  0  0  0  0
 94 95  1  0  0  0  0
 95 96  1  0  0  0  0
 94 97  2  0  0  0  0
 97 98  1  0  0  0  0
 98 99  1  0  0  0  0
 97100  1  0  0  0  0
 91101  2  0  0  0  0
101102  1  0  0  0  0
 90103  1  0  0  0  0
103104  2  0  0  0  0
104105  1  0  0  0  0
104106  1  0  0  0  0
106107  1  0  0  0  0
107108  1  0  0  0  0
108109  2  0  0  0  0
109110  1  0  0  0  0
110111  1  0  0  0  0
111112  2  0  0  0  0
112113  1  0  0  0  0
113114  1  0  0  0  0
113115  1  0  0  0  0
113116  1  0  0  0  0
112117  1  0  0  0  0
117118  1  0  0  0  0
118119  1  0  0  0  0
117120  2  0  0  0  0
108121  1  0  0  0  0
121122  2  0  0  0  0
122123  1  0  0  0  0
123124  2  0  0  0  0
124125  1  0  0  0  0
125126  1  0  0  0  0
126127  1  0  0  0  0
127128  1  0  0  0  0
128129  1  0  0  0  0
127130  2  0  0  0  0
130131  1  0  0  0  0
130132  1  0  0  0  0
132133  1  0  0  0  0
124134  1  0  0  0  0
134135  2  0  0  0  0
135136  1  0  0  0  0
136137  1  0  0  0  0
137138  1  0  0  0  0
138139  1  0  0  0  0
139140  1  0  0  0  0
140141  1  0  0  0  0
139142  2  0  0  0  0
142143  1  0  0  0  0
143144  1  0  0  0  0
142145  1  0  0  0  0
136146  2  0  0  0  0
146147  1  0  0  0  0
135148  1  0  0  0  0
148149  2  0  0  0  0
149150  1  0  0  0  0
  5  1  2  0  0  0  0
 42 16  1  0  0  0  0
 72 46  1  0  0  0  0
102 76  1  0  0  0  0
110106  2  0  0  0  0
147121  1  0  0  0  0
 15  4  1  0  0  0  0
 41 18  1  0  0  0  0
 71 48  1  0  0  0  0
101 78  1  0  0  0  0
120109  1  0  0  0  0
146123  1  0  0  0  0
 27 20  2  0  0  0  0
 45 29  1  0  0  0  0
 57 50  2  0  0  0  0
 75 59  1  0  0  0  0
 87 80  2  0  0  0  0
105 89  1  0  0  0  0
132125  2  0  0  0  0
150134  1  0  0  0  0
 38 32  2  0  0  0  0
 68 62  2  0  0  0  0
 98 92  2  0  0  0  0
143137  2  0  0  0  0
  1151  1  0  0  0  0
  6152  1  0  0  0  0
 14153  1  0  0  0  0
 14154  1  0  0  0  0
 14155  1  0  0  0  0
 15156  1  0  0  0  0
 17157  1  0  0  0  0
 23158  1  0  0  0  0
 23159  1  0  0  0  0
 24160  1  0  0  0  0
 24161  1  0  0  0  0
 24162  1  0  0  0  0
 35163  1  0  0  0  0
 35164  1  0  0  0  0
 36165  1  0  0  0  0
 36166  1  0  0  0  0
 36167  1  0  0  0  0
 43168  1  0  0  0  0
 47169  1  0  0  0  0
 53170  1  0  0  0  0
 53171  1  0  0  0  0
 54172  1  0  0  0  0
 54173  1  0  0  0  0
 54174  1  0  0  0  0
 65175  1  0  0  0  0
 65176  1  0  0  0  0
 66177  1  0  0  0  0
 66178  1  0  0  0  0
 66179  1  0  0  0  0
 73180  1  0  0  0  0
 77181  1  0  0  0  0
 83182  1  0  0  0  0
 83183  1  0  0  0  0
 84184  1  0  0  0  0
 84185  1  0  0  0  0
 84186  1  0  0  0  0
 95187  1  0  0  0  0
 95188  1  0  0  0  0
 96189  1  0  0  0  0
 96190  1  0  0  0  0
 96191  1  0  0  0  0
103192  1  0  0  0  0
111193  1  0  0  0  0
119194  1  0  0  0  0
119195  1  0  0  0  0
119196  1  0  0  0  0
120197  1  0  0  0  0
122198  1  0  0  0  0
128199  1  0  0  0  0
128200  1  0  0  0  0
129201  1  0  0  0  0
129202  1  0  0  0  0
129203  1  0  0  0  0
140204  1  0  0  0  0
140205  1  0  0  0  0
141206  1  0  0  0  0
141207  1  0  0  0  0
141208  1  0  0  0  0
148209  1  0  0  0  0
149210  1  0  0  0  0
M  END
