203

C        -15.84750        2.63540       -6.25540
S        -14.64880        2.13480       -7.35390
C        -13.36740        2.31740       -6.19460
C        -13.89350        2.76820       -4.97000
C        -15.32100        2.94410       -5.02170
C        -16.02730        3.38980       -3.87960
C        -15.34290        3.66130       -2.73370
C        -16.05740        4.13190       -1.49760
F        -15.86910        3.30730       -0.45430
F        -15.64870        5.34970       -1.10460
F        -17.38440        4.21920       -1.67380
C        -13.92320        3.52270       -2.68060
C        -13.21220        3.82720       -1.49700
N        -12.60510        4.05290       -0.55160
C        -13.21850        3.08990       -3.78150
C        -12.02750        1.97340       -6.50590
S        -10.91000        1.58230       -5.23810
C         -9.60660        1.24980       -6.32010
C        -10.01810        1.43490       -7.64790
C        -11.39390        1.83870       -7.75190
C        -11.93700        2.10330       -9.02470
C        -11.16630        1.95500      -10.14310
C        -11.73160        2.23510      -11.50740
F        -11.07570        3.22330      -12.13820
F        -11.67760        1.16130      -12.31150
F        -13.02000        2.60780      -11.46330
C         -9.80560        1.55060      -10.04580
C         -9.00320        1.41010      -11.20250
N         -8.32260        1.28020      -12.11460
C         -9.24540        1.30730       -8.81280
C         -8.35610        0.89740       -5.74630
C         -7.21530        0.37540       -6.29670
C         -6.16940        0.17590       -5.36420
C         -4.86050       -0.28160       -5.61860
C         -4.45530       -0.71630       -6.95900
C         -5.21570       -1.64280       -7.67420
C         -4.83850       -2.03220       -8.93930
C         -3.69180       -1.52010       -9.55130
S         -3.32860       -2.12310      -11.16380
C         -2.33710       -0.79490      -11.95610
C         -2.39760       -0.98070      -13.45940
C         -2.92620       -0.62190       -8.81130
F         -1.78020       -0.10690       -9.30760
C         -3.29620       -0.21870       -7.54430
C         -3.98680       -0.29090       -4.54130
C         -4.37170        0.11100       -3.23730
C         -5.67570        0.56350       -2.97840
C         -6.07890        1.03180       -1.64730
C         -5.31670        1.97310       -0.95520
C         -5.72420        2.43780        0.27660
C         -6.89590        1.97720        0.87470
S         -7.32760        2.63840        2.45520
C         -9.14150        2.87810        2.34190
C         -9.53030        3.74360        1.16180
C         -7.62550        1.00920        0.18970
C         -7.24360        0.55460       -1.05610
F         -8.73810        0.46970        0.72890
C         -6.54310        0.57350       -4.05490
S         -8.18380        1.14720       -4.01180
C         -3.32250       -0.03500       -2.30620
C         -2.15980       -0.49850       -2.85450
S         -2.32060       -0.81970       -4.56560
C         -0.94460       -0.65680       -2.12040
C         -0.71840       -0.07730       -0.90580
C          0.53350       -0.40260       -0.33810
C          1.02730        0.00930        0.91280
C          0.16370        0.78530        1.80880
C          0.58490        1.96650        2.41790
C         -0.29400        2.71870        3.16510
C         -1.63160        2.34710        3.33790
S         -2.62650        3.50990        4.21160
C         -4.19500        2.68790        4.66810
C         -4.00520        1.62890        5.73490
C         -2.02560        1.14760        2.75220
F         -3.29440        0.68490        2.85250
C         -1.14950        0.37380        2.01920
C          2.32780       -0.36390        1.20870
C          3.10610       -1.18090        0.34820
C          2.57850       -1.65490       -0.86670
C          3.33580       -2.58450       -1.71330
C          3.89260       -3.73890       -1.16780
C          4.58720       -4.63800       -1.95280
C          4.74720       -4.41610       -3.31570
S          5.62780       -5.47720       -4.41670
C          5.59360       -7.10070       -3.57700
C          4.19090       -7.66880       -3.48730
C          4.19640       -3.24900       -3.84710
C          3.49720       -2.34680       -3.07610
F          4.35170       -2.99200       -5.15870
C          1.30360       -1.22250       -1.19870
S          0.41650       -1.61960       -2.65230
C          4.40590       -1.39930        0.86690
C          4.62040       -0.80700        2.07820
S          3.20900        0.05410        2.65270
C          5.82320       -0.82710        2.84750
C          7.00110       -1.43200        2.51520
C          8.01400       -1.28160        3.49340
C          9.33800       -1.75440        3.44530
C          9.80800       -2.56830        2.31920
C          9.06820       -3.66080        1.87040
C          9.47700       -4.39850        0.77800
C         10.63860       -4.06850        0.08800
S         11.23030       -4.92920       -1.33220
C          9.69330       -5.53750       -2.11600
C          8.77980       -4.40510       -2.54130
C         11.39400       -3.00170        0.57570
F         12.53890       -2.66740       -0.04760
C         10.99820       -2.25780        1.66550
C         10.15800       -1.40340        4.50640
C          9.71860       -0.61520        5.59950
C          8.39650       -0.14050        5.64590
C          7.92120        0.71380        6.73950
C          6.74680        0.41920        7.42470
C          6.29050        1.23100        8.44490
C          6.98510        2.37980        8.80800
S          6.52810        3.50080       10.08270
C          4.81700        3.02720       10.50780
C          3.82650        3.40700        9.42320
C          8.16370        2.66140        8.11190
C          8.63480        1.85610        7.10120
F          8.86590        3.76580        8.43300
C          7.57140       -0.50510        4.59340
S          5.90760       -0.02140        4.39870
C         10.73220       -0.44380        6.57480
C         11.90650       -1.06700        6.26370
S         11.81660       -1.89540        4.71590
C         13.13480       -1.09000        6.99000
S         14.61560       -1.41280        6.15450
C         15.55510       -1.22400        7.55920
C         14.78180       -0.92980        8.66250
C         13.37850       -0.86170        8.34560
C         12.45430       -0.63600        9.38700
C         12.90280       -0.43340       10.66010
C         11.93180       -0.19200       11.78080
F         12.13620        0.98360       12.39490
F         10.65550       -0.17940       11.36120
F         12.00120       -1.14020       12.73170
C         14.29800       -0.45700       10.96990
C         14.74090       -0.24100       12.29680
N         15.13220       -0.06820       13.35910
C         15.21870       -0.71270        9.98600
H        -16.87210        2.68130       -6.56440
H        -17.09800        3.50930       -3.93180
H        -12.14550        3.01840       -3.71080
H        -12.95640        2.43780       -9.12280
H         -8.20520        1.03540       -8.75500
H         -7.10570        0.12710       -7.33500
H         -6.09640       -2.07360       -7.22210
H         -5.42970       -2.74770       -9.48960
H         -2.77540        0.15680      -11.66040
H         -1.31380       -0.86340      -11.59050
H         -3.42510       -0.92150      -13.81110
H         -1.99030       -1.94890      -13.74200
H         -1.81520       -0.20190      -13.94670
H         -2.67310        0.49650       -7.03050
H         -4.42130        2.37170       -1.40770
H         -5.14260        3.18220        0.79820
H         -9.62260        1.90310        2.31150
H         -9.38450        3.36460        3.28640
H         -9.25360        3.26950        0.22160
H         -9.03740        4.71210        1.21810
H        -10.60680        3.89670        1.15610
H         -7.84730       -0.19870       -1.53810
H         -3.44240        0.16750       -1.25880
H         -1.41090        0.60120       -0.44520
H          1.59760        2.31150        2.28030
H          0.03410        3.64020        3.62060
H         -4.67040        2.29500        3.77270
H         -4.79740        3.51530        5.04440
H         -3.52020        2.05220        6.61210
H         -3.39870        0.80530        5.36620
H         -4.97610        1.23440        6.02590
H         -1.51070       -0.55900        1.61340
H          3.76030       -3.94710       -0.11650
H          5.00610       -5.51830       -1.49210
H          6.22650       -7.72330       -4.20920
H          6.06730       -7.00600       -2.60040
H          3.75900       -7.75960       -4.48110
H          3.54660       -7.02620       -2.89050
H          4.21960       -8.65520       -3.02880
H          3.09810       -1.45960       -3.54140
H          5.15960       -1.95570        0.34120
H          7.15320       -1.94840        1.58600
H          8.17290       -3.95030        2.40000
H          8.88690       -5.24510        0.46450
H          9.20330       -6.23800       -1.44020
H         10.05720       -6.08880       -2.98270
H          7.93790       -4.79710       -3.10790
H          9.32040       -3.70570       -3.17430
H          8.39850       -3.86310       -1.67760
H         11.60500       -1.42130        1.97390
H          6.19120       -0.47150        7.17380
H          5.38680        0.95310        8.96160
H          4.62050        3.58540       11.42320
H          4.79660        1.96360       10.74130
H          2.81830        3.13830        9.73270
H          3.86090        4.47890        9.24420
H          4.05100        2.89690        8.48890
H          9.53510        2.14060        6.57890
H         10.58450        0.14620        7.45890
H         16.62000       -1.33250        7.51550
H         11.39610       -0.64640        9.18610
H         16.27180       -0.75270       10.21830
