
  xtb     03042202393D
 energy: -439.259891460663 gnorm: 0.000280498310 xtb: 6.4.1 (unknown)
238261  0     0  0            999 V2000
    4.3263   -9.5364    2.8867 C   0  0  0  0  0  0  0  0  0  0  0  0
    3.1070  -10.4377    2.1109 S   0  0  0  0  0  0  0  0  0  0  0  0
    2.4843   -9.0538    1.2876 C   0  0  0  0  0  0  0  0  0  0  0  0
    3.2126   -7.9127    1.6364 C   0  0  0  0  0  0  0  0  0  0  0  0
    4.2858   -8.2057    2.5491 C   0  0  0  0  0  0  0  0  0  0  0  0
    5.1588   -7.1457    2.9690 C   0  0  0  0  0  0  0  0  0  0  0  0
    6.2625   -7.4536    3.8582 C   0  0  0  0  0  0  0  0  0  0  0  0
    6.4636   -8.5056    4.4209 O   0  0  0  0  0  0  0  0  0  0  0  0
    7.3076   -6.3166    4.0845 C   0  0  0  0  0  0  0  0  0  0  0  0
    8.3459   -6.7596    4.7904 F   0  0  0  0  0  0  0  0  0  0  0  0
    7.8026   -5.8336    2.9292 F   0  0  0  0  0  0  0  0  0  0  0  0
    6.7998   -5.2682    4.7559 F   0  0  0  0  0  0  0  0  0  0  0  0
    4.9134   -5.8693    2.4955 C   0  0  0  0  0  0  0  0  0  0  0  0
    3.8668   -5.6051    1.6025 C   0  0  0  0  0  0  0  0  0  0  0  0
    3.0361   -6.6012    1.1620 C   0  0  0  0  0  0  0  0  0  0  0  0
    1.3292   -9.1129    0.4462 C   0  0  0  0  0  0  0  0  0  0  0  0
    0.0808   -7.9288    0.7085 S   0  0  0  0  0  0  0  0  0  0  0  0
   -0.9589   -8.6083   -0.4900 C   0  0  0  0  0  0  0  0  0  0  0  0
   -0.3724   -9.7460   -1.0536 C   0  0  0  0  0  0  0  0  0  0  0  0
    0.9469  -10.0097   -0.5459 C   0  0  0  0  0  0  0  0  0  0  0  0
    1.6955  -11.0823   -1.1344 C   0  0  0  0  0  0  0  0  0  0  0  0
    3.1354  -11.1697   -0.9571 C   0  0  0  0  0  0  0  0  0  0  0  0
    3.8748  -10.2530   -0.6800 O   0  0  0  0  0  0  0  0  0  0  0  0
    3.7770  -12.5726   -1.1729 C   0  0  0  0  0  0  0  0  0  0  0  0
    3.0411  -13.5613   -0.6365 F   0  0  0  0  0  0  0  0  0  0  0  0
    3.9408  -12.8743   -2.4728 F   0  0  0  0  0  0  0  0  0  0  0  0
    4.9790  -12.6309   -0.6031 F   0  0  0  0  0  0  0  0  0  0  0  0
    1.0568  -11.9256   -2.0263 C   0  0  0  0  0  0  0  0  0  0  0  0
   -0.2667  -11.7098   -2.4276 C   0  0  0  0  0  0  0  0  0  0  0  0
   -0.9629  -10.6173   -1.9853 C   0  0  0  0  0  0  0  0  0  0  0  0
   -2.1394   -7.8987   -0.8460 C   0  0  0  0  0  0  0  0  0  0  0  0
   -2.7577   -6.9439   -0.0856 C   0  0  0  0  0  0  0  0  0  0  0  0
   -3.7208   -6.1849   -0.7900 C   0  0  0  0  0  0  0  0  0  0  0  0
   -4.4365   -5.0595   -0.3472 C   0  0  0  0  0  0  0  0  0  0  0  0
   -4.2971   -4.4997    1.0027 C   0  0  0  0  0  0  0  0  0  0  0  0
   -3.0398   -4.2335    1.5449 C   0  0  0  0  0  0  0  0  0  0  0  0
   -2.9212   -3.6066    2.7657 C   0  0  0  0  0  0  0  0  0  0  0  0
   -4.0437   -3.2241    3.5005 C   0  0  0  0  0  0  0  0  0  0  0  0
   -3.7575   -2.4397    5.0527 S   0  0  0  0  0  0  0  0  0  0  0  0
   -5.1661   -1.2738    5.2402 C   0  0  0  0  0  0  0  0  0  0  0  0
   -4.7587   -0.1933    6.2232 C   0  0  0  0  0  0  0  0  0  0  0  0
   -5.2917   -3.5274    2.9634 C   0  0  0  0  0  0  0  0  0  0  0  0
   -6.4252   -3.2367    3.6383 F   0  0  0  0  0  0  0  0  0  0  0  0
   -5.4248   -4.1386    1.7331 C   0  0  0  0  0  0  0  0  0  0  0  0
   -5.1854   -4.3894   -1.3020 C   0  0  0  0  0  0  0  0  0  0  0  0
   -5.2298   -4.7581   -2.6706 C   0  0  0  0  0  0  0  0  0  0  0  0
   -4.5799   -5.9291   -3.0929 C   0  0  0  0  0  0  0  0  0  0  0  0
   -4.5805   -6.3691   -4.4950 C   0  0  0  0  0  0  0  0  0  0  0  0
   -4.9803   -7.6612   -4.8301 C   0  0  0  0  0  0  0  0  0  0  0  0
   -4.9823   -8.0748   -6.1444 C   0  0  0  0  0  0  0  0  0  0  0  0
   -4.5628   -7.2323   -7.1737 C   0  0  0  0  0  0  0  0  0  0  0  0
   -4.5685   -7.9069   -8.8060 S   0  0  0  0  0  0  0  0  0  0  0  0
   -4.9850   -6.4992   -9.9003 C   0  0  0  0  0  0  0  0  0  0  0  0
   -6.3179   -5.8734   -9.5435 C   0  0  0  0  0  0  0  0  0  0  0  0
   -4.1227   -5.9607   -6.8164 C   0  0  0  0  0  0  0  0  0  0  0  0
   -4.1460   -5.5217   -5.5077 C   0  0  0  0  0  0  0  0  0  0  0  0
   -3.6415   -5.1042   -7.7425 F   0  0  0  0  0  0  0  0  0  0  0  0
   -3.8497   -6.6146   -2.1352 C   0  0  0  0  0  0  0  0  0  0  0  0
   -2.8113   -7.9763   -2.4698 S   0  0  0  0  0  0  0  0  0  0  0  0
   -5.8398   -3.7547   -3.4684 C   0  0  0  0  0  0  0  0  0  0  0  0
   -6.2221   -2.6547   -2.7614 C   0  0  0  0  0  0  0  0  0  0  0  0
   -5.9751   -2.8604   -1.0321 S   0  0  0  0  0  0  0  0  0  0  0  0
   -6.4494   -1.3201   -3.2203 C   0  0  0  0  0  0  0  0  0  0  0  0
   -6.8267   -0.2580   -2.4531 C   0  0  0  0  0  0  0  0  0  0  0  0
   -6.4312    0.9950   -2.9836 C   0  0  0  0  0  0  0  0  0  0  0  0
   -6.3973    2.2258   -2.3100 C   0  0  0  0  0  0  0  0  0  0  0  0
   -6.8641    2.4180   -0.9288 C   0  0  0  0  0  0  0  0  0  0  0  0
   -7.6613    3.5098   -0.5887 C   0  0  0  0  0  0  0  0  0  0  0  0
   -7.9746    3.7652    0.7269 C   0  0  0  0  0  0  0  0  0  0  0  0
   -7.4971    2.9621    1.7661 C   0  0  0  0  0  0  0  0  0  0  0  0
   -7.9368    3.4948    3.3857 S   0  0  0  0  0  0  0  0  0  0  0  0
   -7.4874    2.1249    4.5211 C   0  0  0  0  0  0  0  0  0  0  0  0
   -8.0404    2.4478    5.8961 C   0  0  0  0  0  0  0  0  0  0  0  0
   -6.7068    1.8745    1.4096 C   0  0  0  0  0  0  0  0  0  0  0  0
   -6.1800    1.0400    2.3398 F   0  0  0  0  0  0  0  0  0  0  0  0
   -6.3977    1.5982    0.0921 C   0  0  0  0  0  0  0  0  0  0  0  0
   -5.6614    3.2362   -2.9068 C   0  0  0  0  0  0  0  0  0  0  0  0
   -4.9485    3.0748   -4.1204 C   0  0  0  0  0  0  0  0  0  0  0  0
   -5.0236    1.8589   -4.8197 C   0  0  0  0  0  0  0  0  0  0  0  0
   -4.1444    1.5836   -5.9667 C   0  0  0  0  0  0  0  0  0  0  0  0
   -2.7663    1.7308   -5.8301 C   0  0  0  0  0  0  0  0  0  0  0  0
   -1.9062    1.4693   -6.8776 C   0  0  0  0  0  0  0  0  0  0  0  0
   -2.3977    1.0456   -8.1077 C   0  0  0  0  0  0  0  0  0  0  0  0
   -1.4253    0.7210   -9.5367 S   0  0  0  0  0  0  0  0  0  0  0  0
    0.2911    1.0674   -9.0145 C   0  0  0  0  0  0  0  0  0  0  0  0
    0.9116   -0.0730   -8.2309 C   0  0  0  0  0  0  0  0  0  0  0  0
   -3.7799    0.8736   -8.2211 C   0  0  0  0  0  0  0  0  0  0  0  0
   -4.6474    1.1275   -7.1813 C   0  0  0  0  0  0  0  0  0  0  0  0
   -4.2918    0.4506   -9.3948 F   0  0  0  0  0  0  0  0  0  0  0  0
   -5.7782    0.8537   -4.2356 C   0  0  0  0  0  0  0  0  0  0  0  0
   -5.7478   -0.8144   -4.7523 S   0  0  0  0  0  0  0  0  0  0  0  0
   -3.9941    4.1076   -4.3106 C   0  0  0  0  0  0  0  0  0  0  0  0
   -3.8963    4.9578   -3.2474 C   0  0  0  0  0  0  0  0  0  0  0  0
   -5.1807    4.6922   -2.0715 S   0  0  0  0  0  0  0  0  0  0  0  0
   -2.7036    5.6030   -2.8004 C   0  0  0  0  0  0  0  0  0  0  0  0
   -2.4716    6.0257   -1.5240 C   0  0  0  0  0  0  0  0  0  0  0  0
   -1.1082    5.9648   -1.1428 C   0  0  0  0  0  0  0  0  0  0  0  0
   -0.5834    6.0850    0.1534 C   0  0  0  0  0  0  0  0  0  0  0  0
   -1.4683    6.2861    1.3093 C   0  0  0  0  0  0  0  0  0  0  0  0
   -1.2303    7.2545    2.2812 C   0  0  0  0  0  0  0  0  0  0  0  0
   -2.0788    7.3839    3.3599 C   0  0  0  0  0  0  0  0  0  0  0  0
   -3.1980    6.5639    3.5211 C   0  0  0  0  0  0  0  0  0  0  0  0
   -4.2193    6.9135    4.9170 S   0  0  0  0  0  0  0  0  0  0  0  0
   -5.1040    5.3634    5.3235 C   0  0  0  0  0  0  0  0  0  0  0  0
   -4.1586    4.2439    5.7116 C   0  0  0  0  0  0  0  0  0  0  0  0
   -3.4200    5.6004    2.5420 C   0  0  0  0  0  0  0  0  0  0  0  0
   -4.4800    4.7607    2.5993 F   0  0  0  0  0  0  0  0  0  0  0  0
   -2.5689    5.4485    1.4673 C   0  0  0  0  0  0  0  0  0  0  0  0
    0.7699    5.8192    0.3010 C   0  0  0  0  0  0  0  0  0  0  0  0
    1.5938    5.3715   -0.7627 C   0  0  0  0  0  0  0  0  0  0  0  0
    1.0672    5.2514   -2.0601 C   0  0  0  0  0  0  0  0  0  0  0  0
    1.8578    4.7261   -3.1824 C   0  0  0  0  0  0  0  0  0  0  0  0
    3.0829    5.2799   -3.5383 C   0  0  0  0  0  0  0  0  0  0  0  0
    3.7929    4.8078   -4.6273 C   0  0  0  0  0  0  0  0  0  0  0  0
    3.2982    3.7670   -5.4054 C   0  0  0  0  0  0  0  0  0  0  0  0
    4.0834    3.0648   -6.8182 S   0  0  0  0  0  0  0  0  0  0  0  0
    5.3882    4.2633   -7.2528 C   0  0  0  0  0  0  0  0  0  0  0  0
    4.8208    5.5480   -7.8258 C   0  0  0  0  0  0  0  0  0  0  0  0
    2.0801    3.2061   -5.0200 C   0  0  0  0  0  0  0  0  0  0  0  0
    1.3687    3.6592   -3.9349 C   0  0  0  0  0  0  0  0  0  0  0  0
    1.5711    2.1836   -5.7415 F   0  0  0  0  0  0  0  0  0  0  0  0
   -0.2756    5.5574   -2.2144 C   0  0  0  0  0  0  0  0  0  0  0  0
   -1.2043    5.3233   -3.6770 S   0  0  0  0  0  0  0  0  0  0  0  0
    2.8591    4.9261   -0.2942 C   0  0  0  0  0  0  0  0  0  0  0  0
    3.0142    5.0499    1.0520 C   0  0  0  0  0  0  0  0  0  0  0  0
    1.6159    5.7722    1.8231 S   0  0  0  0  0  0  0  0  0  0  0  0
    4.0926    4.5693    1.8684 C   0  0  0  0  0  0  0  0  0  0  0  0
    4.7898    3.4125    1.7010 C   0  0  0  0  0  0  0  0  0  0  0  0
    5.7108    3.1496    2.7509 C   0  0  0  0  0  0  0  0  0  0  0  0
    6.5239    2.0205    2.9278 C   0  0  0  0  0  0  0  0  0  0  0  0
    6.5150    0.9000    1.9773 C   0  0  0  0  0  0  0  0  0  0  0  0
    6.7640    1.0858    0.6190 C   0  0  0  0  0  0  0  0  0  0  0  0
    6.7703    0.0124   -0.2463 C   0  0  0  0  0  0  0  0  0  0  0  0
    6.5055   -1.2824    0.1996 C   0  0  0  0  0  0  0  0  0  0  0  0
    6.5050   -2.5794   -0.9981 S   0  0  0  0  0  0  0  0  0  0  0  0
    7.1267   -4.0368   -0.0647 C   0  0  0  0  0  0  0  0  0  0  0  0
    7.8020   -4.9926   -1.0268 C   0  0  0  0  0  0  0  0  0  0  0  0
    6.2177   -1.4443    1.5515 C   0  0  0  0  0  0  0  0  0  0  0  0
    5.8745   -2.6568    2.0441 F   0  0  0  0  0  0  0  0  0  0  0  0
    6.2426   -0.3852    2.4345 C   0  0  0  0  0  0  0  0  0  0  0  0
    7.3081    1.9899    4.0722 C   0  0  0  0  0  0  0  0  0  0  0  0
    7.3305    3.0350    5.0264 C   0  0  0  0  0  0  0  0  0  0  0  0
    6.5024    4.1541    4.8611 C   0  0  0  0  0  0  0  0  0  0  0  0
    6.4927    5.2547    5.8341 C   0  0  0  0  0  0  0  0  0  0  0  0
    7.6762    5.8900    6.2065 C   0  0  0  0  0  0  0  0  0  0  0  0
    7.6611    6.9197    7.1220 C   0  0  0  0  0  0  0  0  0  0  0  0
    6.4715    7.3633    7.6987 C   0  0  0  0  0  0  0  0  0  0  0  0
    6.5891    8.7206    8.8256 S   0  0  0  0  0  0  0  0  0  0  0  0
    5.3246    8.3760   10.1041 C   0  0  0  0  0  0  0  0  0  0  0  0
    5.5501    7.0407   10.7841 C   0  0  0  0  0  0  0  0  0  0  0  0
    5.2954    6.7398    7.2936 C   0  0  0  0  0  0  0  0  0  0  0  0
    5.2974    5.6970    6.3891 C   0  0  0  0  0  0  0  0  0  0  0  0
    4.0969    7.1334    7.7779 F   0  0  0  0  0  0  0  0  0  0  0  0
    5.6945    4.1704    3.7333 C   0  0  0  0  0  0  0  0  0  0  0  0
    4.5487    5.4208    3.3280 S   0  0  0  0  0  0  0  0  0  0  0  0
    8.2194    2.7412    6.1037 C   0  0  0  0  0  0  0  0  0  0  0  0
    8.8473    1.5572    5.9573 C   0  0  0  0  0  0  0  0  0  0  0  0
    8.4052    0.7078    4.5164 S   0  0  0  0  0  0  0  0  0  0  0  0
    5.0102  -10.0297    3.5464 H   0  0  0  0  0  0  0  0  0  0  0  0
    5.5198   -5.0346    2.8058 H   0  0  0  0  0  0  0  0  0  0  0  0
    3.7282   -4.5927    1.2560 H   0  0  0  0  0  0  0  0  0  0  0  0
    2.2514   -6.3861    0.4531 H   0  0  0  0  0  0  0  0  0  0  0  0
    1.5917  -12.7427   -2.4825 H   0  0  0  0  0  0  0  0  0  0  0  0
   -0.7191  -12.3950   -3.1266 H   0  0  0  0  0  0  0  0  0  0  0  0
   -1.9637  -10.4218   -2.3364 H   0  0  0  0  0  0  0  0  0  0  0  0
   -2.5093   -6.7810    0.9478 H   0  0  0  0  0  0  0  0  0  0  0  0
   -2.1510   -4.4753    0.9827 H   0  0  0  0  0  0  0  0  0  0  0  0
   -1.9468   -3.3843    3.1721 H   0  0  0  0  0  0  0  0  0  0  0  0
   -6.0288   -1.8301    5.6033 H   0  0  0  0  0  0  0  0  0  0  0  0
   -5.3784   -0.8557    4.2574 H   0  0  0  0  0  0  0  0  0  0  0  0
   -5.5902    0.4892    6.3837 H   0  0  0  0  0  0  0  0  0  0  0  0
   -4.4804   -0.6321    7.1790 H   0  0  0  0  0  0  0  0  0  0  0  0
   -3.9093    0.3693    5.8422 H   0  0  0  0  0  0  0  0  0  0  0  0
   -6.4174   -4.3494    1.3663 H   0  0  0  0  0  0  0  0  0  0  0  0
   -5.3171   -8.3334   -4.0557 H   0  0  0  0  0  0  0  0  0  0  0  0
   -5.3112   -9.0690   -6.4034 H   0  0  0  0  0  0  0  0  0  0  0  0
   -4.1737   -5.7755   -9.8754 H   0  0  0  0  0  0  0  0  0  0  0  0
   -5.0196   -6.9597  -10.8878 H   0  0  0  0  0  0  0  0  0  0  0  0
   -6.2839   -5.4215   -8.5542 H   0  0  0  0  0  0  0  0  0  0  0  0
   -6.5592   -5.0959  -10.2652 H   0  0  0  0  0  0  0  0  0  0  0  0
   -7.1080   -6.6215   -9.5557 H   0  0  0  0  0  0  0  0  0  0  0  0
   -3.7803   -4.5301   -5.2893 H   0  0  0  0  0  0  0  0  0  0  0  0
   -5.9365   -3.8170   -4.5372 H   0  0  0  0  0  0  0  0  0  0  0  0
   -7.3023   -0.3751   -1.4957 H   0  0  0  0  0  0  0  0  0  0  0  0
   -8.0396    4.1575   -1.3646 H   0  0  0  0  0  0  0  0  0  0  0  0
   -8.5900    4.6132    0.9847 H   0  0  0  0  0  0  0  0  0  0  0  0
   -6.4019    2.0432    4.5386 H   0  0  0  0  0  0  0  0  0  0  0  0
   -7.9241    1.2077    4.1292 H   0  0  0  0  0  0  0  0  0  0  0  0
   -7.6029    3.3672    6.2793 H   0  0  0  0  0  0  0  0  0  0  0  0
   -7.8152    1.6374    6.5865 H   0  0  0  0  0  0  0  0  0  0  0  0
   -9.1196    2.5738    5.8522 H   0  0  0  0  0  0  0  0  0  0  0  0
   -5.7475    0.7618   -0.1148 H   0  0  0  0  0  0  0  0  0  0  0  0
   -2.3548    2.0313   -4.8782 H   0  0  0  0  0  0  0  0  0  0  0  0
   -0.8484    1.5985   -6.7216 H   0  0  0  0  0  0  0  0  0  0  0  0
    0.3001    2.0030   -8.4584 H   0  0  0  0  0  0  0  0  0  0  0  0
    0.8183    1.2179   -9.9567 H   0  0  0  0  0  0  0  0  0  0  0  0
    1.9233    0.1985   -7.9371 H   0  0  0  0  0  0  0  0  0  0  0  0
    0.9484   -0.9738   -8.8389 H   0  0  0  0  0  0  0  0  0  0  0  0
    0.3411   -0.2886   -7.3311 H   0  0  0  0  0  0  0  0  0  0  0  0
   -5.7064    0.9854   -7.3299 H   0  0  0  0  0  0  0  0  0  0  0  0
   -3.3178    4.1455   -5.1455 H   0  0  0  0  0  0  0  0  0  0  0  0
   -3.2687    6.2817   -0.8498 H   0  0  0  0  0  0  0  0  0  0  0  0
   -0.3819    7.9144    2.1850 H   0  0  0  0  0  0  0  0  0  0  0  0
   -1.8921    8.1372    4.1094 H   0  0  0  0  0  0  0  0  0  0  0  0
   -5.7238    5.6611    6.1703 H   0  0  0  0  0  0  0  0  0  0  0  0
   -5.7512    5.0922    4.4922 H   0  0  0  0  0  0  0  0  0  0  0  0
   -3.5648    3.9211    4.8595 H   0  0  0  0  0  0  0  0  0  0  0  0
   -3.4830    4.5709    6.4994 H   0  0  0  0  0  0  0  0  0  0  0  0
   -4.7284    3.3910    6.0757 H   0  0  0  0  0  0  0  0  0  0  0  0
   -2.7746    4.6574    0.7625 H   0  0  0  0  0  0  0  0  0  0  0  0
    3.4786    6.1069   -2.9678 H   0  0  0  0  0  0  0  0  0  0  0  0
    4.7398    5.2644   -4.8661 H   0  0  0  0  0  0  0  0  0  0  0  0
    6.0105    4.4346   -6.3753 H   0  0  0  0  0  0  0  0  0  0  0  0
    5.9809    3.7341   -7.9989 H   0  0  0  0  0  0  0  0  0  0  0  0
    4.2314    5.3338   -8.7142 H   0  0  0  0  0  0  0  0  0  0  0  0
    5.6315    6.2202   -8.1000 H   0  0  0  0  0  0  0  0  0  0  0  0
    4.1809    6.0508   -7.1036 H   0  0  0  0  0  0  0  0  0  0  0  0
    0.4434    3.1703   -3.6762 H   0  0  0  0  0  0  0  0  0  0  0  0
    3.6122    4.5062   -0.9362 H   0  0  0  0  0  0  0  0  0  0  0  0
    4.6189    2.7386    0.8811 H   0  0  0  0  0  0  0  0  0  0  0  0
    6.9868    2.0752    0.2489 H   0  0  0  0  0  0  0  0  0  0  0  0
    6.9839    0.1558   -1.2942 H   0  0  0  0  0  0  0  0  0  0  0  0
    6.2825   -4.5168    0.4271 H   0  0  0  0  0  0  0  0  0  0  0  0
    7.8297   -3.6696    0.6805 H   0  0  0  0  0  0  0  0  0  0  0  0
    7.0972   -5.3436   -1.7773 H   0  0  0  0  0  0  0  0  0  0  0  0
    8.6334   -4.5066   -1.5324 H   0  0  0  0  0  0  0  0  0  0  0  0
    8.1792   -5.8499   -0.4739 H   0  0  0  0  0  0  0  0  0  0  0  0
    6.0139   -0.5711    3.4723 H   0  0  0  0  0  0  0  0  0  0  0  0
    8.6102    5.5797    5.7631 H   0  0  0  0  0  0  0  0  0  0  0  0
    8.5790    7.4081    7.4103 H   0  0  0  0  0  0  0  0  0  0  0  0
    5.4537    9.2005   10.8055 H   0  0  0  0  0  0  0  0  0  0  0  0
    4.3366    8.4443    9.6548 H   0  0  0  0  0  0  0  0  0  0  0  0
    4.8322    6.9167   11.5924 H   0  0  0  0  0  0  0  0  0  0  0  0
    6.5553    6.9870   11.1972 H   0  0  0  0  0  0  0  0  0  0  0  0
    5.4200    6.2195   10.0818 H   0  0  0  0  0  0  0  0  0  0  0  0
    4.3564    5.2368    6.1307 H   0  0  0  0  0  0  0  0  0  0  0  0
    8.3600    3.3919    6.9474 H   0  0  0  0  0  0  0  0  0  0  0  0
    9.5584    1.1026    6.6192 H   0  0  0  0  0  0  0  0  0  0  0  0
  1  2  1  0  0  0  0
  2  3  1  0  0  0  0
  3  4  2  0  0  0  0
  4  5  1  0  0  0  0
  5  6  1  0  0  0  0
  6  7  1  0  0  0  0
  7  8  2  0  0  0  0
  7  9  1  0  0  0  0
  9 10  1  0  0  0  0
  9 11  1  0  0  0  0
  9 12  1  0  0  0  0
  6 13  2  0  0  0  0
 13 14  1  0  0  0  0
 14 15  2  0  0  0  0
  3 16  1  0  0  0  0
 16 17  1  0  0  0  0
 17 18  1  0  0  0  0
 18 19  2  0  0  0  0
 19 20  1  0  0  0  0
 20 21  1  0  0  0  0
 21 22  1  0  0  0  0
 22 23  2  0  0  0  0
 22 24  1  0  0  0  0
 24 25  1  0  0  0  0
 24 26  1  0  0  0  0
 24 27  1  0  0  0  0
 21 28  2  0  0  0  0
 28 29  1  0  0  0  0
 29 30  2  0  0  0  0
 18 31  1  0  0  0  0
 31 32  2  0  0  0  0
 32 33  1  0  0  0  0
 33 34  2  0  0  0  0
 34 35  1  0  0  0  0
 35 36  2  0  0  0  0
 36 37  1  0  0  0  0
 37 38  2  0  0  0  0
 38 39  1  0  0  0  0
 39 40  1  0  0  0  0
 40 41  1  0  0  0  0
 38 42  1  0  0  0  0
 42 43  1  0  0  0  0
 42 44  2  0  0  0  0
 34 45  1  0  0  0  0
 45 46  2  0  0  0  0
 46 47  1  0  0  0  0
 47 48  1  0  0  0  0
 48 49  2  0  0  0  0
 49 50  1  0  0  0  0
 50 51  2  0  0  0  0
 51 52  1  0  0  0  0
 52 53  1  0  0  0  0
 53 54  1  0  0  0  0
 51 55  1  0  0  0  0
 55 56  2  0  0  0  0
 55 57  1  0  0  0  0
 47 58  2  0  0  0  0
 58 59  1  0  0  0  0
 46 60  1  0  0  0  0
 60 61  2  0  0  0  0
 61 62  1  0  0  0  0
 61 63  1  0  0  0  0
 63 64  2  0  0  0  0
 64 65  1  0  0  0  0
 65 66  2  0  0  0  0
 66 67  1  0  0  0  0
 67 68  2  0  0  0  0
 68 69  1  0  0  0  0
 69 70  2  0  0  0  0
 70 71  1  0  0  0  0
 71 72  1  0  0  0  0
 72 73  1  0  0  0  0
 70 74  1  0  0  0  0
 74 75  1  0  0  0  0
 74 76  2  0  0  0  0
 66 77  1  0  0  0  0
 77 78  2  0  0  0  0
 78 79  1  0  0  0  0
 79 80  1  0  0  0  0
 80 81  2  0  0  0  0
 81 82  1  0  0  0  0
 82 83  2  0  0  0  0
 83 84  1  0  0  0  0
 84 85  1  0  0  0  0
 85 86  1  0  0  0  0
 83 87  1  0  0  0  0
 87 88  2  0  0  0  0
 87 89  1  0  0  0  0
 79 90  2  0  0  0  0
 90 91  1  0  0  0  0
 78 92  1  0  0  0  0
 92 93  2  0  0  0  0
 93 94  1  0  0  0  0
 93 95  1  0  0  0  0
 95 96  2  0  0  0  0
 96 97  1  0  0  0  0
 97 98  2  0  0  0  0
 98 99  1  0  0  0  0
 99100  2  0  0  0  0
100101  1  0  0  0  0
101102  2  0  0  0  0
102103  1  0  0  0  0
103104  1  0  0  0  0
104105  1  0  0  0  0
102106  1  0  0  0  0
106107  1  0  0  0  0
106108  2  0  0  0  0
 98109  1  0  0  0  0
109110  2  0  0  0  0
110111  1  0  0  0  0
111112  1  0  0  0  0
112113  2  0  0  0  0
113114  1  0  0  0  0
114115  2  0  0  0  0
115116  1  0  0  0  0
116117  1  0  0  0  0
117118  1  0  0  0  0
115119  1  0  0  0  0
119120  2  0  0  0  0
119121  1  0  0  0  0
111122  2  0  0  0  0
122123  1  0  0  0  0
110124  1  0  0  0  0
124125  2  0  0  0  0
125126  1  0  0  0  0
125127  1  0  0  0  0
127128  2  0  0  0  0
128129  1  0  0  0  0
129130  2  0  0  0  0
130131  1  0  0  0  0
131132  2  0  0  0  0
132133  1  0  0  0  0
133134  2  0  0  0  0
134135  1  0  0  0  0
135136  1  0  0  0  0
136137  1  0  0  0  0
134138  1  0  0  0  0
138139  1  0  0  0  0
138140  2  0  0  0  0
130141  1  0  0  0  0
141142  2  0  0  0  0
142143  1  0  0  0  0
143144  1  0  0  0  0
144145  2  0  0  0  0
145146  1  0  0  0  0
146147  2  0  0  0  0
147148  1  0  0  0  0
148149  1  0  0  0  0
149150  1  0  0  0  0
147151  1  0  0  0  0
151152  2  0  0  0  0
151153  1  0  0  0  0
143154  2  0  0  0  0
154155  1  0  0  0  0
142156  1  0  0  0  0
156157  2  0  0  0  0
157158  1  0  0  0  0
  5  1  2  0  0  0  0
 20 16  2  0  0  0  0
 59 31  1  0  0  0  0
 91 63  1  0  0  0  0
123 95  1  0  0  0  0
155127  1  0  0  0  0
 15  4  1  0  0  0  0
 30 19  1  0  0  0  0
 58 33  1  0  0  0  0
 90 65  1  0  0  0  0
122 97  1  0  0  0  0
154129  1  0  0  0  0
 44 35  1  0  0  0  0
 62 45  1  0  0  0  0
 76 67  1  0  0  0  0
 94 77  1  0  0  0  0
108 99  1  0  0  0  0
126109  1  0  0  0  0
140131  1  0  0  0  0
158141  1  0  0  0  0
 56 48  1  0  0  0  0
 88 80  1  0  0  0  0
120112  1  0  0  0  0
152144  1  0  0  0  0
  1159  1  0  0  0  0
 13160  1  0  0  0  0
 14161  1  0  0  0  0
 15162  1  0  0  0  0
 28163  1  0  0  0  0
 29164  1  0  0  0  0
 30165  1  0  0  0  0
 32166  1  0  0  0  0
 36167  1  0  0  0  0
 37168  1  0  0  0  0
 40169  1  0  0  0  0
 40170  1  0  0  0  0
 41171  1  0  0  0  0
 41172  1  0  0  0  0
 41173  1  0  0  0  0
 44174  1  0  0  0  0
 49175  1  0  0  0  0
 50176  1  0  0  0  0
 53177  1  0  0  0  0
 53178  1  0  0  0  0
 54179  1  0  0  0  0
 54180  1  0  0  0  0
 54181  1  0  0  0  0
 56182  1  0  0  0  0
 60183  1  0  0  0  0
 64184  1  0  0  0  0
 68185  1  0  0  0  0
 69186  1  0  0  0  0
 72187  1  0  0  0  0
 72188  1  0  0  0  0
 73189  1  0  0  0  0
 73190  1  0  0  0  0
 73191  1  0  0  0  0
 76192  1  0  0  0  0
 81193  1  0  0  0  0
 82194  1  0  0  0  0
 85195  1  0  0  0  0
 85196  1  0  0  0  0
 86197  1  0  0  0  0
 86198  1  0  0  0  0
 86199  1  0  0  0  0
 88200  1  0  0  0  0
 92201  1  0  0  0  0
 96202  1  0  0  0  0
100203  1  0  0  0  0
101204  1  0  0  0  0
104205  1  0  0  0  0
104206  1  0  0  0  0
105207  1  0  0  0  0
105208  1  0  0  0  0
105209  1  0  0  0  0
108210  1  0  0  0  0
113211  1  0  0  0  0
114212  1  0  0  0  0
117213  1  0  0  0  0
117214  1  0  0  0  0
118215  1  0  0  0  0
118216  1  0  0  0  0
118217  1  0  0  0  0
120218  1  0  0  0  0
124219  1  0  0  0  0
128220  1  0  0  0  0
132221  1  0  0  0  0
133222  1  0  0  0  0
136223  1  0  0  0  0
136224  1  0  0  0  0
137225  1  0  0  0  0
137226  1  0  0  0  0
137227  1  0  0  0  0
140228  1  0  0  0  0
145229  1  0  0  0  0
146230  1  0  0  0  0
149231  1  0  0  0  0
149232  1  0  0  0  0
150233  1  0  0  0  0
150234  1  0  0  0  0
150235  1  0  0  0  0
152236  1  0  0  0  0
156237  1  0  0  0  0
157238  1  0  0  0  0
M  END
