235

C        -19.94040       -5.08850       -3.17340
C        -19.19200       -4.89840       -4.27900
C        -17.88020       -4.42450       -3.98440
C        -16.84970       -4.10110       -4.88040
C        -17.01520       -4.23840       -6.31930
S        -18.32330       -3.46170       -7.16170
C        -17.79410       -4.05710       -8.69770
C        -18.56560       -3.78240       -9.94100
C        -19.66770       -4.82590      -10.14020
C        -16.67540       -4.82060       -8.54840
Cl       -15.86640       -5.59460       -9.84790
C        -16.22590       -4.91930       -7.20380
Cl       -14.87490       -5.87330       -6.75530
C        -15.66450       -3.62350       -4.33400
C        -15.46520       -3.48030       -2.93890
C        -16.47760       -3.85350       -2.03870
C        -16.26980       -3.77580       -0.60220
S        -15.69730       -2.32010        0.16050
C        -15.69400       -3.04500        1.73050
C        -15.18270       -2.31230        2.92150
C        -13.69820       -2.61860        3.13920
C        -16.11420       -4.33880        1.65360
C        -16.44500       -4.75560        0.33630
Cl       -16.91040       -6.36570       -0.01960
Cl       -16.23460       -5.38370        3.00880
C        -17.67290       -4.30160       -2.58890
S        -19.10870       -4.72730       -1.70240
C        -14.18370       -2.95570       -2.64300
C        -13.43950       -2.68020       -3.75150
S        -14.27460       -3.08360       -5.23150
C        -12.11690       -2.13520       -3.75230
C        -11.55060       -1.40660       -2.74780
C        -10.19840       -1.06690       -2.99020
C         -9.31640       -0.36600       -2.14850
C         -9.75130        0.20660       -0.88530
S        -10.60550       -0.72420        0.31210
C        -10.69960        0.61460        1.40790
C        -11.33980        0.47670        2.74460
C        -10.52620       -0.43950        3.65980
C        -10.09800        1.70870        0.86400
Cl        -9.98910        3.23320        1.64390
C         -9.56400        1.48430       -0.43420
Cl        -8.84840        2.74160       -1.35240
C         -7.99810       -0.25760       -2.57510
C         -7.54540       -0.76850       -3.81730
C         -8.45010       -1.38400       -4.70100
C         -8.03210       -1.84940       -6.01260
S         -6.63700       -2.86780       -6.22530
C         -6.83960       -2.93080       -7.94130
C         -5.85230       -3.62700       -8.81050
C         -4.75190       -2.65840       -9.25160
C         -7.92600       -2.19780       -8.31450
C         -8.60770       -1.58910       -7.22670
Cl        -9.95220       -0.55350       -7.45940
Cl        -8.43950       -2.01420       -9.94110
C         -9.75540       -1.54080       -4.25090
S        -11.01890       -2.39870       -5.08400
C         -6.15190       -0.58320       -3.98430
C         -5.54910        0.00710       -2.91350
S         -6.68700        0.42090       -1.65430
C         -4.14590        0.23730       -2.76020
C         -3.15280       -0.47210       -3.36930
C         -1.85290       -0.03910       -3.01660
C         -0.62250       -0.59940       -3.40400
C         -0.55300       -1.67470       -4.37710
S          0.38720       -3.10490       -4.06530
C         -0.02630       -3.80700       -5.59070
C          0.53910       -5.11800       -6.01200
C          1.96220       -4.94920       -6.54950
C         -0.83820       -2.96760       -6.29350
Cl        -1.44350       -3.31610       -7.85980
C         -1.14480       -1.76160       -5.60850
Cl        -2.09190       -0.52100       -6.32550
C          0.51580       -0.09220       -2.79040
C          0.48240        0.98770       -1.87380
C         -0.74340        1.59200       -1.53740
C         -0.80410        2.72520       -0.63010
S         -0.02560        2.68980        0.92590
C         -0.53520        4.29900        1.31100
C         -0.11730        4.94830        2.58350
C          1.37860        5.26920        2.56940
C         -1.26510        4.81900        0.28490
C         -1.42580        3.92980       -0.81300
Cl        -2.23970        4.39000       -2.24840
Cl        -1.93840        6.39740        0.28810
C         -1.88840        1.04200       -2.09980
S         -3.52490        1.48920       -1.71300
C          1.77590        1.32210       -1.40730
C          2.76160        0.52500       -1.91310
S          2.14160       -0.65850       -3.04220
C          4.14700        0.55040       -1.57210
C          4.74520        1.32440       -0.61930
C          6.13190        1.08180       -0.48470
C          7.03780        1.69560        0.39860
C          6.61770        2.72630        1.33240
S          6.95160        2.55190        3.03390
C          6.16350        4.04070        3.42030
C          6.14560        4.55130        4.81740
C          7.48890        5.19090        5.17420
C          5.68170        4.63100        2.29020
Cl         4.85000        6.13200        2.27280
C          5.92870        3.88480        1.10580
Cl         5.46870        4.44930       -0.44940
C          8.33620        1.20380        0.40540
C          8.75910        0.12220       -0.40540
C          7.87060       -0.44780       -1.33540
C          8.29470       -1.52580       -2.20890
S          7.37200       -2.99140       -2.35000
C          8.48910       -3.67890       -3.47730
C          8.23890       -5.01590       -4.08180
C          7.13740       -4.93640       -5.14120
C          9.50770       -2.80790       -3.72730
C          9.40620       -1.58980       -3.00420
Cl        10.53060       -0.30780       -3.19780
Cl        10.80440       -3.13010       -4.80450
C          6.57340        0.04580       -1.34660
S          5.27670       -0.53370       -2.35160
C         10.06190       -0.31450       -0.06980
C         10.64040        0.41360        0.92860
S          9.61720        1.74900        1.44240
C         11.87860        0.22090        1.61290
S         12.53940        1.57990        2.47870
C         13.87920        0.64400        3.05910
C         13.83090       -0.64240        2.55930
C         12.67680       -0.90410        1.76200
C         12.37470       -2.26840        1.32410
O         11.28410       -2.62910        0.91290
C         13.49580       -3.22840        1.45020
C         13.36180       -4.47420        0.84120
C         14.37400       -5.41180        0.92150
C         15.53370       -5.12150        1.62580
C         15.67410       -3.89400        2.24530
C         14.66650       -2.93700        2.16000
C         14.85690       -1.64260        2.84960
O         15.80910       -1.43010        3.58080
C         14.91700        1.20890        3.87930
C         14.75540        1.99550        4.95660
C         13.51340        2.32050        5.60230
C         12.34730        1.61640        5.64850
C         11.32400        2.24880        6.39960
C          9.99990        1.82110        6.60510
C          9.49810        0.59320        6.01150
S          9.69040        0.29130        4.31070
C          8.83850       -1.20840        4.38470
C          8.56710       -2.00450        3.15640
C          7.26430       -1.54710        2.49510
C          8.43820       -1.45270        5.66510
Cl         7.56720       -2.85250        6.13970
C          8.81160       -0.43960        6.58960
Cl         8.49960       -0.57880        8.26840
C          9.18440        2.65110        7.36740
C          9.64260        3.85260        7.96150
C         10.96540        4.27300        7.76290
C         11.47300        5.50820        8.34150
S         12.88480        5.50720        9.35620
C         12.81700        7.22000        9.58610
C         13.79130        7.92280       10.46560
C         13.28240        7.98500       11.90790
C         11.75410        7.74690        8.91490
C         10.99210        6.77990        8.20590
Cl         9.65310        7.20360        7.22130
Cl        11.36370        9.41850        8.90270
C         11.77410        3.45880        6.98090
S         13.42540        3.79160        6.55300
C          8.61490        4.49470        8.71210
C          7.43520        3.84500        8.64300
S          7.49220        2.40330        7.69000
H        -20.95440       -5.43310       -3.11620
H        -19.54630       -5.08160       -5.27630
H        -19.01200       -2.78860       -9.87940
H        -17.88100       -3.80800      -10.79080
H        -19.23530       -5.82060      -10.21250
H        -20.36110       -4.80730       -9.30260
H        -20.21820       -4.61790      -11.05360
H        -15.32150       -1.24010        2.77490
H        -15.75050       -2.62290        3.80070
H        -13.55690       -3.68290        3.30730
H        -13.32760       -2.07840        4.00590
H        -13.11810       -2.32770        2.26590
H        -13.81470       -2.80570       -1.64620
H        -12.08930       -1.11810       -1.86510
H        -11.41930        1.46980        3.18950
H        -12.34590        0.06910        2.62550
H        -10.45350       -1.43560        3.22960
H         -9.52230       -0.04440        3.79250
H        -11.00120       -0.51270        4.63440
H         -5.40800       -4.45950       -8.26270
H         -6.36780       -4.01850       -9.68960
H         -5.17950       -1.83350       -9.81600
H         -4.02990       -3.17350       -9.87930
H         -4.23420       -2.25470       -8.38490
H         -5.61220       -0.86930       -4.86690
H         -3.34880       -1.31310       -4.00720
H         -0.09970       -5.54280       -6.78820
H          0.55310       -5.79790       -5.15850
H          2.36510       -5.91310       -6.84840
H          2.60530       -4.52220       -5.78370
H          1.96370       -4.28830       -7.41240
H         -0.33510        4.28320        3.42210
H         -0.69270        5.86670        2.70880
H          1.96080        4.35650        2.46280
H          1.61590        5.93140        1.74060
H          1.66580        5.75800        3.49640
H          1.96830        2.12040       -0.71650
H          4.20840        2.02920       -0.01400
H          5.34870        5.29070        4.91200
H          5.94560        3.72670        5.50440
H          8.29190        4.46220        5.08460
H          7.70140        6.02320        4.50780
H          7.46580        5.56010        6.19560
H          9.16440       -5.37340       -4.53580
H          7.93830       -5.71730       -3.30100
H          7.42720       -4.25360       -5.93590
H          6.21260       -4.57790       -4.69540
H          6.96190       -5.91820       -5.57240
H         10.52500       -1.17080       -0.51920
H         12.44820       -4.68390        0.30460
H         14.25950       -6.37070        0.43870
H         16.32460       -5.85350        1.69300
H         16.56310       -3.64790        2.80690
H         15.92160        0.93000        3.58730
H         15.63650        2.41920        5.41910
H         12.22870        0.65130        5.19220
H          9.39200       -1.89540        2.44990
H          8.48510       -3.05810        3.42960
H          6.41930       -1.73950        3.15140
H          7.11350       -2.08140        1.56090
H          7.29950       -0.48040        2.28560
H         13.93790        8.93660       10.08780
H         14.74660        7.39660       10.43850
H         13.13300        6.98140       12.29910
H         12.33720        8.51990       11.95110
H         14.00360        8.50090       12.53580
H          8.76760        5.39780        9.27320
H          6.50680        4.11640        9.10670
