
  xtb     03012207173D
 energy: -467.917448371754 gnorm: 0.000366926006 xtb: 6.4.1 (unknown)
235262  0     0  0            999 V2000
    0.6260   -7.6361   12.8428 C   0  0  0  0  0  0  0  0  0  0  0  0
    0.3037   -6.3270   12.8573 C   0  0  0  0  0  0  0  0  0  0  0  0
   -0.0331   -5.8258   11.5659 C   0  0  0  0  0  0  0  0  0  0  0  0
   -0.4382   -4.5290   11.2110 C   0  0  0  0  0  0  0  0  0  0  0  0
   -0.4685   -3.4499   12.1850 C   0  0  0  0  0  0  0  0  0  0  0  0
   -1.8915   -2.4815   12.4240 S   0  0  0  0  0  0  0  0  0  0  0  0
   -1.1224   -1.5120   13.6336 C   0  0  0  0  0  0  0  0  0  0  0  0
   -1.8330   -0.3679   14.2680 C   0  0  0  0  0  0  0  0  0  0  0  0
   -1.7755    0.8713   13.3714 C   0  0  0  0  0  0  0  0  0  0  0  0
    0.1649   -1.9192   13.8206 C   0  0  0  0  0  0  0  0  0  0  0  0
    1.2499   -1.1890   14.9323 Cl  0  0  0  0  0  0  0  0  0  0  0  0
    0.5377   -3.0214   13.0053 C   0  0  0  0  0  0  0  0  0  0  0  0
    2.1237   -3.6788   13.0078 Cl  0  0  0  0  0  0  0  0  0  0  0  0
   -0.7933   -4.3189    9.8852 C   0  0  0  0  0  0  0  0  0  0  0  0
   -0.7316   -5.3356    8.9023 C   0  0  0  0  0  0  0  0  0  0  0  0
   -0.3178   -6.6305    9.2546 C   0  0  0  0  0  0  0  0  0  0  0  0
   -0.2816   -7.6940    8.2644 C   0  0  0  0  0  0  0  0  0  0  0  0
    1.1574   -8.6240    7.9737 S   0  0  0  0  0  0  0  0  0  0  0  0
    0.3950   -9.5598    6.7352 C   0  0  0  0  0  0  0  0  0  0  0  0
    1.1456  -10.5862    5.9598 C   0  0  0  0  0  0  0  0  0  0  0  0
    1.6213  -10.0156    4.6213 C   0  0  0  0  0  0  0  0  0  0  0  0
   -0.8989   -9.1632    6.5684 C   0  0  0  0  0  0  0  0  0  0  0  0
   -1.2876   -8.1077    7.4349 C   0  0  0  0  0  0  0  0  0  0  0  0
   -2.8857   -7.4809    7.4710 Cl  0  0  0  0  0  0  0  0  0  0  0  0
   -1.9728   -9.8657    5.4288 Cl  0  0  0  0  0  0  0  0  0  0  0  0
    0.0342   -6.8403   10.5816 C   0  0  0  0  0  0  0  0  0  0  0  0
    0.5367   -8.3569   11.2727 S   0  0  0  0  0  0  0  0  0  0  0  0
   -1.0860   -4.8510    7.6193 C   0  0  0  0  0  0  0  0  0  0  0  0
   -1.4290   -3.5326    7.6108 C   0  0  0  0  0  0  0  0  0  0  0  0
   -1.3060   -2.8019    9.1986 S   0  0  0  0  0  0  0  0  0  0  0  0
   -1.8430   -2.7617    6.4861 C   0  0  0  0  0  0  0  0  0  0  0  0
   -2.1223   -1.4289    6.4349 C   0  0  0  0  0  0  0  0  0  0  0  0
   -2.4698   -0.9742    5.1381 C   0  0  0  0  0  0  0  0  0  0  0  0
   -2.7681    0.3379    4.7278 C   0  0  0  0  0  0  0  0  0  0  0  0
   -2.6851    1.4592    5.6455 C   0  0  0  0  0  0  0  0  0  0  0  0
   -1.2708    1.7147    6.6267 S   0  0  0  0  0  0  0  0  0  0  0  0
   -1.9088    3.1691    7.3111 C   0  0  0  0  0  0  0  0  0  0  0  0
   -1.1159    3.9816    8.2739 C   0  0  0  0  0  0  0  0  0  0  0  0
   -0.1921    4.9534    7.5357 C   0  0  0  0  0  0  0  0  0  0  0  0
   -3.1409    3.4340    6.7924 C   0  0  0  0  0  0  0  0  0  0  0  0
   -4.0907    4.7930    7.2339 Cl  0  0  0  0  0  0  0  0  0  0  0  0
   -3.5847    2.4691    5.8485 C   0  0  0  0  0  0  0  0  0  0  0  0
   -5.1328    2.5422    5.1182 Cl  0  0  0  0  0  0  0  0  0  0  0  0
   -3.0516    0.5271    3.3807 C   0  0  0  0  0  0  0  0  0  0  0  0
   -3.1017   -0.5395    2.4485 C   0  0  0  0  0  0  0  0  0  0  0  0
   -2.8425   -1.8577    2.8663 C   0  0  0  0  0  0  0  0  0  0  0  0
   -2.9218   -2.9742    1.9441 C   0  0  0  0  0  0  0  0  0  0  0  0
   -1.6759   -4.1848    1.8554 S   0  0  0  0  0  0  0  0  0  0  0  0
   -2.5348   -5.1001    0.6670 C   0  0  0  0  0  0  0  0  0  0  0  0
   -1.9792   -6.3674    0.1166 C   0  0  0  0  0  0  0  0  0  0  0  0
   -1.5727   -6.2128   -1.3487 C   0  0  0  0  0  0  0  0  0  0  0  0
   -3.7107   -4.4843    0.3548 C   0  0  0  0  0  0  0  0  0  0  0  0
   -3.9347   -3.2817    1.0754 C   0  0  0  0  0  0  0  0  0  0  0  0
   -5.3911   -2.3845    0.9278 Cl  0  0  0  0  0  0  0  0  0  0  0  0
   -4.8474   -5.1041   -0.7719 Cl  0  0  0  0  0  0  0  0  0  0  0  0
   -2.4858   -2.0314    4.1966 C   0  0  0  0  0  0  0  0  0  0  0  0
   -2.0257   -3.5416    4.9273 S   0  0  0  0  0  0  0  0  0  0  0  0
   -3.2365   -0.0727    1.1214 C   0  0  0  0  0  0  0  0  0  0  0  0
   -3.2314    1.2891    1.0190 C   0  0  0  0  0  0  0  0  0  0  0  0
   -3.1937    2.0674    2.5845 S   0  0  0  0  0  0  0  0  0  0  0  0
   -3.0726    2.0416   -0.1833 C   0  0  0  0  0  0  0  0  0  0  0  0
   -2.9192    1.5304   -1.4416 C   0  0  0  0  0  0  0  0  0  0  0  0
   -2.5269    2.4896   -2.4033 C   0  0  0  0  0  0  0  0  0  0  0  0
   -2.1997    2.2833   -3.7604 C   0  0  0  0  0  0  0  0  0  0  0  0
   -2.1927    0.9514   -4.3404 C   0  0  0  0  0  0  0  0  0  0  0  0
   -1.4946   -0.3881   -3.4653 S   0  0  0  0  0  0  0  0  0  0  0  0
   -1.8509   -1.5143   -4.7231 C   0  0  0  0  0  0  0  0  0  0  0  0
   -1.6241   -2.9739   -4.5520 C   0  0  0  0  0  0  0  0  0  0  0  0
   -2.8751   -3.6439   -3.9785 C   0  0  0  0  0  0  0  0  0  0  0  0
   -2.4511   -0.8757   -5.7659 C   0  0  0  0  0  0  0  0  0  0  0  0
   -2.9566   -1.6844   -7.1896 Cl  0  0  0  0  0  0  0  0  0  0  0  0
   -2.6399    0.5170   -5.5609 C   0  0  0  0  0  0  0  0  0  0  0  0
   -3.4651    1.4829   -6.7098 Cl  0  0  0  0  0  0  0  0  0  0  0  0
   -1.7754    3.4027   -4.4717 C   0  0  0  0  0  0  0  0  0  0  0  0
   -1.6832    4.6957   -3.8967 C   0  0  0  0  0  0  0  0  0  0  0  0
   -2.0567    4.9053   -2.5573 C   0  0  0  0  0  0  0  0  0  0  0  0
   -2.0037    6.2314   -1.9699 C   0  0  0  0  0  0  0  0  0  0  0  0
   -1.1708    6.5420   -0.4785 S   0  0  0  0  0  0  0  0  0  0  0  0
   -1.5547    8.2264   -0.5249 C   0  0  0  0  0  0  0  0  0  0  0  0
   -1.0362    9.1615    0.5108 C   0  0  0  0  0  0  0  0  0  0  0  0
    0.3962    9.5906    0.1828 C   0  0  0  0  0  0  0  0  0  0  0  0
   -2.2899    8.5168   -1.6360 C   0  0  0  0  0  0  0  0  0  0  0  0
   -2.5489    7.3885   -2.4568 C   0  0  0  0  0  0  0  0  0  0  0  0
   -3.5214    7.4761   -3.8680 Cl  0  0  0  0  0  0  0  0  0  0  0  0
   -2.8651   10.0868   -2.0207 Cl  0  0  0  0  0  0  0  0  0  0  0  0
   -2.4363    3.7854   -1.8337 C   0  0  0  0  0  0  0  0  0  0  0  0
   -2.8238    3.7702   -0.1378 S   0  0  0  0  0  0  0  0  0  0  0  0
   -1.0888    5.6386   -4.7687 C   0  0  0  0  0  0  0  0  0  0  0  0
   -0.7349    5.1119   -5.9733 C   0  0  0  0  0  0  0  0  0  0  0  0
   -1.1372    3.4006   -6.0858 S   0  0  0  0  0  0  0  0  0  0  0  0
   -0.1013    5.6878   -7.1152 C   0  0  0  0  0  0  0  0  0  0  0  0
   -0.3714    4.8541   -8.6178 S   0  0  0  0  0  0  0  0  0  0  0  0
    0.8401    5.7910   -9.4266 C   0  0  0  0  0  0  0  0  0  0  0  0
    1.3251    6.7814   -8.6053 C   0  0  0  0  0  0  0  0  0  0  0  0
    0.7995    6.7310   -7.2767 C   0  0  0  0  0  0  0  0  0  0  0  0
    1.3000    7.6267   -6.2386 C   0  0  0  0  0  0  0  0  0  0  0  0
    0.9411    7.5962   -5.0720 O   0  0  0  0  0  0  0  0  0  0  0  0
    2.3127    8.6142   -6.6888 C   0  0  0  0  0  0  0  0  0  0  0  0
    2.7725    9.5427   -5.7567 C   0  0  0  0  0  0  0  0  0  0  0  0
    3.7156   10.4908   -6.1042 C   0  0  0  0  0  0  0  0  0  0  0  0
    4.2189   10.5258   -7.3967 C   0  0  0  0  0  0  0  0  0  0  0  0
    3.7711    9.6129   -8.3324 C   0  0  0  0  0  0  0  0  0  0  0  0
    2.8185    8.6552   -7.9937 C   0  0  0  0  0  0  0  0  0  0  0  0
    2.3735    7.7047   -9.0349 C   0  0  0  0  0  0  0  0  0  0  0  0
    2.8434    7.6969  -10.1589 O   0  0  0  0  0  0  0  0  0  0  0  0
    1.3305    5.3575  -10.7203 C   0  0  0  0  0  0  0  0  0  0  0  0
    1.7873    4.1082  -10.8834 C   0  0  0  0  0  0  0  0  0  0  0  0
    1.8887    3.1676   -9.7820 C   0  0  0  0  0  0  0  0  0  0  0  0
    1.4603    1.8825   -9.7194 C   0  0  0  0  0  0  0  0  0  0  0  0
    1.5829    1.3012   -8.4262 C   0  0  0  0  0  0  0  0  0  0  0  0
    1.1733    0.0206   -8.0197 C   0  0  0  0  0  0  0  0  0  0  0  0
    0.3576   -0.8098   -8.8874 C   0  0  0  0  0  0  0  0  0  0  0  0
   -1.0733   -0.1138   -9.5974 S   0  0  0  0  0  0  0  0  0  0  0  0
   -1.5466   -1.6130  -10.3132 C   0  0  0  0  0  0  0  0  0  0  0  0
   -2.7841   -1.7431  -11.1338 C   0  0  0  0  0  0  0  0  0  0  0  0
   -3.8001   -0.6483  -10.8349 C   0  0  0  0  0  0  0  0  0  0  0  0
   -0.6333   -2.5831  -10.0210 C   0  0  0  0  0  0  0  0  0  0  0  0
   -0.7631   -4.2046  -10.5694 Cl  0  0  0  0  0  0  0  0  0  0  0  0
    0.4450   -2.1351   -9.2129 C   0  0  0  0  0  0  0  0  0  0  0  0
    1.7546   -3.1588   -8.7990 Cl  0  0  0  0  0  0  0  0  0  0  0  0
    1.4952   -0.3467   -6.7171 C   0  0  0  0  0  0  0  0  0  0  0  0
    2.0397    0.5568   -5.7692 C   0  0  0  0  0  0  0  0  0  0  0  0
    2.2801    1.8978   -6.1313 C   0  0  0  0  0  0  0  0  0  0  0  0
    2.5070    2.9472   -5.1574 C   0  0  0  0  0  0  0  0  0  0  0  0
    3.5035    4.3295   -5.5341 S   0  0  0  0  0  0  0  0  0  0  0  0
    3.0607    5.1678   -4.0910 C   0  0  0  0  0  0  0  0  0  0  0  0
    3.6204    6.5050   -3.7570 C   0  0  0  0  0  0  0  0  0  0  0  0
    4.7177    6.3999   -2.6963 C   0  0  0  0  0  0  0  0  0  0  0  0
    2.1995    4.4078   -3.3581 C   0  0  0  0  0  0  0  0  0  0  0  0
    1.8918    3.1532   -3.9448 C   0  0  0  0  0  0  0  0  0  0  0  0
    0.7890    2.0949   -3.1656 Cl  0  0  0  0  0  0  0  0  0  0  0  0
    1.4957    4.9194   -1.8807 Cl  0  0  0  0  0  0  0  0  0  0  0  0
    2.1558    2.1933   -7.4907 C   0  0  0  0  0  0  0  0  0  0  0  0
    2.5643    3.7009   -8.2477 S   0  0  0  0  0  0  0  0  0  0  0  0
    2.2672   -0.0727   -4.5186 C   0  0  0  0  0  0  0  0  0  0  0  0
    1.8860   -1.3792   -4.4884 C   0  0  0  0  0  0  0  0  0  0  0  0
    1.2286   -1.9134   -6.0187 S   0  0  0  0  0  0  0  0  0  0  0  0
    1.9133   -2.2970   -3.3916 C   0  0  0  0  0  0  0  0  0  0  0  0
    1.9243   -3.6577   -3.4492 C   0  0  0  0  0  0  0  0  0  0  0  0
    1.8202   -4.2794   -2.1789 C   0  0  0  0  0  0  0  0  0  0  0  0
    1.8640   -5.6509   -1.8807 C   0  0  0  0  0  0  0  0  0  0  0  0
    2.0316   -6.6564   -2.9178 C   0  0  0  0  0  0  0  0  0  0  0  0
    3.3114   -7.8310   -2.8088 S   0  0  0  0  0  0  0  0  0  0  0  0
    2.8586   -8.5821   -4.2998 C   0  0  0  0  0  0  0  0  0  0  0  0
    3.6408   -9.7165   -4.8627 C   0  0  0  0  0  0  0  0  0  0  0  0
    4.8376   -9.2086   -5.6706 C   0  0  0  0  0  0  0  0  0  0  0  0
    1.7811   -7.9474   -4.8414 C   0  0  0  0  0  0  0  0  0  0  0  0
    1.0403   -8.4053   -6.3209 Cl  0  0  0  0  0  0  0  0  0  0  0  0
    1.3078   -6.8593   -4.0597 C   0  0  0  0  0  0  0  0  0  0  0  0
   -0.0857   -5.9651   -4.5020 Cl  0  0  0  0  0  0  0  0  0  0  0  0
    1.7647   -6.0047   -0.5398 C   0  0  0  0  0  0  0  0  0  0  0  0
    1.5961   -5.0620    0.5002 C   0  0  0  0  0  0  0  0  0  0  0  0
    1.5721   -3.6869    0.2069 C   0  0  0  0  0  0  0  0  0  0  0  0
    1.4586   -2.6934    1.2600 C   0  0  0  0  0  0  0  0  0  0  0  0
    2.4564   -2.7894    2.6833 S   0  0  0  0  0  0  0  0  0  0  0  0
    1.8243   -1.3199    3.3347 C   0  0  0  0  0  0  0  0  0  0  0  0
    2.2738   -0.7959    4.6542 C   0  0  0  0  0  0  0  0  0  0  0  0
    1.2846   -1.1667    5.7607 C   0  0  0  0  0  0  0  0  0  0  0  0
    0.8824   -0.8028    2.4967 C   0  0  0  0  0  0  0  0  0  0  0  0
    0.6724   -1.5742    1.3229 C   0  0  0  0  0  0  0  0  0  0  0  0
   -0.5197   -1.1536    0.1690 Cl  0  0  0  0  0  0  0  0  0  0  0  0
    0.0485    0.6643    2.8012 Cl  0  0  0  0  0  0  0  0  0  0  0  0
    1.6989   -3.3281   -1.1328 C   0  0  0  0  0  0  0  0  0  0  0  0
    1.7960   -1.7028   -1.7515 S   0  0  0  0  0  0  0  0  0  0  0  0
    1.4365   -5.7039    1.7642 C   0  0  0  0  0  0  0  0  0  0  0  0
    1.4991   -7.0483    1.6816 C   0  0  0  0  0  0  0  0  0  0  0  0
    1.7476   -7.6347    0.0733 S   0  0  0  0  0  0  0  0  0  0  0  0
    0.9158   -8.2517   13.6718 H   0  0  0  0  0  0  0  0  0  0  0  0
    0.2865   -5.7278   13.7487 H   0  0  0  0  0  0  0  0  0  0  0  0
   -2.8752   -0.6398   14.4437 H   0  0  0  0  0  0  0  0  0  0  0  0
   -1.3608   -0.1497   15.2274 H   0  0  0  0  0  0  0  0  0  0  0  0
   -2.2999    1.6977   13.8432 H   0  0  0  0  0  0  0  0  0  0  0  0
   -0.7428    1.1650   13.2008 H   0  0  0  0  0  0  0  0  0  0  0  0
   -2.2412    0.6629   12.4111 H   0  0  0  0  0  0  0  0  0  0  0  0
    2.0037  -10.9225    6.5428 H   0  0  0  0  0  0  0  0  0  0  0  0
    0.4903  -11.4401    5.7752 H   0  0  0  0  0  0  0  0  0  0  0  0
    2.2718   -9.1595    4.7861 H   0  0  0  0  0  0  0  0  0  0  0  0
    2.1711  -10.7710    4.0664 H   0  0  0  0  0  0  0  0  0  0  0  0
    0.7663   -9.7007    4.0279 H   0  0  0  0  0  0  0  0  0  0  0  0
   -1.0775   -5.4506    6.7273 H   0  0  0  0  0  0  0  0  0  0  0  0
   -2.0745   -0.7964    7.3026 H   0  0  0  0  0  0  0  0  0  0  0  0
   -0.5194    3.3183    8.9027 H   0  0  0  0  0  0  0  0  0  0  0  0
   -1.8042    4.5427    8.9087 H   0  0  0  0  0  0  0  0  0  0  0  0
   -0.7754    5.6299    6.9164 H   0  0  0  0  0  0  0  0  0  0  0  0
    0.3804    5.5396    8.2493 H   0  0  0  0  0  0  0  0  0  0  0  0
    0.4982    4.4066    6.8976 H   0  0  0  0  0  0  0  0  0  0  0  0
   -1.1161   -6.6600    0.7152 H   0  0  0  0  0  0  0  0  0  0  0  0
   -2.7362   -7.1520    0.1966 H   0  0  0  0  0  0  0  0  0  0  0  0
   -2.4496   -6.0390   -1.9647 H   0  0  0  0  0  0  0  0  0  0  0  0
   -0.8927   -5.3730   -1.4681 H   0  0  0  0  0  0  0  0  0  0  0  0
   -1.0770   -7.1160   -1.6948 H   0  0  0  0  0  0  0  0  0  0  0  0
   -3.2629   -0.7231    0.2687 H   0  0  0  0  0  0  0  0  0  0  0  0
   -3.0628    0.4905   -1.6627 H   0  0  0  0  0  0  0  0  0  0  0  0
   -0.7808   -3.1399   -3.8804 H   0  0  0  0  0  0  0  0  0  0  0  0
   -1.3876   -3.4122   -5.5237 H   0  0  0  0  0  0  0  0  0  0  0  0
   -2.7228   -4.7175   -3.9160 H   0  0  0  0  0  0  0  0  0  0  0  0
   -3.0882   -3.2628   -2.9823 H   0  0  0  0  0  0  0  0  0  0  0  0
   -3.7340   -3.4528   -4.6170 H   0  0  0  0  0  0  0  0  0  0  0  0
   -1.6835   10.0396    0.5475 H   0  0  0  0  0  0  0  0  0  0  0  0
   -1.0546    8.6702    1.4851 H   0  0  0  0  0  0  0  0  0  0  0  0
    0.4266   10.0904   -0.7821 H   0  0  0  0  0  0  0  0  0  0  0  0
    1.0488    8.7215    0.1448 H   0  0  0  0  0  0  0  0  0  0  0  0
    0.7658   10.2742    0.9424 H   0  0  0  0  0  0  0  0  0  0  0  0
   -0.9010    6.6600   -4.5015 H   0  0  0  0  0  0  0  0  0  0  0  0
    2.3674    9.5027   -4.7564 H   0  0  0  0  0  0  0  0  0  0  0  0
    4.0588   11.2038   -5.3694 H   0  0  0  0  0  0  0  0  0  0  0  0
    4.9566   11.2644   -7.6719 H   0  0  0  0  0  0  0  0  0  0  0  0
    4.1449    9.6194   -9.3456 H   0  0  0  0  0  0  0  0  0  0  0  0
    1.3419    6.0750  -11.5266 H   0  0  0  0  0  0  0  0  0  0  0  0
    2.1035    3.7621  -11.8572 H   0  0  0  0  0  0  0  0  0  0  0  0
    1.0340    1.3666  -10.5603 H   0  0  0  0  0  0  0  0  0  0  0  0
   -3.2196   -2.7271  -10.9412 H   0  0  0  0  0  0  0  0  0  0  0  0
   -2.5118   -1.7114  -12.1943 H   0  0  0  0  0  0  0  0  0  0  0  0
   -4.0861   -0.6717   -9.7866 H   0  0  0  0  0  0  0  0  0  0  0  0
   -4.6912   -0.7871  -11.4414 H   0  0  0  0  0  0  0  0  0  0  0  0
   -3.3795    0.3310  -11.0532 H   0  0  0  0  0  0  0  0  0  0  0  0
    4.0245    6.9606   -4.6626 H   0  0  0  0  0  0  0  0  0  0  0  0
    2.8070    7.1325   -3.3860 H   0  0  0  0  0  0  0  0  0  0  0  0
    5.5376    5.7853   -3.0605 H   0  0  0  0  0  0  0  0  0  0  0  0
    5.1019    7.3884   -2.4597 H   0  0  0  0  0  0  0  0  0  0  0  0
    4.3235    5.9514   -1.7884 H   0  0  0  0  0  0  0  0  0  0  0  0
    2.7475    0.4065   -3.6855 H   0  0  0  0  0  0  0  0  0  0  0  0
    2.0162   -4.1946   -4.3752 H   0  0  0  0  0  0  0  0  0  0  0  0
    2.9871  -10.3051   -5.5090 H   0  0  0  0  0  0  0  0  0  0  0  0
    3.9945  -10.3517   -4.0489 H   0  0  0  0  0  0  0  0  0  0  0  0
    5.3958  -10.0472   -6.0777 H   0  0  0  0  0  0  0  0  0  0  0  0
    4.4993   -8.5832   -6.4927 H   0  0  0  0  0  0  0  0  0  0  0  0
    5.4990   -8.6225   -5.0369 H   0  0  0  0  0  0  0  0  0  0  0  0
    3.2573   -1.2070    4.8861 H   0  0  0  0  0  0  0  0  0  0  0  0
    2.3525    0.2916    4.5943 H   0  0  0  0  0  0  0  0  0  0  0  0
    1.6430   -0.8053    6.7203 H   0  0  0  0  0  0  0  0  0  0  0  0
    0.3163   -0.7148    5.5645 H   0  0  0  0  0  0  0  0  0  0  0  0
    1.1631   -2.2460    5.8173 H   0  0  0  0  0  0  0  0  0  0  0  0
    1.2661   -5.1756    2.6830 H   0  0  0  0  0  0  0  0  0  0  0  0
    1.4126   -7.7609    2.4781 H   0  0  0  0  0  0  0  0  0  0  0  0
  1  2  2  0  0  0  0
  2  3  1  0  0  0  0
  3  4  2  0  0  0  0
  4  5  1  0  0  0  0
  5  6  1  0  0  0  0
  6  7  1  0  0  0  0
  7  8  1  0  0  0  0
  8  9  1  0  0  0  0
  7 10  2  0  0  0  0
 10 11  1  0  0  0  0
 10 12  1  0  0  0  0
 12 13  1  0  0  0  0
  4 14  1  0  0  0  0
 14 15  2  0  0  0  0
 15 16  1  0  0  0  0
 16 17  1  0  0  0  0
 17 18  1  0  0  0  0
 18 19  1  0  0  0  0
 19 20  1  0  0  0  0
 20 21  1  0  0  0  0
 19 22  2  0  0  0  0
 22 23  1  0  0  0  0
 23 24  1  0  0  0  0
 22 25  1  0  0  0  0
 16 26  2  0  0  0  0
 26 27  1  0  0  0  0
 15 28  1  0  0  0  0
 28 29  2  0  0  0  0
 29 30  1  0  0  0  0
 29 31  1  0  0  0  0
 31 32  2  0  0  0  0
 32 33  1  0  0  0  0
 33 34  2  0  0  0  0
 34 35  1  0  0  0  0
 35 36  1  0  0  0  0
 36 37  1  0  0  0  0
 37 38  1  0  0  0  0
 38 39  1  0  0  0  0
 37 40  2  0  0  0  0
 40 41  1  0  0  0  0
 40 42  1  0  0  0  0
 42 43  1  0  0  0  0
 34 44  1  0  0  0  0
 44 45  2  0  0  0  0
 45 46  1  0  0  0  0
 46 47  1  0  0  0  0
 47 48  1  0  0  0  0
 48 49  1  0  0  0  0
 49 50  1  0  0  0  0
 50 51  1  0  0  0  0
 49 52  2  0  0  0  0
 52 53  1  0  0  0  0
 53 54  1  0  0  0  0
 52 55  1  0  0  0  0
 46 56  2  0  0  0  0
 56 57  1  0  0  0  0
 45 58  1  0  0  0  0
 58 59  2  0  0  0  0
 59 60  1  0  0  0  0
 59 61  1  0  0  0  0
 61 62  2  0  0  0  0
 62 63  1  0  0  0  0
 63 64  2  0  0  0  0
 64 65  1  0  0  0  0
 65 66  1  0  0  0  0
 66 67  1  0  0  0  0
 67 68  1  0  0  0  0
 68 69  1  0  0  0  0
 67 70  2  0  0  0  0
 70 71  1  0  0  0  0
 70 72  1  0  0  0  0
 72 73  1  0  0  0  0
 64 74  1  0  0  0  0
 74 75  2  0  0  0  0
 75 76  1  0  0  0  0
 76 77  1  0  0  0  0
 77 78  1  0  0  0  0
 78 79  1  0  0  0  0
 79 80  1  0  0  0  0
 80 81  1  0  0  0  0
 79 82  2  0  0  0  0
 82 83  1  0  0  0  0
 83 84  1  0  0  0  0
 82 85  1  0  0  0  0
 76 86  2  0  0  0  0
 86 87  1  0  0  0  0
 75 88  1  0  0  0  0
 88 89  2  0  0  0  0
 89 90  1  0  0  0  0
 89 91  1  0  0  0  0
 91 92  1  0  0  0  0
 92 93  1  0  0  0  0
 93 94  2  0  0  0  0
 94 95  1  0  0  0  0
 95 96  1  0  0  0  0
 96 97  2  0  0  0  0
 96 98  1  0  0  0  0
 98 99  2  0  0  0  0
 99100  1  0  0  0  0
100101  2  0  0  0  0
101102  1  0  0  0  0
102103  2  0  0  0  0
103104  1  0  0  0  0
104105  2  0  0  0  0
 93106  1  0  0  0  0
106107  2  0  0  0  0
107108  1  0  0  0  0
108109  2  0  0  0  0
109110  1  0  0  0  0
110111  2  0  0  0  0
111112  1  0  0  0  0
112113  1  0  0  0  0
113114  1  0  0  0  0
114115  1  0  0  0  0
115116  1  0  0  0  0
114117  2  0  0  0  0
117118  1  0  0  0  0
117119  1  0  0  0  0
119120  1  0  0  0  0
111121  1  0  0  0  0
121122  2  0  0  0  0
122123  1  0  0  0  0
123124  1  0  0  0  0
124125  1  0  0  0  0
125126  1  0  0  0  0
126127  1  0  0  0  0
127128  1  0  0  0  0
126129  2  0  0  0  0
129130  1  0  0  0  0
130131  1  0  0  0  0
129132  1  0  0  0  0
123133  2  0  0  0  0
133134  1  0  0  0  0
122135  1  0  0  0  0
135136  2  0  0  0  0
136137  1  0  0  0  0
136138  1  0  0  0  0
138139  2  0  0  0  0
139140  1  0  0  0  0
140141  2  0  0  0  0
141142  1  0  0  0  0
142143  1  0  0  0  0
143144  1  0  0  0  0
144145  1  0  0  0  0
145146  1  0  0  0  0
144147  2  0  0  0  0
147148  1  0  0  0  0
147149  1  0  0  0  0
149150  1  0  0  0  0
141151  1  0  0  0  0
151152  2  0  0  0  0
152153  1  0  0  0  0
153154  1  0  0  0  0
154155  1  0  0  0  0
155156  1  0  0  0  0
156157  1  0  0  0  0
157158  1  0  0  0  0
156159  2  0  0  0  0
159160  1  0  0  0  0
160161  1  0  0  0  0
159162  1  0  0  0  0
153163  2  0  0  0  0
163164  1  0  0  0  0
152165  1  0  0  0  0
165166  2  0  0  0  0
166167  1  0  0  0  0
 27  1  1  0  0  0  0
 57 31  1  0  0  0  0
 87 61  1  0  0  0  0
 95 91  2  0  0  0  0
103 98  1  0  0  0  0
134108  1  0  0  0  0
164138  1  0  0  0  0
 26  3  1  0  0  0  0
 56 33  1  0  0  0  0
 86 63  1  0  0  0  0
104 94  1  0  0  0  0
133110  1  0  0  0  0
163140  1  0  0  0  0
 12  5  2  0  0  0  0
 30 14  1  0  0  0  0
 42 35  2  0  0  0  0
 60 44  1  0  0  0  0
 72 65  2  0  0  0  0
 90 74  1  0  0  0  0
119112  2  0  0  0  0
137121  1  0  0  0  0
149142  2  0  0  0  0
167151  1  0  0  0  0
 23 17  2  0  0  0  0
 53 47  2  0  0  0  0
 83 77  2  0  0  0  0
130124  2  0  0  0  0
160154  2  0  0  0  0
  1168  1  0  0  0  0
  2169  1  0  0  0  0
  8170  1  0  0  0  0
  8171  1  0  0  0  0
  9172  1  0  0  0  0
  9173  1  0  0  0  0
  9174  1  0  0  0  0
 20175  1  0  0  0  0
 20176  1  0  0  0  0
 21177  1  0  0  0  0
 21178  1  0  0  0  0
 21179  1  0  0  0  0
 28180  1  0  0  0  0
 32181  1  0  0  0  0
 38182  1  0  0  0  0
 38183  1  0  0  0  0
 39184  1  0  0  0  0
 39185  1  0  0  0  0
 39186  1  0  0  0  0
 50187  1  0  0  0  0
 50188  1  0  0  0  0
 51189  1  0  0  0  0
 51190  1  0  0  0  0
 51191  1  0  0  0  0
 58192  1  0  0  0  0
 62193  1  0  0  0  0
 68194  1  0  0  0  0
 68195  1  0  0  0  0
 69196  1  0  0  0  0
 69197  1  0  0  0  0
 69198  1  0  0  0  0
 80199  1  0  0  0  0
 80200  1  0  0  0  0
 81201  1  0  0  0  0
 81202  1  0  0  0  0
 81203  1  0  0  0  0
 88204  1  0  0  0  0
 99205  1  0  0  0  0
100206  1  0  0  0  0
101207  1  0  0  0  0
102208  1  0  0  0  0
106209  1  0  0  0  0
107210  1  0  0  0  0
109211  1  0  0  0  0
115212  1  0  0  0  0
115213  1  0  0  0  0
116214  1  0  0  0  0
116215  1  0  0  0  0
116216  1  0  0  0  0
127217  1  0  0  0  0
127218  1  0  0  0  0
128219  1  0  0  0  0
128220  1  0  0  0  0
128221  1  0  0  0  0
135222  1  0  0  0  0
139223  1  0  0  0  0
145224  1  0  0  0  0
145225  1  0  0  0  0
146226  1  0  0  0  0
146227  1  0  0  0  0
146228  1  0  0  0  0
157229  1  0  0  0  0
157230  1  0  0  0  0
158231  1  0  0  0  0
158232  1  0  0  0  0
158233  1  0  0  0  0
165234  1  0  0  0  0
166235  1  0  0  0  0
M  END
