
  xtb     02282216483D
 energy: -466.102304813599 gnorm: 0.000156632756 xtb: 6.4.1 (unknown)
308337  0     0  0            999 V2000
  -14.6254    4.8178   10.9208 C   0  0  0  0  0  0  0  0  0  0  0  0
  -13.6653    5.7615   10.8676 C   0  0  0  0  0  0  0  0  0  0  0  0
  -13.1306    5.9402    9.5568 C   0  0  0  0  0  0  0  0  0  0  0  0
  -12.0848    6.7929    9.1602 C   0  0  0  0  0  0  0  0  0  0  0  0
  -11.4780    7.7222   10.0928 C   0  0  0  0  0  0  0  0  0  0  0  0
  -12.0987    8.5329   10.9978 C   0  0  0  0  0  0  0  0  0  0  0  0
  -11.2135    9.3296   11.7631 C   0  0  0  0  0  0  0  0  0  0  0  0
  -11.7041   10.3103   12.7851 C   0  0  0  0  0  0  0  0  0  0  0  0
  -11.8873   11.6999   12.1740 C   0  0  0  0  0  0  0  0  0  0  0  0
   -9.9059    9.1144   11.4330 C   0  0  0  0  0  0  0  0  0  0  0  0
   -8.6708    9.7600   11.9633 C   0  0  0  0  0  0  0  0  0  0  0  0
   -8.0546   10.7078   10.9322 C   0  0  0  0  0  0  0  0  0  0  0  0
   -9.7537    7.9299   10.1728 S   0  0  0  0  0  0  0  0  0  0  0  0
  -11.6718    6.6899    7.8374 C   0  0  0  0  0  0  0  0  0  0  0  0
  -12.2714    5.8148    6.8985 C   0  0  0  0  0  0  0  0  0  0  0  0
  -13.3324    4.9745    7.2891 C   0  0  0  0  0  0  0  0  0  0  0  0
  -13.9595    4.0271    6.3922 C   0  0  0  0  0  0  0  0  0  0  0  0
  -15.2688    3.6359    6.3710 C   0  0  0  0  0  0  0  0  0  0  0  0
  -15.5596    2.6279    5.4236 C   0  0  0  0  0  0  0  0  0  0  0  0
  -16.9283    2.0340    5.2891 C   0  0  0  0  0  0  0  0  0  0  0  0
  -17.1753    1.0100    6.3980 C   0  0  0  0  0  0  0  0  0  0  0  0
  -14.4539    2.2337    4.7263 C   0  0  0  0  0  0  0  0  0  0  0  0
  -13.0491    3.1243    5.2128 S   0  0  0  0  0  0  0  0  0  0  0  0
  -14.3424    1.2366    3.6220 C   0  0  0  0  0  0  0  0  0  0  0  0
  -14.6820    1.8697    2.2699 C   0  0  0  0  0  0  0  0  0  0  0  0
  -13.7319    5.0682    8.6219 C   0  0  0  0  0  0  0  0  0  0  0  0
  -14.9556    4.0870    9.3883 S   0  0  0  0  0  0  0  0  0  0  0  0
  -11.6759    5.9375    5.6181 C   0  0  0  0  0  0  0  0  0  0  0  0
  -10.6543    6.8382    5.5769 C   0  0  0  0  0  0  0  0  0  0  0  0
  -10.3850    7.6199    7.1135 S   0  0  0  0  0  0  0  0  0  0  0  0
   -9.7980    7.1038    4.4652 C   0  0  0  0  0  0  0  0  0  0  0  0
   -8.6799    7.8850    4.3659 C   0  0  0  0  0  0  0  0  0  0  0  0
   -8.1513    7.6734    3.0630 C   0  0  0  0  0  0  0  0  0  0  0  0
   -6.9900    8.1224    2.4141 C   0  0  0  0  0  0  0  0  0  0  0  0
   -6.0716    9.0982    3.0038 C   0  0  0  0  0  0  0  0  0  0  0  0
   -4.6916    8.9534    2.8752 C   0  0  0  0  0  0  0  0  0  0  0  0
   -3.8340    9.8818    3.4307 C   0  0  0  0  0  0  0  0  0  0  0  0
   -4.3220   10.9834    4.1228 C   0  0  0  0  0  0  0  0  0  0  0  0
   -3.3846   11.9648    4.7652 C   0  0  0  0  0  0  0  0  0  0  0  0
   -3.0518   11.5278    6.1934 C   0  0  0  0  0  0  0  0  0  0  0  0
   -5.6981   11.1310    4.2434 C   0  0  0  0  0  0  0  0  0  0  0  0
   -6.5626   10.2060    3.6925 C   0  0  0  0  0  0  0  0  0  0  0  0
   -6.7774    7.5351    1.1731 C   0  0  0  0  0  0  0  0  0  0  0  0
   -7.6764    6.6286    0.5508 C   0  0  0  0  0  0  0  0  0  0  0  0
   -8.8586    6.2122    1.1817 C   0  0  0  0  0  0  0  0  0  0  0  0
   -9.8011    5.2734    0.5701 C   0  0  0  0  0  0  0  0  0  0  0  0
  -10.1345    5.3815   -0.7785 C   0  0  0  0  0  0  0  0  0  0  0  0
  -11.0184    4.4922   -1.3571 C   0  0  0  0  0  0  0  0  0  0  0  0
  -11.5935    3.4701   -0.6127 C   0  0  0  0  0  0  0  0  0  0  0  0
  -12.5135    2.4730   -1.2566 C   0  0  0  0  0  0  0  0  0  0  0  0
  -11.7301    1.2410   -1.7144 C   0  0  0  0  0  0  0  0  0  0  0  0
  -11.2624    3.3660    0.7330 C   0  0  0  0  0  0  0  0  0  0  0  0
  -10.3864    4.2560    1.3214 C   0  0  0  0  0  0  0  0  0  0  0  0
   -9.0298    6.7373    2.4556 C   0  0  0  0  0  0  0  0  0  0  0  0
  -10.0338    6.4223    3.3092 O   0  0  0  0  0  0  0  0  0  0  0  0
   -7.0375    6.2403   -0.6581 C   0  0  0  0  0  0  0  0  0  0  0  0
   -5.8403    6.9002   -0.6919 C   0  0  0  0  0  0  0  0  0  0  0  0
   -5.6806    7.7079    0.3923 O   0  0  0  0  0  0  0  0  0  0  0  0
   -4.7244    6.7233   -1.5691 C   0  0  0  0  0  0  0  0  0  0  0  0
   -3.4314    7.1465   -1.4300 C   0  0  0  0  0  0  0  0  0  0  0  0
   -2.6815    6.4881   -2.4421 C   0  0  0  0  0  0  0  0  0  0  0  0
   -1.3059    6.3936   -2.7029 C   0  0  0  0  0  0  0  0  0  0  0  0
   -0.2884    7.1761   -1.9985 C   0  0  0  0  0  0  0  0  0  0  0  0
   -0.5081    8.5191   -1.6976 C   0  0  0  0  0  0  0  0  0  0  0  0
    0.4615    9.2634   -1.0545 C   0  0  0  0  0  0  0  0  0  0  0  0
    1.6770    8.6952   -0.6942 C   0  0  0  0  0  0  0  0  0  0  0  0
    2.7177    9.4946    0.0358 C   0  0  0  0  0  0  0  0  0  0  0  0
    2.5583    9.3272    1.5483 C   0  0  0  0  0  0  0  0  0  0  0  0
    1.8926    7.3549   -0.9902 C   0  0  0  0  0  0  0  0  0  0  0  0
    0.9302    6.6044   -1.6344 C   0  0  0  0  0  0  0  0  0  0  0  0
   -0.9850    5.4413   -3.6614 C   0  0  0  0  0  0  0  0  0  0  0  0
   -1.9281    4.6636   -4.3854 C   0  0  0  0  0  0  0  0  0  0  0  0
   -3.3064    4.7909   -4.1516 C   0  0  0  0  0  0  0  0  0  0  0  0
   -4.3311    3.9938   -4.8298 C   0  0  0  0  0  0  0  0  0  0  0  0
   -4.1590    2.6291   -5.0495 C   0  0  0  0  0  0  0  0  0  0  0  0
   -5.1393    1.8908   -5.6828 C   0  0  0  0  0  0  0  0  0  0  0  0
   -6.3187    2.4869   -6.1117 C   0  0  0  0  0  0  0  0  0  0  0  0
   -7.3586    1.6902   -6.8458 C   0  0  0  0  0  0  0  0  0  0  0  0
   -7.0699    1.6932   -8.3485 C   0  0  0  0  0  0  0  0  0  0  0  0
   -6.4934    3.8459   -5.8821 C   0  0  0  0  0  0  0  0  0  0  0  0
   -5.5192    4.5900   -5.2470 C   0  0  0  0  0  0  0  0  0  0  0  0
   -3.6270    5.7020   -3.1529 C   0  0  0  0  0  0  0  0  0  0  0  0
   -4.8659    5.8766   -2.6257 O   0  0  0  0  0  0  0  0  0  0  0  0
   -1.1480    3.7964   -5.2005 C   0  0  0  0  0  0  0  0  0  0  0  0
    0.1626    4.0597   -4.9045 C   0  0  0  0  0  0  0  0  0  0  0  0
    0.2693    5.0782   -4.0082 O   0  0  0  0  0  0  0  0  0  0  0  0
    1.3688    3.3338   -5.1465 C   0  0  0  0  0  0  0  0  0  0  0  0
    1.5663    2.1546   -5.8011 C   0  0  0  0  0  0  0  0  0  0  0  0
    2.8285    1.5701   -5.5246 C   0  0  0  0  0  0  0  0  0  0  0  0
    3.3119    0.3136   -5.9341 C   0  0  0  0  0  0  0  0  0  0  0  0
    2.5395   -0.5799   -6.7769 C   0  0  0  0  0  0  0  0  0  0  0  0
    1.2223   -0.9211   -6.6790 C   0  0  0  0  0  0  0  0  0  0  0  0
    0.7992   -1.8692   -7.6412 C   0  0  0  0  0  0  0  0  0  0  0  0
   -0.5957   -2.4173   -7.6710 C   0  0  0  0  0  0  0  0  0  0  0  0
   -0.7227   -3.6250   -6.7407 C   0  0  0  0  0  0  0  0  0  0  0  0
    1.8118   -2.2546   -8.4719 C   0  0  0  0  0  0  0  0  0  0  0  0
    1.7727   -3.1891   -9.6344 C   0  0  0  0  0  0  0  0  0  0  0  0
    1.5131   -2.4344  -10.9406 C   0  0  0  0  0  0  0  0  0  0  0  0
    3.2947   -1.4426   -8.0851 S   0  0  0  0  0  0  0  0  0  0  0  0
    4.5358   -0.0814   -5.4068 C   0  0  0  0  0  0  0  0  0  0  0  0
    5.3055    0.7155   -4.5252 C   0  0  0  0  0  0  0  0  0  0  0  0
    4.8632    2.0097   -4.1828 C   0  0  0  0  0  0  0  0  0  0  0  0
    5.6618    2.8726   -3.3396 C   0  0  0  0  0  0  0  0  0  0  0  0
    7.0191    3.0303   -3.3507 C   0  0  0  0  0  0  0  0  0  0  0  0
    7.5008    3.9686   -2.4079 C   0  0  0  0  0  0  0  0  0  0  0  0
    8.9617    4.2619   -2.2460 C   0  0  0  0  0  0  0  0  0  0  0  0
    9.6253    3.2273   -1.3355 C   0  0  0  0  0  0  0  0  0  0  0  0
    6.4969    4.5133   -1.6592 C   0  0  0  0  0  0  0  0  0  0  0  0
    4.9453    3.8972   -2.1302 S   0  0  0  0  0  0  0  0  0  0  0  0
    6.5610    5.5587   -0.5968 C   0  0  0  0  0  0  0  0  0  0  0  0
    6.2402    6.9416   -1.1698 C   0  0  0  0  0  0  0  0  0  0  0  0
    3.6112    2.3795   -4.6627 C   0  0  0  0  0  0  0  0  0  0  0  0
    2.7706    3.8414   -4.2330 S   0  0  0  0  0  0  0  0  0  0  0  0
    6.3913   -0.0099   -3.9714 C   0  0  0  0  0  0  0  0  0  0  0  0
    6.4483   -1.3010   -4.4046 C   0  0  0  0  0  0  0  0  0  0  0  0
    5.2129   -1.6761   -5.5829 S   0  0  0  0  0  0  0  0  0  0  0  0
    7.2394   -2.3947   -3.9395 C   0  0  0  0  0  0  0  0  0  0  0  0
    8.1897   -2.5141   -2.9614 C   0  0  0  0  0  0  0  0  0  0  0  0
    8.4641   -3.9052   -2.8339 C   0  0  0  0  0  0  0  0  0  0  0  0
    9.2457   -4.6587   -1.9432 C   0  0  0  0  0  0  0  0  0  0  0  0
   10.1232   -4.0460   -0.9441 C   0  0  0  0  0  0  0  0  0  0  0  0
   10.9102   -2.9439   -1.2731 C   0  0  0  0  0  0  0  0  0  0  0  0
   11.7271   -2.3566   -0.3275 C   0  0  0  0  0  0  0  0  0  0  0  0
   11.7814   -2.8452    0.9721 C   0  0  0  0  0  0  0  0  0  0  0  0
   12.6241   -2.1637    2.0112 C   0  0  0  0  0  0  0  0  0  0  0  0
   11.8437   -1.0210    2.6645 C   0  0  0  0  0  0  0  0  0  0  0  0
   11.0011   -3.9477    1.2968 C   0  0  0  0  0  0  0  0  0  0  0  0
   10.1896   -4.5473    0.3540 C   0  0  0  0  0  0  0  0  0  0  0  0
    9.0834   -6.0323   -2.0727 C   0  0  0  0  0  0  0  0  0  0  0  0
    8.2385   -6.6612   -3.0277 C   0  0  0  0  0  0  0  0  0  0  0  0
    7.4720   -5.9104   -3.9297 C   0  0  0  0  0  0  0  0  0  0  0  0
    6.5086   -6.4551   -4.8884 C   0  0  0  0  0  0  0  0  0  0  0  0
    6.3745   -5.8748   -6.1492 C   0  0  0  0  0  0  0  0  0  0  0  0
    5.3995   -6.3092   -7.0224 C   0  0  0  0  0  0  0  0  0  0  0  0
    4.5269   -7.3314   -6.6681 C   0  0  0  0  0  0  0  0  0  0  0  0
    3.4116   -7.7276   -7.5922 C   0  0  0  0  0  0  0  0  0  0  0  0
    2.2323   -6.7638   -7.4390 C   0  0  0  0  0  0  0  0  0  0  0  0
    4.6751   -7.9240   -5.4209 C   0  0  0  0  0  0  0  0  0  0  0  0
    5.6518   -7.4968   -4.5413 C   0  0  0  0  0  0  0  0  0  0  0  0
    7.6261   -4.5376   -3.7877 C   0  0  0  0  0  0  0  0  0  0  0  0
    6.9139   -3.6081   -4.4615 O   0  0  0  0  0  0  0  0  0  0  0  0
    8.3919   -8.0550   -2.7990 C   0  0  0  0  0  0  0  0  0  0  0  0
    9.2680   -8.1859   -1.7572 C   0  0  0  0  0  0  0  0  0  0  0  0
    9.7019   -6.9719   -1.3143 O   0  0  0  0  0  0  0  0  0  0  0  0
    9.7284   -9.3541   -1.0763 C   0  0  0  0  0  0  0  0  0  0  0  0
   10.5814   -9.4103   -0.0161 C   0  0  0  0  0  0  0  0  0  0  0  0
   10.8076  -10.7281    0.4580 C   0  0  0  0  0  0  0  0  0  0  0  0
   11.5906  -11.1276    1.5569 C   0  0  0  0  0  0  0  0  0  0  0  0
   12.3790  -10.1673    2.3010 C   0  0  0  0  0  0  0  0  0  0  0  0
   13.1475   -9.1492    1.8143 C   0  0  0  0  0  0  0  0  0  0  0  0
   13.7980   -8.3890    2.8145 C   0  0  0  0  0  0  0  0  0  0  0  0
   14.6646   -7.2106    2.4880 C   0  0  0  0  0  0  0  0  0  0  0  0
   13.8222   -5.9426    2.3408 C   0  0  0  0  0  0  0  0  0  0  0  0
   13.4989   -8.8237    4.0740 C   0  0  0  0  0  0  0  0  0  0  0  0
   13.9965   -8.3260    5.3892 C   0  0  0  0  0  0  0  0  0  0  0  0
   15.1879   -9.1562    5.8732 C   0  0  0  0  0  0  0  0  0  0  0  0
   12.4406  -10.1978    4.0392 S   0  0  0  0  0  0  0  0  0  0  0  0
   11.5639  -12.4817    1.8753 C   0  0  0  0  0  0  0  0  0  0  0  0
   10.8163  -13.4385    1.1508 C   0  0  0  0  0  0  0  0  0  0  0  0
   10.0379  -13.0413    0.0479 C   0  0  0  0  0  0  0  0  0  0  0  0
    9.2107  -13.9622   -0.7055 C   0  0  0  0  0  0  0  0  0  0  0  0
    8.9763  -13.9746   -2.0503 C   0  0  0  0  0  0  0  0  0  0  0  0
    8.0463  -14.9557   -2.4675 C   0  0  0  0  0  0  0  0  0  0  0  0
    7.6881  -15.1568   -3.9086 C   0  0  0  0  0  0  0  0  0  0  0  0
    8.6990  -16.0759   -4.5960 C   0  0  0  0  0  0  0  0  0  0  0  0
    7.5703  -15.6993   -1.4263 C   0  0  0  0  0  0  0  0  0  0  0  0
    8.2578  -15.1886    0.0819 S   0  0  0  0  0  0  0  0  0  0  0  0
    6.5497  -16.7873   -1.4307 C   0  0  0  0  0  0  0  0  0  0  0  0
    5.1508  -16.2297   -1.1555 C   0  0  0  0  0  0  0  0  0  0  0  0
   10.0689  -11.6875   -0.2746 C   0  0  0  0  0  0  0  0  0  0  0  0
    9.1566  -10.9336   -1.5586 S   0  0  0  0  0  0  0  0  0  0  0  0
   11.0175  -14.7540    1.6636 C   0  0  0  0  0  0  0  0  0  0  0  0
   11.8590  -14.7865    2.7161 C   0  0  0  0  0  0  0  0  0  0  0  0
   12.4678  -13.2321    3.1636 S   0  0  0  0  0  0  0  0  0  0  0  0
  -15.1829    4.4884   11.7757 H   0  0  0  0  0  0  0  0  0  0  0  0
  -13.3144    6.3034   11.7263 H   0  0  0  0  0  0  0  0  0  0  0  0
  -13.1691    8.5917   11.0935 H   0  0  0  0  0  0  0  0  0  0  0  0
  -11.0013   10.3690   13.6187 H   0  0  0  0  0  0  0  0  0  0  0  0
  -12.6615    9.9614   13.1777 H   0  0  0  0  0  0  0  0  0  0  0  0
  -12.5821   11.6562   11.3383 H   0  0  0  0  0  0  0  0  0  0  0  0
  -10.9372   12.0828   11.8096 H   0  0  0  0  0  0  0  0  0  0  0  0
  -12.2788   12.3925   12.9158 H   0  0  0  0  0  0  0  0  0  0  0  0
   -7.9383    8.9893   12.2172 H   0  0  0  0  0  0  0  0  0  0  0  0
   -8.9115   10.3134   12.8726 H   0  0  0  0  0  0  0  0  0  0  0  0
   -8.7619   11.4885   10.6613 H   0  0  0  0  0  0  0  0  0  0  0  0
   -7.7888   10.1592   10.0315 H   0  0  0  0  0  0  0  0  0  0  0  0
   -7.1585   11.1740   11.3348 H   0  0  0  0  0  0  0  0  0  0  0  0
  -16.0262    4.0825    6.9899 H   0  0  0  0  0  0  0  0  0  0  0  0
  -17.0412    1.5548    4.3160 H   0  0  0  0  0  0  0  0  0  0  0  0
  -17.6709    2.8315    5.3629 H   0  0  0  0  0  0  0  0  0  0  0  0
  -16.4543    0.1980    6.3306 H   0  0  0  0  0  0  0  0  0  0  0  0
  -18.1766    0.5933    6.3158 H   0  0  0  0  0  0  0  0  0  0  0  0
  -17.0705    1.4779    7.3741 H   0  0  0  0  0  0  0  0  0  0  0  0
  -13.3222    0.8483    3.5912 H   0  0  0  0  0  0  0  0  0  0  0  0
  -15.0171    0.3994    3.8141 H   0  0  0  0  0  0  0  0  0  0  0  0
  -15.7051    2.2384    2.2666 H   0  0  0  0  0  0  0  0  0  0  0  0
  -14.5746    1.1355    1.4743 H   0  0  0  0  0  0  0  0  0  0  0  0
  -14.0185    2.7081    2.0688 H   0  0  0  0  0  0  0  0  0  0  0  0
  -11.9782    5.3855    4.7482 H   0  0  0  0  0  0  0  0  0  0  0  0
   -8.2723    8.4962    5.1447 H   0  0  0  0  0  0  0  0  0  0  0  0
   -4.2925    8.1008    2.3480 H   0  0  0  0  0  0  0  0  0  0  0  0
   -2.7659    9.7513    3.3245 H   0  0  0  0  0  0  0  0  0  0  0  0
   -2.4618   12.0306    4.1851 H   0  0  0  0  0  0  0  0  0  0  0  0
   -3.8442   12.9552    4.7903 H   0  0  0  0  0  0  0  0  0  0  0  0
   -2.3731   12.2372    6.6616 H   0  0  0  0  0  0  0  0  0  0  0  0
   -3.9587   11.4674    6.7910 H   0  0  0  0  0  0  0  0  0  0  0  0
   -2.5810   10.5472    6.1881 H   0  0  0  0  0  0  0  0  0  0  0  0
   -6.0972   11.9869    4.7700 H   0  0  0  0  0  0  0  0  0  0  0  0
   -7.6293   10.3542    3.7705 H   0  0  0  0  0  0  0  0  0  0  0  0
   -9.7161    6.1844   -1.3669 H   0  0  0  0  0  0  0  0  0  0  0  0
  -11.2704    4.5948   -2.4035 H   0  0  0  0  0  0  0  0  0  0  0  0
  -13.0067    2.9267   -2.1187 H   0  0  0  0  0  0  0  0  0  0  0  0
  -13.2834    2.1662   -0.5459 H   0  0  0  0  0  0  0  0  0  0  0  0
  -10.9635    1.5258   -2.4318 H   0  0  0  0  0  0  0  0  0  0  0  0
  -11.2425    0.7662   -0.8659 H   0  0  0  0  0  0  0  0  0  0  0  0
  -12.3943    0.5185   -2.1836 H   0  0  0  0  0  0  0  0  0  0  0  0
  -11.6948    2.5740    1.3280 H   0  0  0  0  0  0  0  0  0  0  0  0
  -10.1397    4.1544    2.3670 H   0  0  0  0  0  0  0  0  0  0  0  0
   -7.3813    5.5324   -1.3833 H   0  0  0  0  0  0  0  0  0  0  0  0
   -3.0660    7.7999   -0.6654 H   0  0  0  0  0  0  0  0  0  0  0  0
   -1.4337    8.9874   -1.9977 H   0  0  0  0  0  0  0  0  0  0  0  0
    0.2759   10.3062   -0.8370 H   0  0  0  0  0  0  0  0  0  0  0  0
    2.6222   10.5516   -0.2215 H   0  0  0  0  0  0  0  0  0  0  0  0
    3.7142    9.1596   -0.2599 H   0  0  0  0  0  0  0  0  0  0  0  0
    1.5747    9.6677    1.8641 H   0  0  0  0  0  0  0  0  0  0  0  0
    3.3126    9.9045    2.0786 H   0  0  0  0  0  0  0  0  0  0  0  0
    2.6622    8.2805    1.8254 H   0  0  0  0  0  0  0  0  0  0  0  0
    2.8297    6.8913   -0.7154 H   0  0  0  0  0  0  0  0  0  0  0  0
    1.1235    5.5653   -1.8485 H   0  0  0  0  0  0  0  0  0  0  0  0
   -3.2653    2.1406   -4.6913 H   0  0  0  0  0  0  0  0  0  0  0  0
   -4.9922    0.8310   -5.8396 H   0  0  0  0  0  0  0  0  0  0  0  0
   -8.3472    2.1186   -6.6687 H   0  0  0  0  0  0  0  0  0  0  0  0
   -7.3624    0.6604   -6.4823 H   0  0  0  0  0  0  0  0  0  0  0  0
   -7.0722    2.7114   -8.7314 H   0  0  0  0  0  0  0  0  0  0  0  0
   -6.0935    1.2567   -8.5467 H   0  0  0  0  0  0  0  0  0  0  0  0
   -7.8228    1.1187   -8.8834 H   0  0  0  0  0  0  0  0  0  0  0  0
   -7.4072    4.3259   -6.2037 H   0  0  0  0  0  0  0  0  0  0  0  0
   -5.6703    5.6456   -5.0796 H   0  0  0  0  0  0  0  0  0  0  0  0
   -1.5035    3.0671   -5.8980 H   0  0  0  0  0  0  0  0  0  0  0  0
    0.8269    1.7028   -6.4350 H   0  0  0  0  0  0  0  0  0  0  0  0
    0.5735   -0.5391   -5.9103 H   0  0  0  0  0  0  0  0  0  0  0  0
   -0.8642   -2.7089   -8.6875 H   0  0  0  0  0  0  0  0  0  0  0  0
   -1.2910   -1.6391   -7.3488 H   0  0  0  0  0  0  0  0  0  0  0  0
   -1.7390   -4.0125   -6.7567 H   0  0  0  0  0  0  0  0  0  0  0  0
   -0.4741   -3.3434   -5.7200 H   0  0  0  0  0  0  0  0  0  0  0  0
   -0.0431   -4.4162   -7.0494 H   0  0  0  0  0  0  0  0  0  0  0  0
    0.9899   -3.9339   -9.4786 H   0  0  0  0  0  0  0  0  0  0  0  0
    2.7288   -3.7115   -9.7087 H   0  0  0  0  0  0  0  0  0  0  0  0
    2.3010   -1.7051  -11.1143 H   0  0  0  0  0  0  0  0  0  0  0  0
    1.4871   -3.1260  -11.7791 H   0  0  0  0  0  0  0  0  0  0  0  0
    0.5626   -1.9078  -10.8930 H   0  0  0  0  0  0  0  0  0  0  0  0
    7.6601    2.5234   -4.0506 H   0  0  0  0  0  0  0  0  0  0  0  0
    9.1021    5.2598   -1.8286 H   0  0  0  0  0  0  0  0  0  0  0  0
    9.4395    4.2368   -3.2278 H   0  0  0  0  0  0  0  0  0  0  0  0
   10.6859    3.4420   -1.2250 H   0  0  0  0  0  0  0  0  0  0  0  0
    9.5159    2.2289   -1.7530 H   0  0  0  0  0  0  0  0  0  0  0  0
    9.1638    3.2371   -0.3503 H   0  0  0  0  0  0  0  0  0  0  0  0
    7.5554    5.5673   -0.1470 H   0  0  0  0  0  0  0  0  0  0  0  0
    5.8375    5.3198    0.1860 H   0  0  0  0  0  0  0  0  0  0  0  0
    6.9663    7.2145   -1.9324 H   0  0  0  0  0  0  0  0  0  0  0  0
    6.2630    7.6919   -0.3826 H   0  0  0  0  0  0  0  0  0  0  0  0
    5.2523    6.9393   -1.6254 H   0  0  0  0  0  0  0  0  0  0  0  0
    7.0540    0.3881   -3.2259 H   0  0  0  0  0  0  0  0  0  0  0  0
    8.6055   -1.7180   -2.3798 H   0  0  0  0  0  0  0  0  0  0  0  0
   10.8965   -2.5646   -2.2842 H   0  0  0  0  0  0  0  0  0  0  0  0
   12.3362   -1.5063   -0.6017 H   0  0  0  0  0  0  0  0  0  0  0  0
   12.9196   -2.8820    2.7782 H   0  0  0  0  0  0  0  0  0  0  0  0
   13.5294   -1.7626    1.5501 H   0  0  0  0  0  0  0  0  0  0  0  0
   11.5493   -0.2876    1.9171 H   0  0  0  0  0  0  0  0  0  0  0  0
   12.4516   -0.5251    3.4179 H   0  0  0  0  0  0  0  0  0  0  0  0
   10.9433   -1.4033    3.1403 H   0  0  0  0  0  0  0  0  0  0  0  0
   11.0291   -4.3405    2.3033 H   0  0  0  0  0  0  0  0  0  0  0  0
    9.5870   -5.4002    0.6265 H   0  0  0  0  0  0  0  0  0  0  0  0
    7.0402   -5.0785   -6.4440 H   0  0  0  0  0  0  0  0  0  0  0  0
    5.3066   -5.8419   -7.9926 H   0  0  0  0  0  0  0  0  0  0  0  0
    3.7617   -7.7033   -8.6267 H   0  0  0  0  0  0  0  0  0  0  0  0
    3.0806   -8.7434   -7.3671 H   0  0  0  0  0  0  0  0  0  0  0  0
    2.5475   -5.7441   -7.6503 H   0  0  0  0  0  0  0  0  0  0  0  0
    1.4293   -7.0316   -8.1227 H   0  0  0  0  0  0  0  0  0  0  0  0
    1.8488   -6.7965   -6.4213 H   0  0  0  0  0  0  0  0  0  0  0  0
    4.0075   -8.7225   -5.1279 H   0  0  0  0  0  0  0  0  0  0  0  0
    5.7257   -7.9450   -3.5618 H   0  0  0  0  0  0  0  0  0  0  0  0
    7.9288   -8.8592   -3.3329 H   0  0  0  0  0  0  0  0  0  0  0  0
   11.0064   -8.5292    0.4275 H   0  0  0  0  0  0  0  0  0  0  0  0
   13.2861   -8.9707    0.7623 H   0  0  0  0  0  0  0  0  0  0  0  0
   15.1891   -7.4049    1.5502 H   0  0  0  0  0  0  0  0  0  0  0  0
   15.4126   -7.0649    3.2688 H   0  0  0  0  0  0  0  0  0  0  0  0
   14.4535   -5.0909    2.0976 H   0  0  0  0  0  0  0  0  0  0  0  0
   13.0869   -6.0607    1.5480 H   0  0  0  0  0  0  0  0  0  0  0  0
   13.2940   -5.7322    3.2686 H   0  0  0  0  0  0  0  0  0  0  0  0
   13.1936   -8.3906    6.1269 H   0  0  0  0  0  0  0  0  0  0  0  0
   14.2901   -7.2787    5.2978 H   0  0  0  0  0  0  0  0  0  0  0  0
   16.0053   -9.1000    5.1576 H   0  0  0  0  0  0  0  0  0  0  0  0
   14.8976  -10.1987    5.9816 H   0  0  0  0  0  0  0  0  0  0  0  0
   15.5394   -8.7899    6.8347 H   0  0  0  0  0  0  0  0  0  0  0  0
    9.4754  -13.3169   -2.7394 H   0  0  0  0  0  0  0  0  0  0  0  0
    7.6837  -14.1864   -4.4090 H   0  0  0  0  0  0  0  0  0  0  0  0
    6.6883  -15.5850   -3.9925 H   0  0  0  0  0  0  0  0  0  0  0  0
    9.6988  -15.6525   -4.5325 H   0  0  0  0  0  0  0  0  0  0  0  0
    8.4431  -16.2061   -5.6450 H   0  0  0  0  0  0  0  0  0  0  0  0
    8.7116  -17.0529   -4.1174 H   0  0  0  0  0  0  0  0  0  0  0  0
    6.7996  -17.5209   -0.6612 H   0  0  0  0  0  0  0  0  0  0  0  0
    6.5596  -17.2936   -2.3979 H   0  0  0  0  0  0  0  0  0  0  0  0
    4.4156  -17.0306   -1.1643 H   0  0  0  0  0  0  0  0  0  0  0  0
    5.1255  -15.7442   -0.1826 H   0  0  0  0  0  0  0  0  0  0  0  0
    4.8787  -15.4968   -1.9118 H   0  0  0  0  0  0  0  0  0  0  0  0
   10.5581  -15.6318    1.2488 H   0  0  0  0  0  0  0  0  0  0  0  0
   12.1763  -15.6423    3.2792 H   0  0  0  0  0  0  0  0  0  0  0  0
  1  2  2  0  0  0  0
  2  3  1  0  0  0  0
  3  4  2  0  0  0  0
  4  5  1  0  0  0  0
  5  6  2  0  0  0  0
  6  7  1  0  0  0  0
  7  8  1  0  0  0  0
  8  9  1  0  0  0  0
  7 10  2  0  0  0  0
 10 11  1  0  0  0  0
 11 12  1  0  0  0  0
 10 13  1  0  0  0  0
  4 14  1  0  0  0  0
 14 15  2  0  0  0  0
 15 16  1  0  0  0  0
 16 17  1  0  0  0  0
 17 18  2  0  0  0  0
 18 19  1  0  0  0  0
 19 20  1  0  0  0  0
 20 21  1  0  0  0  0
 19 22  2  0  0  0  0
 22 23  1  0  0  0  0
 22 24  1  0  0  0  0
 24 25  1  0  0  0  0
 16 26  2  0  0  0  0
 26 27  1  0  0  0  0
 15 28  1  0  0  0  0
 28 29  2  0  0  0  0
 29 30  1  0  0  0  0
 29 31  1  0  0  0  0
 31 32  2  0  0  0  0
 32 33  1  0  0  0  0
 33 34  2  0  0  0  0
 34 35  1  0  0  0  0
 35 36  2  0  0  0  0
 36 37  1  0  0  0  0
 37 38  2  0  0  0  0
 38 39  1  0  0  0  0
 39 40  1  0  0  0  0
 38 41  1  0  0  0  0
 41 42  2  0  0  0  0
 34 43  1  0  0  0  0
 43 44  2  0  0  0  0
 44 45  1  0  0  0  0
 45 46  1  0  0  0  0
 46 47  2  0  0  0  0
 47 48  1  0  0  0  0
 48 49  2  0  0  0  0
 49 50  1  0  0  0  0
 50 51  1  0  0  0  0
 49 52  1  0  0  0  0
 52 53  2  0  0  0  0
 45 54  2  0  0  0  0
 54 55  1  0  0  0  0
 44 56  1  0  0  0  0
 56 57  2  0  0  0  0
 57 58  1  0  0  0  0
 57 59  1  0  0  0  0
 59 60  2  0  0  0  0
 60 61  1  0  0  0  0
 61 62  2  0  0  0  0
 62 63  1  0  0  0  0
 63 64  2  0  0  0  0
 64 65  1  0  0  0  0
 65 66  2  0  0  0  0
 66 67  1  0  0  0  0
 67 68  1  0  0  0  0
 66 69  1  0  0  0  0
 69 70  2  0  0  0  0
 62 71  1  0  0  0  0
 71 72  2  0  0  0  0
 72 73  1  0  0  0  0
 73 74  1  0  0  0  0
 74 75  2  0  0  0  0
 75 76  1  0  0  0  0
 76 77  2  0  0  0  0
 77 78  1  0  0  0  0
 78 79  1  0  0  0  0
 77 80  1  0  0  0  0
 80 81  2  0  0  0  0
 73 82  2  0  0  0  0
 82 83  1  0  0  0  0
 72 84  1  0  0  0  0
 84 85  2  0  0  0  0
 85 86  1  0  0  0  0
 85 87  1  0  0  0  0
 87 88  2  0  0  0  0
 88 89  1  0  0  0  0
 89 90  2  0  0  0  0
 90 91  1  0  0  0  0
 91 92  2  0  0  0  0
 92 93  1  0  0  0  0
 93 94  1  0  0  0  0
 94 95  1  0  0  0  0
 93 96  2  0  0  0  0
 96 97  1  0  0  0  0
 97 98  1  0  0  0  0
 96 99  1  0  0  0  0
 90100  1  0  0  0  0
100101  2  0  0  0  0
101102  1  0  0  0  0
102103  1  0  0  0  0
103104  2  0  0  0  0
104105  1  0  0  0  0
105106  1  0  0  0  0
106107  1  0  0  0  0
105108  2  0  0  0  0
108109  1  0  0  0  0
108110  1  0  0  0  0
110111  1  0  0  0  0
102112  2  0  0  0  0
112113  1  0  0  0  0
101114  1  0  0  0  0
114115  2  0  0  0  0
115116  1  0  0  0  0
115117  1  0  0  0  0
117118  2  0  0  0  0
118119  1  0  0  0  0
119120  2  0  0  0  0
120121  1  0  0  0  0
121122  2  0  0  0  0
122123  1  0  0  0  0
123124  2  0  0  0  0
124125  1  0  0  0  0
125126  1  0  0  0  0
124127  1  0  0  0  0
127128  2  0  0  0  0
120129  1  0  0  0  0
129130  2  0  0  0  0
130131  1  0  0  0  0
131132  1  0  0  0  0
132133  2  0  0  0  0
133134  1  0  0  0  0
134135  2  0  0  0  0
135136  1  0  0  0  0
136137  1  0  0  0  0
135138  1  0  0  0  0
138139  2  0  0  0  0
131140  2  0  0  0  0
140141  1  0  0  0  0
130142  1  0  0  0  0
142143  2  0  0  0  0
143144  1  0  0  0  0
143145  1  0  0  0  0
145146  2  0  0  0  0
146147  1  0  0  0  0
147148  2  0  0  0  0
148149  1  0  0  0  0
149150  2  0  0  0  0
150151  1  0  0  0  0
151152  1  0  0  0  0
152153  1  0  0  0  0
151154  2  0  0  0  0
154155  1  0  0  0  0
155156  1  0  0  0  0
154157  1  0  0  0  0
148158  1  0  0  0  0
158159  2  0  0  0  0
159160  1  0  0  0  0
160161  1  0  0  0  0
161162  2  0  0  0  0
162163  1  0  0  0  0
163164  1  0  0  0  0
164165  1  0  0  0  0
163166  2  0  0  0  0
166167  1  0  0  0  0
166168  1  0  0  0  0
168169  1  0  0  0  0
160170  2  0  0  0  0
170171  1  0  0  0  0
159172  1  0  0  0  0
172173  2  0  0  0  0
173174  1  0  0  0  0
 27  1  1  0  0  0  0
 55 31  1  0  0  0  0
 83 59  1  0  0  0  0
113 87  1  0  0  0  0
141117  1  0  0  0  0
171145  1  0  0  0  0
 26  3  1  0  0  0  0
 54 33  1  0  0  0  0
 82 61  1  0  0  0  0
112 89  1  0  0  0  0
140119  1  0  0  0  0
170147  1  0  0  0  0
 13  5  1  0  0  0  0
 30 14  1  0  0  0  0
 42 35  1  0  0  0  0
 58 43  1  0  0  0  0
 70 63  1  0  0  0  0
 86 71  1  0  0  0  0
 99 91  1  0  0  0  0
116100  1  0  0  0  0
128121  1  0  0  0  0
144129  1  0  0  0  0
157149  1  0  0  0  0
174158  1  0  0  0  0
 23 17  1  0  0  0  0
 53 46  1  0  0  0  0
 81 74  1  0  0  0  0
109103  1  0  0  0  0
139132  1  0  0  0  0
167161  1  0  0  0  0
  1175  1  0  0  0  0
  2176  1  0  0  0  0
  6177  1  0  0  0  0
  8178  1  0  0  0  0
  8179  1  0  0  0  0
  9180  1  0  0  0  0
  9181  1  0  0  0  0
  9182  1  0  0  0  0
 11183  1  0  0  0  0
 11184  1  0  0  0  0
 12185  1  0  0  0  0
 12186  1  0  0  0  0
 12187  1  0  0  0  0
 18188  1  0  0  0  0
 20189  1  0  0  0  0
 20190  1  0  0  0  0
 21191  1  0  0  0  0
 21192  1  0  0  0  0
 21193  1  0  0  0  0
 24194  1  0  0  0  0
 24195  1  0  0  0  0
 25196  1  0  0  0  0
 25197  1  0  0  0  0
 25198  1  0  0  0  0
 28199  1  0  0  0  0
 32200  1  0  0  0  0
 36201  1  0  0  0  0
 37202  1  0  0  0  0
 39203  1  0  0  0  0
 39204  1  0  0  0  0
 40205  1  0  0  0  0
 40206  1  0  0  0  0
 40207  1  0  0  0  0
 41208  1  0  0  0  0
 42209  1  0  0  0  0
 47210  1  0  0  0  0
 48211  1  0  0  0  0
 50212  1  0  0  0  0
 50213  1  0  0  0  0
 51214  1  0  0  0  0
 51215  1  0  0  0  0
 51216  1  0  0  0  0
 52217  1  0  0  0  0
 53218  1  0  0  0  0
 56219  1  0  0  0  0
 60220  1  0  0  0  0
 64221  1  0  0  0  0
 65222  1  0  0  0  0
 67223  1  0  0  0  0
 67224  1  0  0  0  0
 68225  1  0  0  0  0
 68226  1  0  0  0  0
 68227  1  0  0  0  0
 69228  1  0  0  0  0
 70229  1  0  0  0  0
 75230  1  0  0  0  0
 76231  1  0  0  0  0
 78232  1  0  0  0  0
 78233  1  0  0  0  0
 79234  1  0  0  0  0
 79235  1  0  0  0  0
 79236  1  0  0  0  0
 80237  1  0  0  0  0
 81238  1  0  0  0  0
 84239  1  0  0  0  0
 88240  1  0  0  0  0
 92241  1  0  0  0  0
 94242  1  0  0  0  0
 94243  1  0  0  0  0
 95244  1  0  0  0  0
 95245  1  0  0  0  0
 95246  1  0  0  0  0
 97247  1  0  0  0  0
 97248  1  0  0  0  0
 98249  1  0  0  0  0
 98250  1  0  0  0  0
 98251  1  0  0  0  0
104252  1  0  0  0  0
106253  1  0  0  0  0
106254  1  0  0  0  0
107255  1  0  0  0  0
107256  1  0  0  0  0
107257  1  0  0  0  0
110258  1  0  0  0  0
110259  1  0  0  0  0
111260  1  0  0  0  0
111261  1  0  0  0  0
111262  1  0  0  0  0
114263  1  0  0  0  0
118264  1  0  0  0  0
122265  1  0  0  0  0
123266  1  0  0  0  0
125267  1  0  0  0  0
125268  1  0  0  0  0
126269  1  0  0  0  0
126270  1  0  0  0  0
126271  1  0  0  0  0
127272  1  0  0  0  0
128273  1  0  0  0  0
133274  1  0  0  0  0
134275  1  0  0  0  0
136276  1  0  0  0  0
136277  1  0  0  0  0
137278  1  0  0  0  0
137279  1  0  0  0  0
137280  1  0  0  0  0
138281  1  0  0  0  0
139282  1  0  0  0  0
142283  1  0  0  0  0
146284  1  0  0  0  0
150285  1  0  0  0  0
152286  1  0  0  0  0
152287  1  0  0  0  0
153288  1  0  0  0  0
153289  1  0  0  0  0
153290  1  0  0  0  0
155291  1  0  0  0  0
155292  1  0  0  0  0
156293  1  0  0  0  0
156294  1  0  0  0  0
156295  1  0  0  0  0
162296  1  0  0  0  0
164297  1  0  0  0  0
164298  1  0  0  0  0
165299  1  0  0  0  0
165300  1  0  0  0  0
165301  1  0  0  0  0
168302  1  0  0  0  0
168303  1  0  0  0  0
169304  1  0  0  0  0
169305  1  0  0  0  0
169306  1  0  0  0  0
172307  1  0  0  0  0
173308  1  0  0  0  0
M  END
