266

C         -9.45880       -3.13110       13.01950
C         -8.68130       -2.02970       13.05210
C         -8.74720       -1.27090       11.84730
C         -8.04760       -0.09960       11.51870
C         -7.09030        0.50490       12.43250
S         -5.75600       -0.40750       13.07440
C         -5.12920        0.95950       13.93080
C         -3.86180        0.87020       14.70670
C         -2.64950        1.09000       13.79840
C         -5.91650        2.05120       13.71830
Cl        -5.61710        3.59430       14.40590
C         -7.02930        1.79780       12.87140
Cl        -8.20670        2.99130       12.51740
C         -8.27070        0.43600       10.25640
C         -9.16190       -0.14580        9.32160
C         -9.87250       -1.31100        9.65410
C        -10.76440       -1.94530        8.69710
S        -10.21390       -2.35710        7.09780
C        -11.74510       -3.03200        6.65600
C        -11.95680       -3.63900        5.31310
C        -11.29750       -5.01660        5.21990
C        -12.61730       -2.94420        7.69900
C        -12.06750       -2.32670        8.85560
Cl       -12.99930       -2.02200       10.26070
Cl       -14.23770       -3.50590        7.64380
C         -9.64410       -1.84820       10.91610
S        -10.33340       -3.31890       11.54080
C         -9.17960        0.56760        8.09860
C         -8.31650        1.62200        8.07010
S         -7.45620        1.81860        9.58140
C         -8.01890        2.45080        6.94940
C         -7.10860        3.46090        6.86380
C         -6.94110        3.95860        5.54740
C         -6.03760        4.93420        5.09300
C         -5.09530        5.57900        5.99330
S         -4.96960        7.31020        6.07540
C         -3.70370        7.24050        7.25220
C         -3.12500        8.48050        7.83880
C         -3.95910        8.96570        9.02690
C         -3.41060        5.94460        7.55680
Cl        -2.20560        5.47580        8.68460
C         -4.19240        4.99920        6.84080
Cl        -3.94500        3.30550        6.97930
C         -6.03180        5.20620        3.73170
C         -6.89130        4.55980        2.80860
C         -7.82720        3.61530        3.26920
C         -8.74840        2.95390        2.36300
S         -8.94410        1.22640        2.37620
C        -10.14870        1.27270        1.13290
C        -10.79610        0.02150        0.64890
C        -11.37960       -0.79160        1.80370
C        -10.37140        2.55840        0.73960
C         -9.57810        3.51380        1.43110
Cl        -9.73110        5.20260        1.16640
Cl       -11.50110        3.01300       -0.47050
C         -7.80190        3.31490        4.62490
S         -8.78420        2.11180        5.40890
C         -6.56240        4.88050        1.46910
C         -5.49650        5.72660        1.36630
S         -4.87840        6.22860        2.92250
C         -4.74390        6.05880        0.19920
C         -4.90430        5.68360       -1.10830
C         -3.69940        6.02990       -1.77770
C         -3.20200        5.72370       -3.05570
C         -4.03140        5.13490       -4.10790
C         -5.33840        5.58080       -4.29990
C         -6.12680        5.03980       -5.29580
C         -5.64070        4.03760       -6.12640
C         -6.48590        3.48370       -7.23680
C         -6.28700        4.29870       -8.51660
C         -4.33620        3.59780       -5.93730
C         -3.53990        4.13620       -4.94630
C         -1.84280        5.97070       -3.19800
C         -1.02440        6.58010       -2.20680
C         -1.54300        6.96080       -0.95990
C         -0.75620        7.56310        0.11880
C         -1.30440        8.58810        0.88780
C         -0.58010        9.16170        1.91310
C          0.70650        8.72780        2.20860
C          1.50970        9.38930        3.29110
C          2.28760       10.57950        2.72550
C          1.24590        7.69580        1.45130
C          0.52770        7.11670        0.42340
C         -2.88120        6.62970       -0.78560
O         -3.54630        6.67670        0.39330
C          0.29280        6.54560       -2.74090
C          0.20690        5.89950       -3.94370
O         -1.08380        5.59510       -4.25730
C          1.23210        5.23400       -4.69020
C          1.09690        4.31470       -5.69470
C          2.32890        3.60990       -5.76270
C          2.73800        2.45700       -6.44650
C          1.93200        1.71750       -7.42170
C          0.57840        1.46760       -7.21290
C         -0.14200        0.71130       -8.11770
C          0.46190        0.18680       -9.25310
C         -0.29900       -0.69510      -10.20040
C         -0.06210       -2.16750       -9.85610
C          1.81150        0.44380       -9.46320
C          2.53840        1.19440       -8.56260
C          3.97430        1.97370       -6.03920
C          4.80770        2.57870       -5.06130
C          4.42210        3.76730       -4.42010
C          5.20730        4.43710       -3.38010
C          5.30920        5.82690       -3.37260
C          6.03900        6.47250       -2.39480
C          6.68090        5.75600       -1.39190
C          7.51300        6.45960       -0.35900
C          8.95100        6.62550       -0.85550
C          6.56730        4.37150       -1.39310
C          5.84040        3.71810       -2.36920
C          3.16440        4.22580       -4.79110
O          2.49110        5.22780       -4.16970
C          5.88280        1.66540       -4.87480
C          5.61800        0.58550       -5.67490
O          4.49100        0.78140       -6.41210
C          6.15230       -0.73820       -5.70660
C          7.11750       -1.30670       -4.92810
C          7.16970       -2.71720       -5.05300
C          7.92650       -3.62380       -4.28790
C          8.97260       -3.16760       -3.39210
S          9.08780       -3.73890       -1.75370
C         10.51370       -2.80720       -1.44380
C         11.20650       -2.89070       -0.12880
C         11.87300       -4.25590        0.05350
C         10.86870       -2.10250       -2.55500
Cl        12.23630       -1.06850       -2.64180
C          9.99580       -2.29870       -3.65910
Cl        10.27380       -1.57600       -5.19090
C          7.59920       -4.96880       -4.40650
C          6.62510       -5.45570       -5.31270
C          5.93680       -4.55730       -6.14800
C          4.92040       -4.99740       -7.08760
S          3.63150       -6.06160       -6.60060
C          2.88240       -6.00450       -8.15830
C          1.60880       -6.72460       -8.43410
C          0.40020       -5.83400       -8.13630
C          3.59500       -5.19780       -8.99400
C          4.75110       -4.62990       -8.39530
Cl         5.85390       -3.66370       -9.28080
Cl         3.15520       -4.88870      -10.62270
C          6.20770       -3.20430       -5.97380
S          5.30460       -1.90470       -6.69320
C          6.46560       -6.85980       -5.21050
C          7.24870       -7.42680       -4.25000
S          8.28880       -6.25800       -3.46280
C          7.25420       -8.78080       -3.80530
C          7.91820       -9.28510       -2.72800
C          7.68000      -10.66440       -2.50980
C          8.16960      -11.47450       -1.47160
C          9.09120      -10.94100       -0.48310
S          8.76360      -11.07150        1.21940
C         10.20220      -10.20880        1.64170
C         10.52620       -9.89280        3.06010
C          9.85920       -8.58530        3.49470
C         10.88500       -9.84660        0.51880
Cl        12.36000       -8.96920        0.53740
C         10.26240      -10.26450       -0.68740
Cl        10.97230      -10.00480       -2.22910
C          7.72060      -12.78880       -1.43410
C          6.82220      -13.32430       -2.38710
C          6.31770      -12.50830       -3.41230
C          5.32450      -12.99530       -4.35540
S          5.53370      -12.82100       -6.07150
C          4.00130      -13.54990       -6.41050
C          3.49570      -13.66260       -7.80610
C          2.85550      -12.34700       -8.25640
C          3.37280      -13.89440       -5.25120
C          4.12160      -13.58640       -4.08380
Cl         3.51600      -13.85770       -2.50060
Cl         1.82420      -14.63130       -5.18290
C          6.77860      -11.19920       -3.46150
S          6.27820       -9.99120       -4.61260
C          6.57990      -14.71040       -2.15810
C          7.24090      -15.18620       -1.08360
S          8.20700      -13.99760       -0.27940
H         -9.58930       -3.86770       13.78790
H         -8.07570       -1.75220       13.89490
H         -3.87560        1.63160       15.48870
H         -3.79100       -0.11310       15.17510
H         -1.73250        1.02770       14.37810
H         -2.62140        0.33440       13.01690
H         -2.70140        2.07030       13.33170
H        -13.03020       -3.73120        5.13950
H        -11.53430       -2.98350        4.54870
H        -10.22650       -4.93350        5.38830
H        -11.46460       -5.44480        4.23520
H        -11.71600       -5.68650        5.96670
H         -9.79520        0.30650        7.25730
H         -6.56420        3.82230        7.71690
H         -2.10630        8.26910        8.16930
H         -3.09200        9.25930        7.07520
H         -3.99010        8.20380        9.80150
H         -3.52410        9.86970        9.44430
H         -4.97660        9.18110        8.70980
H        -10.05740       -0.58700        0.11950
H        -11.58250        0.29200       -0.05750
H        -11.84880       -1.69570        1.42480
H        -12.12580       -0.20910        2.33830
H        -10.59230       -1.06910        2.50110
H         -7.05210        4.45000        0.61610
H         -5.74790        5.17270       -1.52360
H         -5.72540        6.37500       -3.67880
H         -7.13640        5.40130       -5.43330
H         -6.21320        2.44350       -7.42710
H         -7.53950        3.51420       -6.95130
H         -6.89870        3.89900       -9.32210
H         -5.24410        4.27060       -8.82440
H         -6.56580        5.33690       -8.35060
H         -3.94080        2.81970       -6.57520
H         -2.53380        3.77260       -4.80750
H         -2.30070        8.94180        0.66980
H         -1.02030        9.95800        2.49670
H          0.84560        9.73800        4.08470
H          2.21190        8.67300        3.72260
H          1.60330       11.31110        2.30140
H          2.96390       10.24960        1.94000
H          2.87080       11.06090        3.50720
H          2.23980        7.33390        1.67510
H          0.95180        6.28980       -0.12550
H          1.19410        6.90950       -2.29450
H          0.21400        4.15120       -6.27630
H          0.09880        1.83450       -6.31800
H         -1.18960        0.51620       -7.93420
H          0.02980       -0.50930      -11.22510
H         -1.36710       -0.47680      -10.13900
H         -0.60760       -2.81210      -10.54220
H          0.99750       -2.40470       -9.92280
H         -0.39600       -2.37450       -8.84120
H          2.29800        0.04560      -10.34230
H          3.58530        1.38520       -8.74350
H          4.82070        6.39900       -4.14680
H          6.11100        7.55110       -2.40680
H          7.08970        7.44430       -0.15000
H          7.51720        5.88460        0.56930
H          9.55590        7.13490       -0.10890
H          8.96900        7.20780       -1.77410
H          9.39520        5.65360       -1.05880
H          7.04830        3.79780       -0.61300
H          5.73300        2.64450       -2.32990
H          6.72580        1.77770       -4.22580
H          7.72380       -0.74610       -4.24180
H         11.95750       -2.10070       -0.08010
H         10.48290       -2.73370        0.67430
H         11.12920       -5.04770        0.00440
H         12.60950       -4.42450       -0.72810
H         12.37200       -4.30290        1.01760
H          1.56180       -7.62340       -7.81720
H          1.59240       -7.01890       -9.48540
H         -0.52010       -6.37400       -8.34210
H          0.42850       -4.94230       -8.75670
H          0.40220       -5.53170       -7.09180
H          5.77800       -7.43350       -5.80460
H          8.53690       -8.67450       -2.09630
H         11.60920       -9.80070        3.16070
H         10.18190      -10.70690        3.69970
H         10.10590       -8.36690        4.53010
H         10.20290       -7.76250        2.87290
H          8.77880       -8.66400        3.40160
H          4.32250      -13.91070       -8.47360
H          2.75670      -14.46450       -7.84890
H          2.01960      -12.09450       -7.60900
H          2.49190      -12.43860       -9.27630
H          3.58380      -11.54060       -8.21450
H          5.95020      -15.31320       -2.78570
H          7.23230      -16.18580       -0.69510
