308

C        -14.62540        4.81780       10.92080
C        -13.66530        5.76150       10.86760
C        -13.13060        5.94020        9.55680
C        -12.08480        6.79290        9.16020
C        -11.47800        7.72220       10.09280
C        -12.09870        8.53290       10.99780
C        -11.21350        9.32960       11.76310
C        -11.70410       10.31030       12.78510
C        -11.88730       11.69990       12.17400
C         -9.90590        9.11440       11.43300
C         -8.67080        9.76000       11.96330
C         -8.05460       10.70780       10.93220
S         -9.75370        7.92990       10.17280
C        -11.67180        6.68990        7.83740
C        -12.27140        5.81480        6.89850
C        -13.33240        4.97450        7.28910
C        -13.95950        4.02710        6.39220
C        -15.26880        3.63590        6.37100
C        -15.55960        2.62790        5.42360
C        -16.92830        2.03400        5.28910
C        -17.17530        1.01000        6.39800
C        -14.45390        2.23370        4.72630
S        -13.04910        3.12430        5.21280
C        -14.34240        1.23660        3.62200
C        -14.68200        1.86970        2.26990
C        -13.73190        5.06820        8.62190
S        -14.95560        4.08700        9.38830
C        -11.67590        5.93750        5.61810
C        -10.65430        6.83820        5.57690
S        -10.38500        7.61990        7.11350
C         -9.79800        7.10380        4.46520
C         -8.67990        7.88500        4.36590
C         -8.15130        7.67340        3.06300
C         -6.99000        8.12240        2.41410
C         -6.07160        9.09820        3.00380
C         -4.69160        8.95340        2.87520
C         -3.83400        9.88180        3.43070
C         -4.32200       10.98340        4.12280
C         -3.38460       11.96480        4.76520
C         -3.05180       11.52780        6.19340
C         -5.69810       11.13100        4.24340
C         -6.56260       10.20600        3.69250
C         -6.77740        7.53510        1.17310
C         -7.67640        6.62860        0.55080
C         -8.85860        6.21220        1.18170
C         -9.80110        5.27340        0.57010
C        -10.13450        5.38150       -0.77850
C        -11.01840        4.49220       -1.35710
C        -11.59350        3.47010       -0.61270
C        -12.51350        2.47300       -1.25660
C        -11.73010        1.24100       -1.71440
C        -11.26240        3.36600        0.73300
C        -10.38640        4.25600        1.32140
C         -9.02980        6.73730        2.45560
O        -10.03380        6.42230        3.30920
C         -7.03750        6.24030       -0.65810
C         -5.84030        6.90020       -0.69190
O         -5.68060        7.70790        0.39230
C         -4.72440        6.72330       -1.56910
C         -3.43140        7.14650       -1.43000
C         -2.68150        6.48810       -2.44210
C         -1.30590        6.39360       -2.70290
C         -0.28840        7.17610       -1.99850
C         -0.50810        8.51910       -1.69760
C          0.46150        9.26340       -1.05450
C          1.67700        8.69520       -0.69420
C          2.71770        9.49460        0.03580
C          2.55830        9.32720        1.54830
C          1.89260        7.35490       -0.99020
C          0.93020        6.60440       -1.63440
C         -0.98500        5.44130       -3.66140
C         -1.92810        4.66360       -4.38540
C         -3.30640        4.79090       -4.15160
C         -4.33110        3.99380       -4.82980
C         -4.15900        2.62910       -5.04950
C         -5.13930        1.89080       -5.68280
C         -6.31870        2.48690       -6.11170
C         -7.35860        1.69020       -6.84580
C         -7.06990        1.69320       -8.34850
C         -6.49340        3.84590       -5.88210
C         -5.51920        4.59000       -5.24700
C         -3.62700        5.70200       -3.15290
O         -4.86590        5.87660       -2.62570
C         -1.14800        3.79640       -5.20050
C          0.16260        4.05970       -4.90450
O          0.26930        5.07820       -4.00820
C          1.36880        3.33380       -5.14650
C          1.56630        2.15460       -5.80110
C          2.82850        1.57010       -5.52460
C          3.31190        0.31360       -5.93410
C          2.53950       -0.57990       -6.77690
C          1.22230       -0.92110       -6.67900
C          0.79920       -1.86920       -7.64120
C         -0.59570       -2.41730       -7.67100
C         -0.72270       -3.62500       -6.74070
C          1.81180       -2.25460       -8.47190
C          1.77270       -3.18910       -9.63440
C          1.51310       -2.43440      -10.94060
S          3.29470       -1.44260       -8.08510
C          4.53580       -0.08140       -5.40680
C          5.30550        0.71550       -4.52520
C          4.86320        2.00970       -4.18280
C          5.66180        2.87260       -3.33960
C          7.01910        3.03030       -3.35070
C          7.50080        3.96860       -2.40790
C          8.96170        4.26190       -2.24600
C          9.62530        3.22730       -1.33550
C          6.49690        4.51330       -1.65920
S          4.94530        3.89720       -2.13020
C          6.56100        5.55870       -0.59680
C          6.24020        6.94160       -1.16980
C          3.61120        2.37950       -4.66270
S          2.77060        3.84140       -4.23300
C          6.39130       -0.00990       -3.97140
C          6.44830       -1.30100       -4.40460
S          5.21290       -1.67610       -5.58290
C          7.23940       -2.39470       -3.93950
C          8.18970       -2.51410       -2.96140
C          8.46410       -3.90520       -2.83390
C          9.24570       -4.65870       -1.94320
C         10.12320       -4.04600       -0.94410
C         10.91020       -2.94390       -1.27310
C         11.72710       -2.35660       -0.32750
C         11.78140       -2.84520        0.97210
C         12.62410       -2.16370        2.01120
C         11.84370       -1.02100        2.66450
C         11.00110       -3.94770        1.29680
C         10.18960       -4.54730        0.35400
C          9.08340       -6.03230       -2.07270
C          8.23850       -6.66120       -3.02770
C          7.47200       -5.91040       -3.92970
C          6.50860       -6.45510       -4.88840
C          6.37450       -5.87480       -6.14920
C          5.39950       -6.30920       -7.02240
C          4.52690       -7.33140       -6.66810
C          3.41160       -7.72760       -7.59220
C          2.23230       -6.76380       -7.43900
C          4.67510       -7.92400       -5.42090
C          5.65180       -7.49680       -4.54130
C          7.62610       -4.53760       -3.78770
O          6.91390       -3.60810       -4.46150
C          8.39190       -8.05500       -2.79900
C          9.26800       -8.18590       -1.75720
O          9.70190       -6.97190       -1.31430
C          9.72840       -9.35410       -1.07630
C         10.58140       -9.41030       -0.01610
C         10.80760      -10.72810        0.45800
C         11.59060      -11.12760        1.55690
C         12.37900      -10.16730        2.30100
C         13.14750       -9.14920        1.81430
C         13.79800       -8.38900        2.81450
C         14.66460       -7.21060        2.48800
C         13.82220       -5.94260        2.34080
C         13.49890       -8.82370        4.07400
C         13.99650       -8.32600        5.38920
C         15.18790       -9.15620        5.87320
S         12.44060      -10.19780        4.03920
C         11.56390      -12.48170        1.87530
C         10.81630      -13.43850        1.15080
C         10.03790      -13.04130        0.04790
C          9.21070      -13.96220       -0.70550
C          8.97630      -13.97460       -2.05030
C          8.04630      -14.95570       -2.46750
C          7.68810      -15.15680       -3.90860
C          8.69900      -16.07590       -4.59600
C          7.57030      -15.69930       -1.42630
S          8.25780      -15.18860        0.08190
C          6.54970      -16.78730       -1.43070
C          5.15080      -16.22970       -1.15550
C         10.06890      -11.68750       -0.27460
S          9.15660      -10.93360       -1.55860
C         11.01750      -14.75400        1.66360
C         11.85900      -14.78650        2.71610
S         12.46780      -13.23210        3.16360
H        -15.18290        4.48840       11.77570
H        -13.31440        6.30340       11.72630
H        -13.16910        8.59170       11.09350
H        -11.00130       10.36900       13.61870
H        -12.66150        9.96140       13.17770
H        -12.58210       11.65620       11.33830
H        -10.93720       12.08280       11.80960
H        -12.27880       12.39250       12.91580
H         -7.93830        8.98930       12.21720
H         -8.91150       10.31340       12.87260
H         -8.76190       11.48850       10.66130
H         -7.78880       10.15920       10.03150
H         -7.15850       11.17400       11.33480
H        -16.02620        4.08250        6.98990
H        -17.04120        1.55480        4.31600
H        -17.67090        2.83150        5.36290
H        -16.45430        0.19800        6.33060
H        -18.17660        0.59330        6.31580
H        -17.07050        1.47790        7.37410
H        -13.32220        0.84830        3.59120
H        -15.01710        0.39940        3.81410
H        -15.70510        2.23840        2.26660
H        -14.57460        1.13550        1.47430
H        -14.01850        2.70810        2.06880
H        -11.97820        5.38550        4.74820
H         -8.27230        8.49620        5.14470
H         -4.29250        8.10080        2.34800
H         -2.76590        9.75130        3.32450
H         -2.46180       12.03060        4.18510
H         -3.84420       12.95520        4.79030
H         -2.37310       12.23720        6.66160
H         -3.95870       11.46740        6.79100
H         -2.58100       10.54720        6.18810
H         -6.09720       11.98690        4.77000
H         -7.62930       10.35420        3.77050
H         -9.71610        6.18440       -1.36690
H        -11.27040        4.59480       -2.40350
H        -13.00670        2.92670       -2.11870
H        -13.28340        2.16620       -0.54590
H        -10.96350        1.52580       -2.43180
H        -11.24250        0.76620       -0.86590
H        -12.39430        0.51850       -2.18360
H        -11.69480        2.57400        1.32800
H        -10.13970        4.15440        2.36700
H         -7.38130        5.53240       -1.38330
H         -3.06600        7.79990       -0.66540
H         -1.43370        8.98740       -1.99770
H          0.27590       10.30620       -0.83700
H          2.62220       10.55160       -0.22150
H          3.71420        9.15960       -0.25990
H          1.57470        9.66770        1.86410
H          3.31260        9.90450        2.07860
H          2.66220        8.28050        1.82540
H          2.82970        6.89130       -0.71540
H          1.12350        5.56530       -1.84850
H         -3.26530        2.14060       -4.69130
H         -4.99220        0.83100       -5.83960
H         -8.34720        2.11860       -6.66870
H         -7.36240        0.66040       -6.48230
H         -7.07220        2.71140       -8.73140
H         -6.09350        1.25670       -8.54670
H         -7.82280        1.11870       -8.88340
H         -7.40720        4.32590       -6.20370
H         -5.67030        5.64560       -5.07960
H         -1.50350        3.06710       -5.89800
H          0.82690        1.70280       -6.43500
H          0.57350       -0.53910       -5.91030
H         -0.86420       -2.70890       -8.68750
H         -1.29100       -1.63910       -7.34880
H         -1.73900       -4.01250       -6.75670
H         -0.47410       -3.34340       -5.72000
H         -0.04310       -4.41620       -7.04940
H          0.98990       -3.93390       -9.47860
H          2.72880       -3.71150       -9.70870
H          2.30100       -1.70510      -11.11430
H          1.48710       -3.12600      -11.77910
H          0.56260       -1.90780      -10.89300
H          7.66010        2.52340       -4.05060
H          9.10210        5.25980       -1.82860
H          9.43950        4.23680       -3.22780
H         10.68590        3.44200       -1.22500
H          9.51590        2.22890       -1.75300
H          9.16380        3.23710       -0.35030
H          7.55540        5.56730       -0.14700
H          5.83750        5.31980        0.18600
H          6.96630        7.21450       -1.93240
H          6.26300        7.69190       -0.38260
H          5.25230        6.93930       -1.62540
H          7.05400        0.38810       -3.22590
H          8.60550       -1.71800       -2.37980
H         10.89650       -2.56460       -2.28420
H         12.33620       -1.50630       -0.60170
H         12.91960       -2.88200        2.77820
H         13.52940       -1.76260        1.55010
H         11.54930       -0.28760        1.91710
H         12.45160       -0.52510        3.41790
H         10.94330       -1.40330        3.14030
H         11.02910       -4.34050        2.30330
H          9.58700       -5.40020        0.62650
H          7.04020       -5.07850       -6.44400
H          5.30660       -5.84190       -7.99260
H          3.76170       -7.70330       -8.62670
H          3.08060       -8.74340       -7.36710
H          2.54750       -5.74410       -7.65030
H          1.42930       -7.03160       -8.12270
H          1.84880       -6.79650       -6.42130
H          4.00750       -8.72250       -5.12790
H          5.72570       -7.94500       -3.56180
H          7.92880       -8.85920       -3.33290
H         11.00640       -8.52920        0.42750
H         13.28610       -8.97070        0.76230
H         15.18910       -7.40490        1.55020
H         15.41260       -7.06490        3.26880
H         14.45350       -5.09090        2.09760
H         13.08690       -6.06070        1.54800
H         13.29400       -5.73220        3.26860
H         13.19360       -8.39060        6.12690
H         14.29010       -7.27870        5.29780
H         16.00530       -9.10000        5.15760
H         14.89760      -10.19870        5.98160
H         15.53940       -8.78990        6.83470
H          9.47540      -13.31690       -2.73940
H          7.68370      -14.18640       -4.40900
H          6.68830      -15.58500       -3.99250
H          9.69880      -15.65250       -4.53250
H          8.44310      -16.20610       -5.64500
H          8.71160      -17.05290       -4.11740
H          6.79960      -17.52090       -0.66120
H          6.55960      -17.29360       -2.39790
H          4.41560      -17.03060       -1.16430
H          5.12550      -15.74420       -0.18260
H          4.87870      -15.49680       -1.91180
H         10.55810      -15.63180        1.24880
H         12.17630      -15.64230        3.27920
