
  xtb     03052203003D
 energy: -206.837663835022 gnorm: 0.000391357793 xtb: 6.4.1 (unknown)
132143  0     0  0            999 V2000
    4.0430   -1.1449   -3.8791 C   0  0  0  0  0  0  0  0  0  0  0  0
    2.5691   -0.2702   -3.8251 S   0  0  0  0  0  0  0  0  0  0  0  0
    2.7411   -0.0109   -2.1074 C   0  0  0  0  0  0  0  0  0  0  0  0
    3.9071   -0.5796   -1.6407 C   0  0  0  0  0  0  0  0  0  0  0  0
    4.6444   -1.2347   -2.6596 C   0  0  0  0  0  0  0  0  0  0  0  0
    5.9484   -1.9086   -2.3766 C   0  0  0  0  0  0  0  0  0  0  0  0
    6.1507   -3.4901   -3.3078 S   0  0  0  0  0  0  0  0  0  0  0  0
    6.0770   -2.2238   -0.8914 C   0  0  0  0  0  0  0  0  0  0  0  0
    5.8056   -0.9661   -0.0744 C   0  0  0  0  0  0  0  0  0  0  0  0
    4.3408   -0.5602   -0.2097 C   0  0  0  0  0  0  0  0  0  0  0  0
    1.7564    0.6814   -1.3504 C   0  0  0  0  0  0  0  0  0  0  0  0
    0.5960    1.1581   -1.8504 C   0  0  0  0  0  0  0  0  0  0  0  0
   -0.3566    1.8926   -1.0949 C   0  0  0  0  0  0  0  0  0  0  0  0
   -0.0084    2.3231    0.5537 S   0  0  0  0  0  0  0  0  0  0  0  0
   -1.5089    3.1824    0.7193 C   0  0  0  0  0  0  0  0  0  0  0  0
   -2.2464    3.0926   -0.4578 C   0  0  0  0  0  0  0  0  0  0  0  0
   -1.5939    2.3889   -1.4848 C   0  0  0  0  0  0  0  0  0  0  0  0
   -2.2111    2.1890   -2.8334 C   0  0  0  0  0  0  0  0  0  0  0  0
   -1.0255    2.6357   -4.1930 S   0  0  0  0  0  0  0  0  0  0  0  0
   -3.4639    3.0391   -3.0222 C   0  0  0  0  0  0  0  0  0  0  0  0
   -4.3485    2.9867   -1.7849 C   0  0  0  0  0  0  0  0  0  0  0  0
   -3.6293    3.6497   -0.6137 C   0  0  0  0  0  0  0  0  0  0  0  0
   -1.8810    4.0001    1.8225 C   0  0  0  0  0  0  0  0  0  0  0  0
   -1.4375    4.1543    3.0975 C   0  0  0  0  0  0  0  0  0  0  0  0
   -0.5336    3.4344    3.9223 C   0  0  0  0  0  0  0  0  0  0  0  0
    0.3854    2.0542    3.4149 S   0  0  0  0  0  0  0  0  0  0  0  0
    0.9304    1.7290    5.0331 C   0  0  0  0  0  0  0  0  0  0  0  0
    0.4917    2.7115    5.9031 C   0  0  0  0  0  0  0  0  0  0  0  0
   -0.3543    3.6520    5.2886 C   0  0  0  0  0  0  0  0  0  0  0  0
   -0.9921    4.7590    6.0577 C   0  0  0  0  0  0  0  0  0  0  0  0
   -0.1094    6.3403    5.6186 S   0  0  0  0  0  0  0  0  0  0  0  0
   -0.9279    4.5132    7.5603 C   0  0  0  0  0  0  0  0  0  0  0  0
    0.4788    4.0957    7.9682 C   0  0  0  0  0  0  0  0  0  0  0  0
    0.8039    2.7322    7.3677 C   0  0  0  0  0  0  0  0  0  0  0  0
    1.7483    0.5984    5.3470 C   0  0  0  0  0  0  0  0  0  0  0  0
    1.8246   -0.5806    4.6867 C   0  0  0  0  0  0  0  0  0  0  0  0
    0.9897   -1.0415    3.6220 C   0  0  0  0  0  0  0  0  0  0  0  0
    1.6905   -2.0125    2.3582 S   0  0  0  0  0  0  0  0  0  0  0  0
    0.2120   -2.0721    1.4521 C   0  0  0  0  0  0  0  0  0  0  0  0
   -0.7882   -1.3553    2.1105 C   0  0  0  0  0  0  0  0  0  0  0  0
   -0.3651   -0.8392    3.3693 C   0  0  0  0  0  0  0  0  0  0  0  0
   -1.3111   -0.1907    4.1990 C   0  0  0  0  0  0  0  0  0  0  0  0
   -2.5596    0.0888    3.7251 C   0  0  0  0  0  0  0  0  0  0  0  0
   -3.5351    0.7368    4.4148 O   0  0  0  0  0  0  0  0  0  0  0  0
   -3.2361    1.1937    5.7089 C   0  0  0  0  0  0  0  0  0  0  0  0
   -2.9213   -0.2763    2.3796 C   0  0  0  0  0  0  0  0  0  0  0  0
   -4.1501    0.1538    1.9864 O   0  0  0  0  0  0  0  0  0  0  0  0
   -4.5401   -0.1099    0.6629 C   0  0  0  0  0  0  0  0  0  0  0  0
   -2.0635   -1.0071    1.6105 C   0  0  0  0  0  0  0  0  0  0  0  0
    0.1369   -2.7163    0.1898 C   0  0  0  0  0  0  0  0  0  0  0  0
    1.4782   -2.6364   -0.9090 S   0  0  0  0  0  0  0  0  0  0  0  0
    0.5627   -3.3348   -2.2018 C   0  0  0  0  0  0  0  0  0  0  0  0
   -0.6956   -3.7203   -1.7643 C   0  0  0  0  0  0  0  0  0  0  0  0
   -0.9392   -3.3801   -0.4000 C   0  0  0  0  0  0  0  0  0  0  0  0
   -2.1477   -3.7899    0.2092 C   0  0  0  0  0  0  0  0  0  0  0  0
   -3.0933   -4.4427   -0.5271 C   0  0  0  0  0  0  0  0  0  0  0  0
   -4.2916   -4.8772   -0.0559 O   0  0  0  0  0  0  0  0  0  0  0  0
   -4.5891   -4.6639    1.3005 C   0  0  0  0  0  0  0  0  0  0  0  0
   -2.8665   -4.7376   -1.9218 C   0  0  0  0  0  0  0  0  0  0  0  0
   -3.8988   -5.3777   -2.5287 O   0  0  0  0  0  0  0  0  0  0  0  0
   -3.7801   -5.6656   -3.8983 C   0  0  0  0  0  0  0  0  0  0  0  0
   -1.6859   -4.3993   -2.5128 C   0  0  0  0  0  0  0  0  0  0  0  0
    1.1272   -3.4442   -3.5194 C   0  0  0  0  0  0  0  0  0  0  0  0
    2.5926   -4.3687   -3.7397 S   0  0  0  0  0  0  0  0  0  0  0  0
    2.6051   -4.0505   -5.4519 C   0  0  0  0  0  0  0  0  0  0  0  0
    1.5372   -3.2646   -5.8028 C   0  0  0  0  0  0  0  0  0  0  0  0
    0.7052   -2.9092   -4.7083 C   0  0  0  0  0  0  0  0  0  0  0  0
   -0.3635   -1.9194   -5.0471 C   0  0  0  0  0  0  0  0  0  0  0  0
   -1.5150   -1.4030   -3.7138 S   0  0  0  0  0  0  0  0  0  0  0  0
   -1.2099   -2.4236   -6.2221 C   0  0  0  0  0  0  0  0  0  0  0  0
   -0.3597   -3.0554   -7.3383 C   0  0  0  0  0  0  0  0  0  0  0  0
    1.1390   -2.7848   -7.1591 C   0  0  0  0  0  0  0  0  0  0  0  0
    3.6392   -4.5731   -6.3027 C   0  0  0  0  0  0  0  0  0  0  0  0
    4.6530   -5.3303   -5.8929 C   0  0  0  0  0  0  0  0  0  0  0  0
    4.3680   -1.5544   -4.8156 H   0  0  0  0  0  0  0  0  0  0  0  0
    6.7780   -1.2690   -2.6980 H   0  0  0  0  0  0  0  0  0  0  0  0
    6.3311   -2.9396   -4.5056 H   0  0  0  0  0  0  0  0  0  0  0  0
    5.3519   -2.9975   -0.6279 H   0  0  0  0  0  0  0  0  0  0  0  0
    7.0772   -2.6111   -0.6894 H   0  0  0  0  0  0  0  0  0  0  0  0
    6.4492   -0.1576   -0.4304 H   0  0  0  0  0  0  0  0  0  0  0  0
    6.0391   -1.1455    0.9758 H   0  0  0  0  0  0  0  0  0  0  0  0
    3.7161   -1.2620    0.3536 H   0  0  0  0  0  0  0  0  0  0  0  0
    4.1837    0.4318    0.2194 H   0  0  0  0  0  0  0  0  0  0  0  0
    1.9731    0.8147   -0.2988 H   0  0  0  0  0  0  0  0  0  0  0  0
    0.3826    1.0164   -2.9007 H   0  0  0  0  0  0  0  0  0  0  0  0
   -2.4276    1.1252   -2.9820 H   0  0  0  0  0  0  0  0  0  0  0  0
   -1.7762    2.1157   -5.1618 H   0  0  0  0  0  0  0  0  0  0  0  0
   -3.1640    4.0743   -3.2038 H   0  0  0  0  0  0  0  0  0  0  0  0
   -4.0105    2.6870   -3.8998 H   0  0  0  0  0  0  0  0  0  0  0  0
   -5.2905    3.5024   -1.9788 H   0  0  0  0  0  0  0  0  0  0  0  0
   -4.5765    1.9463   -1.5445 H   0  0  0  0  0  0  0  0  0  0  0  0
   -3.5687    4.7292   -0.7913 H   0  0  0  0  0  0  0  0  0  0  0  0
   -4.1966    3.4935    0.3063 H   0  0  0  0  0  0  0  0  0  0  0  0
   -2.6882    4.6740    1.5577 H   0  0  0  0  0  0  0  0  0  0  0  0
   -1.9211    4.9633    3.6320 H   0  0  0  0  0  0  0  0  0  0  0  0
   -2.0279    4.9109    5.7414 H   0  0  0  0  0  0  0  0  0  0  0  0
   -0.9225    7.1372    6.3123 H   0  0  0  0  0  0  0  0  0  0  0  0
   -1.6371    3.7191    7.8133 H   0  0  0  0  0  0  0  0  0  0  0  0
   -1.2294    5.4166    8.0947 H   0  0  0  0  0  0  0  0  0  0  0  0
    0.5626    4.0542    9.0551 H   0  0  0  0  0  0  0  0  0  0  0  0
    1.1892    4.8383    7.5989 H   0  0  0  0  0  0  0  0  0  0  0  0
    0.2162    1.9571    7.8729 H   0  0  0  0  0  0  0  0  0  0  0  0
    1.8582    2.4938    7.5255 H   0  0  0  0  0  0  0  0  0  0  0  0
    2.3977    0.7306    6.2041 H   0  0  0  0  0  0  0  0  0  0  0  0
    2.6238   -1.2569    4.9663 H   0  0  0  0  0  0  0  0  0  0  0  0
   -1.0112    0.0890    5.1949 H   0  0  0  0  0  0  0  0  0  0  0  0
   -4.1331    1.7050    6.0552 H   0  0  0  0  0  0  0  0  0  0  0  0
   -2.3947    1.8958    5.7022 H   0  0  0  0  0  0  0  0  0  0  0  0
   -3.0079    0.3639    6.3868 H   0  0  0  0  0  0  0  0  0  0  0  0
   -5.5098    0.3697    0.5391 H   0  0  0  0  0  0  0  0  0  0  0  0
   -4.6421   -1.1845    0.4740 H   0  0  0  0  0  0  0  0  0  0  0  0
   -3.8251    0.3088   -0.0534 H   0  0  0  0  0  0  0  0  0  0  0  0
   -2.3159   -1.2976    0.6048 H   0  0  0  0  0  0  0  0  0  0  0  0
   -2.2867   -3.5926    1.2590 H   0  0  0  0  0  0  0  0  0  0  0  0
   -4.5963   -3.5975    1.5524 H   0  0  0  0  0  0  0  0  0  0  0  0
   -3.8783   -5.1801    1.9544 H   0  0  0  0  0  0  0  0  0  0  0  0
   -5.5850   -5.0769    1.4520 H   0  0  0  0  0  0  0  0  0  0  0  0
   -4.7187   -6.1372   -4.1845 H   0  0  0  0  0  0  0  0  0  0  0  0
   -3.6383   -4.7523   -4.4862 H   0  0  0  0  0  0  0  0  0  0  0  0
   -2.9527   -6.3556   -4.0958 H   0  0  0  0  0  0  0  0  0  0  0  0
   -1.4708   -4.6375   -3.5414 H   0  0  0  0  0  0  0  0  0  0  0  0
    0.1433   -0.9929   -5.3436 H   0  0  0  0  0  0  0  0  0  0  0  0
   -0.5760   -0.9615   -2.8828 H   0  0  0  0  0  0  0  0  0  0  0  0
   -1.9241   -3.1573   -5.8417 H   0  0  0  0  0  0  0  0  0  0  0  0
   -1.7876   -1.5819   -6.6083 H   0  0  0  0  0  0  0  0  0  0  0  0
   -0.5059   -4.1375   -7.3400 H   0  0  0  0  0  0  0  0  0  0  0  0
   -0.6837   -2.6783   -8.3089 H   0  0  0  0  0  0  0  0  0  0  0  0
    1.3342   -1.7110   -7.2424 H   0  0  0  0  0  0  0  0  0  0  0  0
    1.7005   -3.2917   -7.9434 H   0  0  0  0  0  0  0  0  0  0  0  0
    3.5507   -4.3062   -7.3484 H   0  0  0  0  0  0  0  0  0  0  0  0
    4.7709   -5.6024   -4.8575 H   0  0  0  0  0  0  0  0  0  0  0  0
    5.4014   -5.6888   -6.5773 H   0  0  0  0  0  0  0  0  0  0  0  0
  1  2  1  0  0  0  0
  2  3  1  0  0  0  0
  3  4  2  0  0  0  0
  4  5  1  0  0  0  0
  5  6  1  0  0  0  0
  6  7  1  0  0  0  0
  6  8  1  0  0  0  0
  8  9  1  0  0  0  0
  9 10  1  0  0  0  0
  3 11  1  0  0  0  0
 11 12  2  0  0  0  0
 12 13  1  0  0  0  0
 13 14  1  0  0  0  0
 14 15  1  0  0  0  0
 15 16  2  0  0  0  0
 16 17  1  0  0  0  0
 17 18  1  0  0  0  0
 18 19  1  0  0  0  0
 18 20  1  0  0  0  0
 20 21  1  0  0  0  0
 21 22  1  0  0  0  0
 15 23  1  0  0  0  0
 23 24  2  0  0  0  0
 24 25  1  0  0  0  0
 25 26  1  0  0  0  0
 26 27  1  0  0  0  0
 27 28  2  0  0  0  0
 28 29  1  0  0  0  0
 29 30  1  0  0  0  0
 30 31  1  0  0  0  0
 30 32  1  0  0  0  0
 32 33  1  0  0  0  0
 33 34  1  0  0  0  0
 27 35  1  0  0  0  0
 35 36  2  0  0  0  0
 36 37  1  0  0  0  0
 37 38  1  0  0  0  0
 38 39  1  0  0  0  0
 39 40  2  0  0  0  0
 40 41  1  0  0  0  0
 41 42  1  0  0  0  0
 42 43  2  0  0  0  0
 43 44  1  0  0  0  0
 44 45  1  0  0  0  0
 43 46  1  0  0  0  0
 46 47  1  0  0  0  0
 47 48  1  0  0  0  0
 46 49  2  0  0  0  0
 39 50  1  0  0  0  0
 50 51  1  0  0  0  0
 51 52  1  0  0  0  0
 52 53  2  0  0  0  0
 53 54  1  0  0  0  0
 54 55  1  0  0  0  0
 55 56  2  0  0  0  0
 56 57  1  0  0  0  0
 57 58  1  0  0  0  0
 56 59  1  0  0  0  0
 59 60  1  0  0  0  0
 60 61  1  0  0  0  0
 59 62  2  0  0  0  0
 52 63  1  0  0  0  0
 63 64  1  0  0  0  0
 64 65  1  0  0  0  0
 65 66  2  0  0  0  0
 66 67  1  0  0  0  0
 67 68  1  0  0  0  0
 68 69  1  0  0  0  0
 68 70  1  0  0  0  0
 70 71  1  0  0  0  0
 71 72  1  0  0  0  0
 65 73  1  0  0  0  0
 73 74  2  0  0  0  0
  5  1  2  0  0  0  0
 17 13  2  0  0  0  0
 29 25  2  0  0  0  0
 41 37  2  0  0  0  0
 54 50  2  0  0  0  0
 67 63  2  0  0  0  0
 10  4  1  0  0  0  0
 22 16  1  0  0  0  0
 34 28  1  0  0  0  0
 49 40  1  0  0  0  0
 62 53  1  0  0  0  0
 72 66  1  0  0  0  0
  1 75  1  0  0  0  0
  6 76  1  0  0  0  0
  7 77  1  0  0  0  0
  8 78  1  0  0  0  0
  8 79  1  0  0  0  0
  9 80  1  0  0  0  0
  9 81  1  0  0  0  0
 10 82  1  0  0  0  0
 10 83  1  0  0  0  0
 11 84  1  0  0  0  0
 12 85  1  0  0  0  0
 18 86  1  0  0  0  0
 19 87  1  0  0  0  0
 20 88  1  0  0  0  0
 20 89  1  0  0  0  0
 21 90  1  0  0  0  0
 21 91  1  0  0  0  0
 22 92  1  0  0  0  0
 22 93  1  0  0  0  0
 23 94  1  0  0  0  0
 24 95  1  0  0  0  0
 30 96  1  0  0  0  0
 31 97  1  0  0  0  0
 32 98  1  0  0  0  0
 32 99  1  0  0  0  0
 33100  1  0  0  0  0
 33101  1  0  0  0  0
 34102  1  0  0  0  0
 34103  1  0  0  0  0
 35104  1  0  0  0  0
 36105  1  0  0  0  0
 42106  1  0  0  0  0
 45107  1  0  0  0  0
 45108  1  0  0  0  0
 45109  1  0  0  0  0
 48110  1  0  0  0  0
 48111  1  0  0  0  0
 48112  1  0  0  0  0
 49113  1  0  0  0  0
 55114  1  0  0  0  0
 58115  1  0  0  0  0
 58116  1  0  0  0  0
 58117  1  0  0  0  0
 61118  1  0  0  0  0
 61119  1  0  0  0  0
 61120  1  0  0  0  0
 62121  1  0  0  0  0
 68122  1  0  0  0  0
 69123  1  0  0  0  0
 70124  1  0  0  0  0
 70125  1  0  0  0  0
 71126  1  0  0  0  0
 71127  1  0  0  0  0
 72128  1  0  0  0  0
 72129  1  0  0  0  0
 73130  1  0  0  0  0
 74131  1  0  0  0  0
 74132  1  0  0  0  0
M  END
