
  xtb     03042213483D
 energy: -323.223123025279 gnorm: 0.000191806111 xtb: 6.4.1 (unknown)
186203  0     0  0            999 V2000
    2.7163   -4.7214   13.1104 C   0  0  0  0  0  0  0  0  0  0  0  0
    2.6430   -3.5881   12.3847 C   0  0  0  0  0  0  0  0  0  0  0  0
    2.7755   -3.8156   10.9819 C   0  0  0  0  0  0  0  0  0  0  0  0
    2.7550   -2.8714    9.9445 C   0  0  0  0  0  0  0  0  0  0  0  0
    2.6413   -1.4322   10.2158 C   0  0  0  0  0  0  0  0  0  0  0  0
    3.5120   -0.8021   11.0996 C   0  0  0  0  0  0  0  0  0  0  0  0
    3.4194    0.5534   11.3502 C   0  0  0  0  0  0  0  0  0  0  0  0
    2.4497    1.3280   10.7240 C   0  0  0  0  0  0  0  0  0  0  0  0
    2.2024    3.0544   10.9791 S   0  0  0  0  0  0  0  0  0  0  0  0
    3.7783    3.6251   11.7049 C   0  0  0  0  0  0  0  0  0  0  0  0
    4.9240    3.5601   10.7133 C   0  0  0  0  0  0  0  0  0  0  0  0
    1.5781    0.6806    9.8464 C   0  0  0  0  0  0  0  0  0  0  0  0
    0.6131    1.3966    9.2370 F   0  0  0  0  0  0  0  0  0  0  0  0
    1.6638   -0.6679    9.5831 C   0  0  0  0  0  0  0  0  0  0  0  0
    2.8608   -3.3624    8.6523 C   0  0  0  0  0  0  0  0  0  0  0  0
    3.0214   -4.7387    8.3598 C   0  0  0  0  0  0  0  0  0  0  0  0
    3.0707   -5.6811    9.3990 C   0  0  0  0  0  0  0  0  0  0  0  0
    3.2917   -7.1041    9.1166 C   0  0  0  0  0  0  0  0  0  0  0  0
    4.3544   -7.5119    8.3095 C   0  0  0  0  0  0  0  0  0  0  0  0
    4.5514   -8.8448    8.0258 C   0  0  0  0  0  0  0  0  0  0  0  0
    3.7037   -9.8303    8.5344 C   0  0  0  0  0  0  0  0  0  0  0  0
    4.0839  -11.4975    8.0990 S   0  0  0  0  0  0  0  0  0  0  0  0
    2.4734  -12.3783    8.1810 C   0  0  0  0  0  0  0  0  0  0  0  0
    2.5677  -13.6427    7.3497 C   0  0  0  0  0  0  0  0  0  0  0  0
    2.6715   -9.4123    9.3687 C   0  0  0  0  0  0  0  0  0  0  0  0
    2.4565   -8.0780    9.6509 C   0  0  0  0  0  0  0  0  0  0  0  0
    1.8317  -10.3055    9.9399 F   0  0  0  0  0  0  0  0  0  0  0  0
    2.9241   -5.1923   10.6896 C   0  0  0  0  0  0  0  0  0  0  0  0
    2.9430   -6.1454   12.1519 S   0  0  0  0  0  0  0  0  0  0  0  0
    3.0918   -4.9812    6.9647 C   0  0  0  0  0  0  0  0  0  0  0  0
    3.0404   -3.8489    6.2035 C   0  0  0  0  0  0  0  0  0  0  0  0
    2.8629   -2.4061    7.1940 S   0  0  0  0  0  0  0  0  0  0  0  0
    3.0904   -3.7207    4.7863 C   0  0  0  0  0  0  0  0  0  0  0  0
    2.3472   -2.3556    4.0239 S   0  0  0  0  0  0  0  0  0  0  0  0
    2.7322   -2.9237    2.4355 C   0  0  0  0  0  0  0  0  0  0  0  0
    3.4717   -4.1077    2.4987 C   0  0  0  0  0  0  0  0  0  0  0  0
    3.6660   -4.5682    3.8365 C   0  0  0  0  0  0  0  0  0  0  0  0
    4.4203   -5.7412    4.0636 C   0  0  0  0  0  0  0  0  0  0  0  0
    4.9445   -6.4377    3.0116 C   0  0  0  0  0  0  0  0  0  0  0  0
    5.6657   -7.5817    3.1083 O   0  0  0  0  0  0  0  0  0  0  0  0
    5.8688   -8.1362    4.3845 C   0  0  0  0  0  0  0  0  0  0  0  0
    4.7736   -5.9559    1.6659 C   0  0  0  0  0  0  0  0  0  0  0  0
    5.3830   -6.7125    0.7175 O   0  0  0  0  0  0  0  0  0  0  0  0
    5.2976   -6.2923   -0.6203 C   0  0  0  0  0  0  0  0  0  0  0  0
    4.0639   -4.8137    1.4281 C   0  0  0  0  0  0  0  0  0  0  0  0
    2.2553   -2.2166    1.2971 C   0  0  0  0  0  0  0  0  0  0  0  0
    2.0141   -2.6909    0.0375 C   0  0  0  0  0  0  0  0  0  0  0  0
    1.5109   -1.7165   -0.8566 C   0  0  0  0  0  0  0  0  0  0  0  0
    1.1412   -1.8913   -2.2032 C   0  0  0  0  0  0  0  0  0  0  0  0
    1.4003   -3.1492   -2.9108 C   0  0  0  0  0  0  0  0  0  0  0  0
    2.6477   -3.7661   -2.8265 C   0  0  0  0  0  0  0  0  0  0  0  0
    2.9153   -4.9369   -3.5072 C   0  0  0  0  0  0  0  0  0  0  0  0
    1.9426   -5.5412   -4.2962 C   0  0  0  0  0  0  0  0  0  0  0  0
    2.1914   -7.0199   -5.2293 S   0  0  0  0  0  0  0  0  0  0  0  0
    3.4125   -7.9381   -4.2255 C   0  0  0  0  0  0  0  0  0  0  0  0
    2.8472   -8.3367   -2.8763 C   0  0  0  0  0  0  0  0  0  0  0  0
    0.7052   -4.9053   -4.3880 C   0  0  0  0  0  0  0  0  0  0  0  0
   -0.2592   -5.4489   -5.1571 F   0  0  0  0  0  0  0  0  0  0  0  0
    0.4249   -3.7383   -3.7123 C   0  0  0  0  0  0  0  0  0  0  0  0
    0.5533   -0.8035   -2.8274 C   0  0  0  0  0  0  0  0  0  0  0  0
    0.3530    0.4494   -2.1950 C   0  0  0  0  0  0  0  0  0  0  0  0
    0.7601    0.6328   -0.8610 C   0  0  0  0  0  0  0  0  0  0  0  0
    0.5782    1.9131   -0.1676 C   0  0  0  0  0  0  0  0  0  0  0  0
   -0.6589    2.5504   -0.1425 C   0  0  0  0  0  0  0  0  0  0  0  0
   -0.8321    3.7488    0.5225 C   0  0  0  0  0  0  0  0  0  0  0  0
    0.2275    4.3531    1.1893 C   0  0  0  0  0  0  0  0  0  0  0  0
    0.1480    5.8903    2.0481 S   0  0  0  0  0  0  0  0  0  0  0  0
   -1.6353    6.1276    2.3633 C   0  0  0  0  0  0  0  0  0  0  0  0
   -2.1827    5.1156    3.3514 C   0  0  0  0  0  0  0  0  0  0  0  0
    1.4640    3.7071    1.1489 C   0  0  0  0  0  0  0  0  0  0  0  0
    1.6488    2.5107    0.4941 C   0  0  0  0  0  0  0  0  0  0  0  0
    2.5195    4.2728    1.7676 F   0  0  0  0  0  0  0  0  0  0  0  0
    1.3318   -0.4597   -0.2283 C   0  0  0  0  0  0  0  0  0  0  0  0
    1.8444   -0.5131    1.4387 S   0  0  0  0  0  0  0  0  0  0  0  0
   -0.2296    1.3953   -3.0690 C   0  0  0  0  0  0  0  0  0  0  0  0
   -0.4892    0.9179   -4.3271 C   0  0  0  0  0  0  0  0  0  0  0  0
    0.0165   -0.7571   -4.4860 S   0  0  0  0  0  0  0  0  0  0  0  0
   -1.1352    1.6167   -5.3770 C   0  0  0  0  0  0  0  0  0  0  0  0
   -1.8593    3.1602   -5.0190 S   0  0  0  0  0  0  0  0  0  0  0  0
   -2.4905    3.3362   -6.6250 C   0  0  0  0  0  0  0  0  0  0  0  0
   -2.0886    2.2666   -7.4278 C   0  0  0  0  0  0  0  0  0  0  0  0
   -1.3478    1.2762   -6.7160 C   0  0  0  0  0  0  0  0  0  0  0  0
   -0.9111    0.1224   -7.4027 C   0  0  0  0  0  0  0  0  0  0  0  0
   -1.1668   -0.0259   -8.7374 C   0  0  0  0  0  0  0  0  0  0  0  0
   -0.8120   -1.0966   -9.4860 O   0  0  0  0  0  0  0  0  0  0  0  0
   -0.1483   -2.1645   -8.8530 C   0  0  0  0  0  0  0  0  0  0  0  0
   -1.8373    1.0177   -9.4701 C   0  0  0  0  0  0  0  0  0  0  0  0
   -1.9673    0.7777  -10.8005 O   0  0  0  0  0  0  0  0  0  0  0  0
   -2.5484    1.7752  -11.6022 C   0  0  0  0  0  0  0  0  0  0  0  0
   -2.2762    2.1363   -8.8228 C   0  0  0  0  0  0  0  0  0  0  0  0
   -3.3258    4.4339   -6.9612 C   0  0  0  0  0  0  0  0  0  0  0  0
   -3.0316    6.0159   -6.3028 S   0  0  0  0  0  0  0  0  0  0  0  0
   -4.3819    6.7111   -7.1430 C   0  0  0  0  0  0  0  0  0  0  0  0
   -5.0248    5.7485   -7.9198 C   0  0  0  0  0  0  0  0  0  0  0  0
   -4.4542    4.4484   -7.7833 C   0  0  0  0  0  0  0  0  0  0  0  0
   -5.0954    3.3450   -8.3936 C   0  0  0  0  0  0  0  0  0  0  0  0
   -6.1751    3.5444   -9.2047 C   0  0  0  0  0  0  0  0  0  0  0  0
   -6.8707    2.5659   -9.8401 O   0  0  0  0  0  0  0  0  0  0  0  0
   -6.4856    1.2306   -9.6279 C   0  0  0  0  0  0  0  0  0  0  0  0
   -6.6556    4.8794   -9.4628 C   0  0  0  0  0  0  0  0  0  0  0  0
   -7.6849    4.9435  -10.3479 O   0  0  0  0  0  0  0  0  0  0  0  0
   -8.2074    6.2086  -10.6669 C   0  0  0  0  0  0  0  0  0  0  0  0
   -6.0965    5.9468   -8.8230 C   0  0  0  0  0  0  0  0  0  0  0  0
   -4.7267    8.0836   -6.9775 C   0  0  0  0  0  0  0  0  0  0  0  0
   -3.5030    9.3157   -6.9073 S   0  0  0  0  0  0  0  0  0  0  0  0
   -4.6636   10.5631   -6.7695 C   0  0  0  0  0  0  0  0  0  0  0  0
   -5.9496   10.0770   -6.7537 C   0  0  0  0  0  0  0  0  0  0  0  0
   -5.9930    8.6493   -6.8546 C   0  0  0  0  0  0  0  0  0  0  0  0
   -7.2365    7.9836   -6.7412 C   0  0  0  0  0  0  0  0  0  0  0  0
   -8.3859    8.7070   -6.6169 C   0  0  0  0  0  0  0  0  0  0  0  0
   -9.6346    8.1824   -6.5063 O   0  0  0  0  0  0  0  0  0  0  0  0
   -9.7675    6.7839   -6.4710 C   0  0  0  0  0  0  0  0  0  0  0  0
   -8.3488   10.1515   -6.5869 C   0  0  0  0  0  0  0  0  0  0  0  0
   -9.5724   10.7312   -6.4833 O   0  0  0  0  0  0  0  0  0  0  0  0
   -9.6380   12.1329   -6.4139 C   0  0  0  0  0  0  0  0  0  0  0  0
   -7.1578   10.8115   -6.6377 C   0  0  0  0  0  0  0  0  0  0  0  0
    2.6445   -4.8298   14.1750 H   0  0  0  0  0  0  0  0  0  0  0  0
    2.4853   -2.6143   12.8114 H   0  0  0  0  0  0  0  0  0  0  0  0
    4.2863   -1.3777   11.5848 H   0  0  0  0  0  0  0  0  0  0  0  0
    4.1097    1.0019   12.0463 H   0  0  0  0  0  0  0  0  0  0  0  0
    3.5669    4.6566   11.9870 H   0  0  0  0  0  0  0  0  0  0  0  0
    3.9768    3.0536   12.6108 H   0  0  0  0  0  0  0  0  0  0  0  0
    5.8332    3.9442   11.1720 H   0  0  0  0  0  0  0  0  0  0  0  0
    5.1030    2.5371   10.3890 H   0  0  0  0  0  0  0  0  0  0  0  0
    4.6951    4.1614    9.8367 H   0  0  0  0  0  0  0  0  0  0  0  0
    0.9595   -1.1150    8.8998 H   0  0  0  0  0  0  0  0  0  0  0  0
    5.0382   -6.7733    7.9191 H   0  0  0  0  0  0  0  0  0  0  0  0
    5.3755   -9.1568    7.4022 H   0  0  0  0  0  0  0  0  0  0  0  0
    1.7145  -11.7042    7.7871 H   0  0  0  0  0  0  0  0  0  0  0  0
    2.2594  -12.6082    9.2235 H   0  0  0  0  0  0  0  0  0  0  0  0
    3.3521  -14.2926    7.7311 H   0  0  0  0  0  0  0  0  0  0  0  0
    2.7920  -13.4036    6.3126 H   0  0  0  0  0  0  0  0  0  0  0  0
    1.6214  -14.1778    7.3896 H   0  0  0  0  0  0  0  0  0  0  0  0
    1.6261   -7.8135   10.2864 H   0  0  0  0  0  0  0  0  0  0  0  0
    3.1082   -5.9720    6.5513 H   0  0  0  0  0  0  0  0  0  0  0  0
    4.5971   -6.0573    5.0760 H   0  0  0  0  0  0  0  0  0  0  0  0
    6.4295   -9.0547    4.2201 H   0  0  0  0  0  0  0  0  0  0  0  0
    4.9186   -8.3728    4.8749 H   0  0  0  0  0  0  0  0  0  0  0  0
    6.4509   -7.4663    5.0262 H   0  0  0  0  0  0  0  0  0  0  0  0
    5.7730   -5.3164   -0.7666 H   0  0  0  0  0  0  0  0  0  0  0  0
    4.2571   -6.2417   -0.9580 H   0  0  0  0  0  0  0  0  0  0  0  0
    5.8318   -7.0441   -1.1992 H   0  0  0  0  0  0  0  0  0  0  0  0
    3.9747   -4.4144    0.4337 H   0  0  0  0  0  0  0  0  0  0  0  0
    2.1076   -3.7266   -0.2297 H   0  0  0  0  0  0  0  0  0  0  0  0
    3.4307   -3.3012   -2.2463 H   0  0  0  0  0  0  0  0  0  0  0  0
    3.8996   -5.3729   -3.4353 H   0  0  0  0  0  0  0  0  0  0  0  0
    3.6335   -8.8160   -4.8318 H   0  0  0  0  0  0  0  0  0  0  0  0
    4.3196   -7.3417   -4.1349 H   0  0  0  0  0  0  0  0  0  0  0  0
    2.5534   -7.4575   -2.3057 H   0  0  0  0  0  0  0  0  0  0  0  0
    3.5912   -8.8896   -2.3063 H   0  0  0  0  0  0  0  0  0  0  0  0
    1.9699   -8.9654   -3.0085 H   0  0  0  0  0  0  0  0  0  0  0  0
   -0.5603   -3.3094   -3.8000 H   0  0  0  0  0  0  0  0  0  0  0  0
   -1.5045    2.0924   -0.6331 H   0  0  0  0  0  0  0  0  0  0  0  0
   -1.8048    4.2133    0.5110 H   0  0  0  0  0  0  0  0  0  0  0  0
   -2.1661    6.1126    1.4122 H   0  0  0  0  0  0  0  0  0  0  0  0
   -1.6869    7.1368    2.7719 H   0  0  0  0  0  0  0  0  0  0  0  0
   -3.2358    5.3149    3.5409 H   0  0  0  0  0  0  0  0  0  0  0  0
   -2.0837    4.1021    2.9680 H   0  0  0  0  0  0  0  0  0  0  0  0
   -1.6412    5.1791    4.2923 H   0  0  0  0  0  0  0  0  0  0  0  0
    2.6292    2.0611    0.4904 H   0  0  0  0  0  0  0  0  0  0  0  0
   -0.4409    2.4116   -2.7884 H   0  0  0  0  0  0  0  0  0  0  0  0
   -0.3673   -0.6331   -6.8645 H   0  0  0  0  0  0  0  0  0  0  0  0
   -0.7561   -2.5997   -8.0537 H   0  0  0  0  0  0  0  0  0  0  0  0
    0.0154   -2.9096   -9.6294 H   0  0  0  0  0  0  0  0  0  0  0  0
    0.8163   -1.8507   -8.4413 H   0  0  0  0  0  0  0  0  0  0  0  0
   -3.5813    1.9875  -11.3045 H   0  0  0  0  0  0  0  0  0  0  0  0
   -2.5407    1.3791  -12.6161 H   0  0  0  0  0  0  0  0  0  0  0  0
   -1.9700    2.7043  -11.5696 H   0  0  0  0  0  0  0  0  0  0  0  0
   -2.7496    2.9450   -9.3533 H   0  0  0  0  0  0  0  0  0  0  0  0
   -4.7225    2.3560   -8.1889 H   0  0  0  0  0  0  0  0  0  0  0  0
   -6.5710    0.9500   -8.5731 H   0  0  0  0  0  0  0  0  0  0  0  0
   -5.4599    1.0441   -9.9645 H   0  0  0  0  0  0  0  0  0  0  0  0
   -7.1731    0.6287  -10.2196 H   0  0  0  0  0  0  0  0  0  0  0  0
   -9.0071    6.0248  -11.3823 H   0  0  0  0  0  0  0  0  0  0  0  0
   -8.6188    6.7127   -9.7854 H   0  0  0  0  0  0  0  0  0  0  0  0
   -7.4498    6.8528  -11.1248 H   0  0  0  0  0  0  0  0  0  0  0  0
   -6.4430    6.9520   -8.9934 H   0  0  0  0  0  0  0  0  0  0  0  0
   -4.3408   11.5827   -6.7043 H   0  0  0  0  0  0  0  0  0  0  0  0
   -7.2455    6.9066   -6.7359 H   0  0  0  0  0  0  0  0  0  0  0  0
   -9.4045    6.3169   -7.3934 H   0  0  0  0  0  0  0  0  0  0  0  0
  -10.8340    6.5922   -6.3665 H   0  0  0  0  0  0  0  0  0  0  0  0
   -9.2343    6.3505   -5.6185 H   0  0  0  0  0  0  0  0  0  0  0  0
  -10.6964   12.3750   -6.3339 H   0  0  0  0  0  0  0  0  0  0  0  0
   -9.1103   12.5167   -5.5344 H   0  0  0  0  0  0  0  0  0  0  0  0
   -9.2256   12.5997   -7.3148 H   0  0  0  0  0  0  0  0  0  0  0  0
   -7.0979   11.8861   -6.5843 H   0  0  0  0  0  0  0  0  0  0  0  0
  1  2  2  0  0  0  0
  2  3  1  0  0  0  0
  3  4  2  0  0  0  0
  4  5  1  0  0  0  0
  5  6  2  0  0  0  0
  6  7  1  0  0  0  0
  7  8  2  0  0  0  0
  8  9  1  0  0  0  0
  9 10  1  0  0  0  0
 10 11  1  0  0  0  0
  8 12  1  0  0  0  0
 12 13  1  0  0  0  0
 12 14  2  0  0  0  0
  4 15  1  0  0  0  0
 15 16  2  0  0  0  0
 16 17  1  0  0  0  0
 17 18  1  0  0  0  0
 18 19  2  0  0  0  0
 19 20  1  0  0  0  0
 20 21  2  0  0  0  0
 21 22  1  0  0  0  0
 22 23  1  0  0  0  0
 23 24  1  0  0  0  0
 21 25  1  0  0  0  0
 25 26  2  0  0  0  0
 25 27  1  0  0  0  0
 17 28  2  0  0  0  0
 28 29  1  0  0  0  0
 16 30  1  0  0  0  0
 30 31  2  0  0  0  0
 31 32  1  0  0  0  0
 31 33  1  0  0  0  0
 33 34  1  0  0  0  0
 34 35  1  0  0  0  0
 35 36  2  0  0  0  0
 36 37  1  0  0  0  0
 37 38  1  0  0  0  0
 38 39  2  0  0  0  0
 39 40  1  0  0  0  0
 40 41  1  0  0  0  0
 39 42  1  0  0  0  0
 42 43  1  0  0  0  0
 43 44  1  0  0  0  0
 42 45  2  0  0  0  0
 35 46  1  0  0  0  0
 46 47  2  0  0  0  0
 47 48  1  0  0  0  0
 48 49  2  0  0  0  0
 49 50  1  0  0  0  0
 50 51  2  0  0  0  0
 51 52  1  0  0  0  0
 52 53  2  0  0  0  0
 53 54  1  0  0  0  0
 54 55  1  0  0  0  0
 55 56  1  0  0  0  0
 53 57  1  0  0  0  0
 57 58  1  0  0  0  0
 57 59  2  0  0  0  0
 49 60  1  0  0  0  0
 60 61  2  0  0  0  0
 61 62  1  0  0  0  0
 62 63  1  0  0  0  0
 63 64  2  0  0  0  0
 64 65  1  0  0  0  0
 65 66  2  0  0  0  0
 66 67  1  0  0  0  0
 67 68  1  0  0  0  0
 68 69  1  0  0  0  0
 66 70  1  0  0  0  0
 70 71  2  0  0  0  0
 70 72  1  0  0  0  0
 62 73  2  0  0  0  0
 73 74  1  0  0  0  0
 61 75  1  0  0  0  0
 75 76  2  0  0  0  0
 76 77  1  0  0  0  0
 76 78  1  0  0  0  0
 78 79  1  0  0  0  0
 79 80  1  0  0  0  0
 80 81  2  0  0  0  0
 81 82  1  0  0  0  0
 82 83  1  0  0  0  0
 83 84  2  0  0  0  0
 84 85  1  0  0  0  0
 85 86  1  0  0  0  0
 84 87  1  0  0  0  0
 87 88  1  0  0  0  0
 88 89  1  0  0  0  0
 87 90  2  0  0  0  0
 80 91  1  0  0  0  0
 91 92  1  0  0  0  0
 92 93  1  0  0  0  0
 93 94  2  0  0  0  0
 94 95  1  0  0  0  0
 95 96  1  0  0  0  0
 96 97  2  0  0  0  0
 97 98  1  0  0  0  0
 98 99  1  0  0  0  0
 97100  1  0  0  0  0
100101  1  0  0  0  0
101102  1  0  0  0  0
100103  2  0  0  0  0
 93104  1  0  0  0  0
104105  1  0  0  0  0
105106  1  0  0  0  0
106107  2  0  0  0  0
107108  1  0  0  0  0
108109  1  0  0  0  0
109110  2  0  0  0  0
110111  1  0  0  0  0
111112  1  0  0  0  0
110113  1  0  0  0  0
113114  1  0  0  0  0
114115  1  0  0  0  0
113116  2  0  0  0  0
 29  1  1  0  0  0  0
 37 33  2  0  0  0  0
 74 46  1  0  0  0  0
 82 78  2  0  0  0  0
 95 91  2  0  0  0  0
108104  2  0  0  0  0
 28  3  1  0  0  0  0
 45 36  1  0  0  0  0
 73 48  1  0  0  0  0
 90 81  1  0  0  0  0
103 94  1  0  0  0  0
116107  1  0  0  0  0
 14  5  1  0  0  0  0
 32 15  1  0  0  0  0
 59 50  1  0  0  0  0
 77 60  1  0  0  0  0
 26 18  1  0  0  0  0
 71 63  1  0  0  0  0
  1117  1  0  0  0  0
  2118  1  0  0  0  0
  6119  1  0  0  0  0
  7120  1  0  0  0  0
 10121  1  0  0  0  0
 10122  1  0  0  0  0
 11123  1  0  0  0  0
 11124  1  0  0  0  0
 11125  1  0  0  0  0
 14126  1  0  0  0  0
 19127  1  0  0  0  0
 20128  1  0  0  0  0
 23129  1  0  0  0  0
 23130  1  0  0  0  0
 24131  1  0  0  0  0
 24132  1  0  0  0  0
 24133  1  0  0  0  0
 26134  1  0  0  0  0
 30135  1  0  0  0  0
 38136  1  0  0  0  0
 41137  1  0  0  0  0
 41138  1  0  0  0  0
 41139  1  0  0  0  0
 44140  1  0  0  0  0
 44141  1  0  0  0  0
 44142  1  0  0  0  0
 45143  1  0  0  0  0
 47144  1  0  0  0  0
 51145  1  0  0  0  0
 52146  1  0  0  0  0
 55147  1  0  0  0  0
 55148  1  0  0  0  0
 56149  1  0  0  0  0
 56150  1  0  0  0  0
 56151  1  0  0  0  0
 59152  1  0  0  0  0
 64153  1  0  0  0  0
 65154  1  0  0  0  0
 68155  1  0  0  0  0
 68156  1  0  0  0  0
 69157  1  0  0  0  0
 69158  1  0  0  0  0
 69159  1  0  0  0  0
 71160  1  0  0  0  0
 75161  1  0  0  0  0
 83162  1  0  0  0  0
 86163  1  0  0  0  0
 86164  1  0  0  0  0
 86165  1  0  0  0  0
 89166  1  0  0  0  0
 89167  1  0  0  0  0
 89168  1  0  0  0  0
 90169  1  0  0  0  0
 96170  1  0  0  0  0
 99171  1  0  0  0  0
 99172  1  0  0  0  0
 99173  1  0  0  0  0
102174  1  0  0  0  0
102175  1  0  0  0  0
102176  1  0  0  0  0
103177  1  0  0  0  0
106178  1  0  0  0  0
109179  1  0  0  0  0
112180  1  0  0  0  0
112181  1  0  0  0  0
112182  1  0  0  0  0
115183  1  0  0  0  0
115184  1  0  0  0  0
115185  1  0  0  0  0
116186  1  0  0  0  0
M  END
