191

C          6.70780      -11.35670        7.98350
C          5.82280      -10.96580        8.92310
C          4.80890      -10.10840        8.40590
C          3.76700       -9.47310        9.10360
C          3.52850       -9.72950       10.51430
S          3.39190       -8.42970       11.66160
C          3.11890       -9.51710       12.98070
C          2.96290       -9.01390       14.37320
C          4.32590       -8.72980       15.00880
C          3.13830      -10.80690       12.54190
Cl         2.90120      -12.16860       13.55970
C          3.36410      -10.93140       11.14430
Cl         3.34520      -12.44750       10.33850
C          2.98050       -8.58570        8.38510
C          3.15870       -8.33830        7.00340
C          4.18260       -8.99450        6.29700
C          4.40060       -8.72090        4.88690
S          4.57820       -7.08360        4.32210
C          4.77230       -7.58410        2.67640
C          4.93070       -6.57820        1.58970
C          3.65280       -5.75760        1.40320
C          4.70650       -8.94180        2.58790
C          4.50240       -9.59010        3.83730
Cl         4.31350      -11.28800        3.96900
Cl         4.84940       -9.81610        1.11790
C          4.98760       -9.86520        7.02270
S          6.37780      -10.71590        6.41190
C          2.20760       -7.42190        6.50580
C          1.34030       -6.94090        7.45050
S          1.65310       -7.65540        9.02370
C          0.33880       -5.96690        7.21320
S          0.11900       -5.41840        5.57820
C         -1.09990       -4.27050        6.02970
C         -1.29770       -4.28440        7.41350
C         -0.50580       -5.26830        8.08010
C         -0.61190       -5.40820        9.48030
C         -1.42520       -4.57460       10.19590
O         -1.60300       -4.61940       11.53720
C         -0.89970       -5.59380       12.26980
C         -2.15210       -3.52270        9.53210
O         -2.86450       -2.72160       10.36380
C         -3.53400       -1.61500        9.81270
C         -2.08230       -3.38910        8.17430
C         -1.67700       -3.45780        5.02200
S         -0.70110       -2.98290        3.67040
C         -1.96340       -2.01270        2.98250
C         -3.12590       -2.09330        3.75800
C         -2.96860       -2.93580        4.90020
C         -4.08640       -3.23900        5.70870
C         -5.29410       -2.65200        5.45730
O         -6.43360       -2.86570        6.16210
C         -6.40920       -3.81870        7.19520
C         -5.43630       -1.73690        4.35500
O         -6.67250       -1.19700        4.22930
C         -6.89680       -0.27070        3.19470
C         -4.38310       -1.49840        3.51620
C         -1.68010       -1.29260        1.79300
C         -2.33230       -0.23320        1.22430
C         -1.71920        0.25440        0.04870
C         -2.11900        1.34580       -0.74560
C         -3.27400        2.14890       -0.38170
S         -4.57550        2.41060       -1.50570
C         -5.49020        3.32340       -0.35530
C         -6.84820        3.83820       -0.68230
C         -7.91410        2.77080       -0.42190
C         -4.81440        3.41100        0.82490
Cl        -5.41070        4.23040        2.21150
C         -3.55480        2.75460        0.81190
Cl        -2.47830        2.80310        2.15100
C         -1.37830        1.59600       -1.89080
C         -0.25350        0.82190       -2.26680
C          0.18350       -0.23030       -1.43940
C          1.38650       -0.98200       -1.75240
S          1.39450       -2.72030       -1.78450
C          3.07280       -2.78480       -2.19860
C          3.76080       -4.08160       -2.45060
C          3.75630       -4.42310       -3.94260
C          3.58370       -1.52550       -2.30640
C          2.63340       -0.50270       -2.04890
Cl         3.05780        1.16200       -2.02430
Cl         5.22190       -1.18730       -2.69980
C         -0.57350       -0.49750       -0.30840
S         -0.25590       -1.74500        0.86100
C          0.29510        1.24470       -3.49880
C         -0.31630        2.34790       -4.02840
S         -1.66480        2.87880       -3.02910
C         -0.01920        3.07270       -5.21340
S         -1.22140        4.13230       -5.86950
C         -0.20110        4.62370       -7.17820
C          1.03050        3.96410       -7.12290
C          1.14540        3.10270       -5.98860
C          2.36770        2.43800       -5.74870
C          3.40440        2.55780       -6.63170
O          4.61590        1.97050       -6.49950
C          4.84410        1.15290       -5.37710
C          3.25100        3.34690       -7.82760
O          4.32810        3.33910       -8.64590
C          4.28660        4.12600       -9.81170
C          2.09230        4.03670       -8.05100
C         -0.67080        5.60560       -8.09240
C          0.04160        6.44550       -8.90170
C         -0.76520        7.31350       -9.67510
C         -0.34890        8.24990      -10.63560
C          1.04860        8.35090      -11.01960
S          1.89600        9.86800      -11.01550
C          3.37040        9.13650      -11.55140
C          4.58280        9.95780      -11.81890
C          4.49500       10.62650      -13.19280
C          3.19760        7.79630      -11.72960
Cl         4.43300        6.73030      -12.26950
C          1.88560        7.34730      -11.42380
Cl         1.39750        5.71440      -11.63780
C         -1.33470        9.03930      -11.21600
C         -2.70780        8.90500      -10.90770
C         -3.12760        7.94620       -9.97060
C         -4.53260        7.77160       -9.63490
S         -5.72300        7.44590      -10.86000
C         -7.00460        7.34350       -9.70120
C         -8.41390        7.11520      -10.12390
C         -9.08800        8.43260      -10.51480
C         -6.52330        7.56300       -8.44580
C         -5.12260        7.79970       -8.40220
Cl        -4.29950        8.16440       -6.94420
Cl        -7.49750        7.55380       -7.03380
C         -2.14310        7.16710       -9.37860
S         -2.40040        5.89000       -8.22730
C         -3.50280        9.83440      -11.64050
C         -2.77350       10.60900      -12.46870
S         -1.07690       10.27310      -12.41760
H          7.55940      -11.99680        8.10650
H          5.88590      -11.25370        9.95600
H          2.43450       -9.76730       14.96000
H          2.36970       -8.09760       14.36290
H          4.19610       -8.36100       16.02260
H          4.86220       -7.98180       14.42990
H          4.92260       -9.63780       15.04210
H          5.17680       -7.10290        0.66520
H          5.75530       -5.90540        1.83690
H          3.79750       -5.00870        0.62920
H          2.82600       -6.40230        1.11600
H          3.39040       -5.25140        2.32910
H          2.15900       -7.11100        5.47840
H         -0.03460       -6.17130        9.97160
H         -1.18770       -5.44280       13.30870
H          0.18310       -5.46880       12.16840
H         -1.17520       -6.60650       11.95820
H         -2.83820       -0.92940        9.31860
H         -4.00670       -1.10900       10.65260
H         -4.30400       -1.92060        9.09570
H         -2.58750       -2.58740        7.66350
H         -3.96690       -3.96200        6.49770
H         -6.14130       -4.81150        6.81980
H         -5.71140       -3.53790        7.99190
H         -7.42080       -3.84370        7.59640
H         -6.77630       -0.73030        2.20790
H         -7.92770        0.05820        3.31450
H         -6.22850        0.59300        3.27650
H         -4.51050       -0.87680        2.64940
H         -3.20860        0.21920        1.64300
H         -6.87910        4.13490       -1.73190
H         -7.05060        4.71470       -0.06400
H         -8.89880        3.15940       -0.66620
H         -7.72340        1.89190       -1.03340
H         -7.90480        2.47580        0.62470
H          3.25310       -4.87160       -1.89560
H          4.79240       -4.00930       -2.09920
H          2.73550       -4.49790       -4.30940
H          4.25730       -5.37290       -4.10870
H          4.27430       -3.65260       -4.50780
H          1.07620        0.70320       -3.99550
H          2.48280        1.86540       -4.84710
H          5.86390        0.78670       -5.48120
H          4.75480        1.71480       -4.44250
H          4.15490        0.30240       -5.35420
H          3.49010        3.80370      -10.48940
H          5.25090        3.98640      -10.29690
H          4.15120        5.18590       -9.57390
H          1.96040        4.61380       -8.94820
H          1.11290        6.50050       -8.90070
H          4.67860       10.72510      -11.04860
H          5.46050        9.31030      -11.78010
H          3.62120       11.27180      -13.24200
H          4.41600        9.87440      -13.97380
H          5.38350       11.22520      -13.37380
H         -8.43200        6.43150      -10.97430
H         -8.95740        6.65870       -9.29470
H         -9.08740        9.12000       -9.67270
H         -8.55810        8.89620      -11.34360
H        -10.11610        8.25100      -10.81590
H         -4.56970        9.91000      -11.53960
H         -3.12150       11.38170      -13.12570
