108

C          6.56050        5.45870       -4.18730
S          4.91370        5.71960       -4.55090
C          4.37930        4.45110       -3.48650
C          5.48950        3.85250       -2.86740
C          6.73430        4.44110       -3.27370
C          7.95030        3.97490       -2.73470
C          7.94220        2.96730       -1.80360
O          9.15890        2.57330       -1.32670
C          9.21510        1.56680       -0.34620
C          6.71190        2.40550       -1.38120
C          5.52220        2.83340       -1.89810
C          3.00960        4.12020       -3.37500
S          2.52650        2.52220       -2.88470
C          0.83250        2.86190       -3.04760
C          0.64340        4.20330       -3.41400
C          1.87080        4.90590       -3.63300
C          1.82640        6.26390       -3.98390
C          0.61950        6.91860       -4.08960
O          0.68560        8.23480       -4.44020
C         -0.50520        8.97470       -4.54300
C         -0.58460        6.23670       -3.80700
C         -0.56960        4.91360       -3.46620
C         -0.10920        1.85090       -2.75830
S          0.26960        0.65660       -1.54860
C         -1.29890       -0.08450       -1.65630
C         -2.05310        0.51540       -2.67370
C         -1.37700        1.60340       -3.30570
C         -1.94510        2.22520       -4.43640
C         -3.17140        1.81090       -4.88920
O         -3.82880        2.33860       -5.95900
C         -3.22280        3.39800       -6.65710
C         -3.84400        0.73380       -4.25570
C         -3.29440        0.08710       -3.19170
C         -1.63340       -1.13090       -0.76760
S         -0.41440       -2.27330       -0.28370
C         -1.49570       -3.13350        0.78120
C         -2.76420       -2.52750        0.75800
C         -2.83630       -1.39590       -0.10400
C         -4.01300       -0.61740       -0.14230
C         -5.10910       -0.99520        0.58140
O         -6.29110       -0.32850        0.62050
C         -6.41770        0.84220       -0.14680
C         -5.06880       -2.18960        1.37990
O         -6.23020       -2.47850        2.01930
C         -6.26060       -3.59800        2.87000
C         -3.91780       -2.92380        1.46550
C         -1.02860       -4.19490        1.58190
S         -1.80720       -4.58020        3.09160
C         -0.62960       -5.78100        3.53060
C          0.33340       -5.89460        2.51340
C          0.10850       -5.00660        1.41780
C          0.96110       -5.03780        0.29840
C          2.04010       -5.88530        0.28840
O          2.92700       -6.00940       -0.73480
C          2.73670       -5.21940       -1.88360
C          2.30300       -6.71390        1.40730
C          1.47250       -6.72610        2.48560
C         -0.76740       -6.50620        4.73510
S         -0.03040       -8.07350        4.93440
C         -0.67600       -8.28320        6.49760
C         -1.43460       -7.20310        6.89170
C         -1.49850       -6.17590        5.89060
C         -2.20140       -4.99640        6.17910
C         -2.83710       -4.84320        7.39060
O         -3.48590       -3.65650        7.57120
C         -4.11900       -3.40120        8.80030
C         -2.79440       -5.87310        8.36230
C         -2.10520       -7.02310        8.12180
H          7.30980        6.06610       -4.65270
H          8.88510        4.41340       -3.04400
H          8.80430        0.62000       -0.71200
H         10.27320        1.43480       -0.12430
H          8.69110        1.86260        0.56880
H          6.70300        1.62780       -0.63460
H          4.60470        2.39150       -1.54390
H          2.72740        6.82840       -4.15110
H         -0.20140        9.97690       -4.84200
H         -1.03200        9.03090       -3.58450
H         -1.17550        8.56110       -5.30400
H         -1.52620        6.76220       -3.83200
H         -1.48830        4.41460       -3.20030
H         -1.37880        2.98620       -4.94610
H         -3.92670        3.67800       -7.43920
H         -3.04220        4.25850       -6.00420
H         -2.27710        3.08920       -7.11420
H         -4.78750        0.42320       -4.67570
H         -3.78100       -0.77380       -2.76070
H         -4.01440        0.28360       -0.73140
H         -5.71090        1.61380        0.17650
H         -6.26930        0.64370       -1.21360
H         -7.43510        1.19300        0.01810
H         -5.52790       -3.50890        3.67880
H         -7.26460       -3.61890        3.29050
H         -6.07880       -4.52700        2.31960
H         -3.88200       -3.81450        2.06740
H          0.74360       -4.40230       -0.54210
H          1.78170       -5.44340       -2.36980
H          2.78020       -4.15120       -1.64820
H          3.55300       -5.47590       -2.55680
H          3.17880       -7.34160        1.36870
H          1.69360       -7.36690        3.32300
H         -0.46070       -9.17720        7.04740
H         -2.24580       -4.18120        5.47740
H         -3.40960       -3.42490        9.63410
H         -4.53260       -2.39760        8.71220
H         -4.93260       -4.10850        8.99280
H         -3.30060       -5.74710        9.30620
H         -2.05720       -7.80480        8.86480
