88

C          4.38390       -0.38030        9.27520
O          4.65920       -0.12060        7.99210
C          5.99880       -0.07410        7.83130
C          6.59180       -0.31520        9.06100
C          5.54490       -0.51070        9.98610
F          5.65770       -0.77000       11.28650
F          7.90180       -0.35130        9.30440
C          6.67100        0.17220        6.59460
C          6.17550        0.43370        5.36490
C          4.82700        0.56280        4.92610
O          3.74410        0.46640        5.72520
C          2.62250        0.64670        4.99600
C          2.99060        0.86910        3.67350
C          4.38820        0.81620        3.63120
F          5.16880        0.97500        2.56050
F          2.16830        1.09360        2.64390
C          1.36120        0.58490        5.64990
C          0.17750        0.75070        5.01610
C         -1.09740        0.69960        5.63700
O         -2.18970        0.91160        4.86900
C         -3.30160        0.82310        5.62250
C         -2.91550        0.54350        6.93260
C         -1.51950        0.46630        6.94160
F         -0.73210        0.21470        7.98980
F         -3.74120        0.38360        7.96870
C         -4.62230        1.00950        5.13240
C         -5.04920        1.28250        3.87250
C         -4.31810        1.43170        2.66630
O         -2.98320        1.25340        2.54270
C         -2.60750        1.45000        1.25850
C         -3.73850        1.79800        0.52540
C         -4.81810        1.77600        1.41380
F         -6.09450        2.04990        1.13840
F         -3.77950        2.16610       -0.75690
C         -1.21090        1.40100        0.97940
C         -0.55850        1.11610       -0.17740
C         -1.03040        0.56060       -1.38540
S         -2.55950       -0.24900       -1.54780
C         -2.23880       -0.73910       -3.17280
C         -0.99720       -0.25690       -3.60110
C         -0.30040        0.44980       -2.58130
C          0.97560        0.98150       -2.85790
C          1.52510        0.83880       -4.10360
O          2.74540        1.29040       -4.47970
C          3.53420        1.96160       -3.52790
C          0.78430        0.19050       -5.15390
O          1.41520        0.16930       -6.35660
C          0.73570       -0.38890       -7.45310
C         -0.45050       -0.33600       -4.90120
C         -3.19050       -1.50880       -3.89770
S         -4.89150       -1.19380       -3.72090
C         -5.30400       -2.37230       -4.88530
C         -4.19850       -3.01960       -5.38740
C         -2.97910       -2.54330       -4.80790
C         -1.76250       -3.18910       -5.12830
C         -1.74920       -4.19620       -6.04950
O         -0.64720       -4.88640       -6.44010
C          0.57770       -4.59630       -5.81500
C         -2.96940       -4.61950       -6.69770
O         -2.79370       -5.60610       -7.61270
C         -3.92700       -6.10010       -8.28130
C         -4.16180       -4.05490       -6.35550
H          3.35680       -0.45060        9.57090
H          7.74650        0.13250        6.69900
H          6.88610        0.57620        4.56230
H          1.40730        0.39430        6.71110
H          0.14120        0.93760        3.95370
H         -5.37240        0.92480        5.90590
H         -6.11330        1.41340        3.73030
H         -0.60410        1.62660        1.84510
H          0.51140        1.28040       -0.15770
H          1.50290        1.50610       -2.07920
H          3.04680        2.87680       -3.17650
H          4.45830        2.21990       -4.04200
H          3.76310        1.32020       -2.67070
H         -0.19510        0.14730       -7.66450
H          1.41180       -0.28850       -8.30030
H          0.50910       -1.44910       -7.29470
H         -1.03680       -0.79400       -5.67930
H         -6.33270       -2.53030       -5.14010
H         -0.86580       -2.88360       -4.61600
H          0.53080       -4.77660       -4.73610
H          0.88950       -3.56080       -5.99100
H          1.30420       -5.27150       -6.26390
H         -4.64090       -6.54950       -7.58320
H         -4.42870       -5.31420       -8.85560
H         -3.55740       -6.86510       -8.96200
H         -5.09210       -4.37630       -6.79400
