191

C          4.63930      -10.03980       13.20800
S          3.98450       -9.76470       11.65740
C          4.69760       -8.17970       11.55430
C          5.41440       -7.89320       12.71630
C          5.37480       -8.96970       13.66120
C          6.04670       -8.85130       14.90390
C          6.71960       -7.70460       15.20290
O          7.39910       -7.46050       16.35060
C          7.42520       -8.46510       17.33330
C          6.74560       -6.61030       14.25950
O          7.43160       -5.52540       14.68730
C          7.49670       -4.40020       13.84380
C          6.11250       -6.71350       13.05330
C          4.46600       -7.40280       10.38830
C          3.59710       -7.69840        9.37210
C          3.54880       -6.72430        8.35020
C          2.77370       -6.73130        7.17580
C          1.79430       -7.77350        6.92360
S          1.76920       -8.65200        5.42360
C          0.39990       -9.59350        5.90730
C         -0.21730      -10.58260        4.98160
C         -1.12890       -9.88330        3.97050
C         -0.00780       -9.22980        7.15570
Cl        -1.34540       -9.93250        7.96960
C          0.78240       -8.20250        7.73760
Cl         0.42520       -7.52420        9.27340
C          2.97680       -5.69010        6.27980
C          3.88500       -4.63210        6.52210
C          4.64200       -4.60680        7.70920
C          5.59810       -3.54110        7.95630
S          6.77240       -3.11730        6.74240
C          7.45960       -1.86690        7.72180
C          8.55340       -1.00440        7.19620
C          8.05780       -0.13380        6.03950
C          6.81370       -1.80140        8.91940
C          5.76280       -2.74930        9.05850
Cl         4.75830       -2.79080       10.44630
Cl         7.20700       -0.68740       10.16560
C          4.45090       -5.65760        8.59340
S          5.30370       -5.89120       10.08910
C          3.85920       -3.66920        5.48740
C          2.99100       -3.96990        4.48000
S          2.13690       -5.47230        4.76760
C          2.75240       -3.19360        3.31110
C          1.91780       -3.45630        2.26560
C          1.92020       -2.44460        1.27500
C          1.14910       -2.37110        0.10200
C          0.18660       -3.40010       -0.25540
S         -1.05520       -3.89920        0.85610
C         -1.76480       -4.97820       -0.29580
C         -3.00400       -5.74010        0.02060
C         -4.24670       -4.87420       -0.20100
C         -1.06920       -4.94250       -1.46670
Cl        -1.46770       -5.88210       -2.84590
C          0.03840       -4.05280       -1.44790
Cl         1.11150       -3.89920       -2.77460
C          1.29630       -1.23260       -0.67760
C          2.18230       -0.17350       -0.35650
C          2.98820       -0.26820        0.79310
C          3.91250        0.78360        1.18390
S          3.38890        2.43610        1.35110
C          4.94190        2.95930        1.91450
C          5.19800        4.38700        2.25140
C          5.17240        5.26950        1.00270
C          5.80630        1.90760        1.95000
C          5.22840        0.67500        1.53990
Cl         6.14870       -0.76680        1.42960
Cl         7.44260        2.02420        2.45340
C          2.82490       -1.39890        1.58510
S          3.61140       -1.68030        3.10970
C          2.08910        0.89640       -1.27690
C          1.15170        0.70370       -2.25610
S          0.36560       -0.85980       -2.09430
C          0.68380        1.56400       -3.28480
S         -0.81170        1.13960       -4.05210
C         -0.84760        2.58970       -4.99910
C          0.28710        3.36500       -4.74900
C          1.16670        2.77660       -3.78750
C          2.38140        3.42600       -3.47990
C          2.69160        4.62240       -4.06480
O          3.82590        5.32990       -3.84680
C          4.78050        4.80460       -2.95800
C          1.78560        5.23100       -5.00450
O          2.20430        6.41950       -5.49900
C          1.37760        7.08220       -6.42510
C          0.62090        4.60090       -5.34130
C         -1.98590        2.80700       -5.81700
C         -2.95150        1.87090       -6.07360
C         -4.04950        2.35590       -6.81420
C         -5.18960        1.64580       -7.24000
C         -5.33890        0.23140       -6.94270
S         -5.15710       -0.37690       -5.32210
C         -5.42360       -2.01380       -5.81710
C         -5.32190       -3.13380       -4.84140
C         -3.86880       -3.36110       -4.41790
C         -5.64770       -2.06810       -7.15980
Cl        -5.94610       -3.51940       -8.02570
C         -5.60770       -0.79920       -7.80000
Cl        -5.78440       -0.62340       -9.49490
C         -6.15340        2.36430       -7.93250
C         -6.01580        3.74270       -8.23290
C         -4.83840        4.43010       -7.87970
C         -4.63710        5.81120       -8.27760
S         -4.13580        7.03330       -7.14640
C         -4.14420        8.27090       -8.35670
C         -3.83780        9.68770       -8.01700
C         -5.09810       10.42470       -7.55700
C         -4.51870        7.75350       -9.56060
C         -4.79250        6.36090       -9.52130
Cl        -5.18630        5.46190      -10.93120
Cl        -4.63790        8.67670      -11.00530
C         -3.89650        3.72280       -7.14780
S         -2.38730        4.35340       -6.54590
C         -7.17990        4.27630       -8.82950
C         -8.17100        3.35620       -9.03180
S         -7.69990        1.76460       -8.45510
C         -9.46040        3.54690       -9.60070
S        -10.73510        2.42450       -9.23620
C        -11.87340        3.30800      -10.14710
C        -11.31950        4.42160      -10.73600
C         -9.92510        4.56190      -10.43840
C         -9.20350        5.62280      -11.02930
C         -9.84520        6.52940      -11.82500
O         -9.25820        7.58590      -12.43530
C         -7.88450        7.80180      -12.22200
C        -11.26240        6.41430      -12.08090
O        -11.76260        7.39740      -12.87040
C        -13.13190        7.36340      -13.18480
C        -11.97130        5.37460      -11.55830
H          4.44910      -10.96890       13.70720
H          6.00080       -9.68230       15.58840
H          7.89830       -9.37950       16.96010
H          6.41830       -8.70020       17.69390
H          8.01700       -8.06060       18.15260
H          6.50090       -3.99850       13.63170
H          8.07750       -3.65830       14.38900
H          7.99850       -4.63410       12.89950
H          6.13040       -5.89600       12.35490
H          3.01200       -8.59980        9.36330
H         -0.79730      -11.29740        5.56780
H          0.56830      -11.12130        4.44870
H         -0.55940       -9.16540        3.38500
H         -1.92760       -9.35580        4.48590
H         -1.57030      -10.61340        3.29750
H          9.37680       -1.63140        6.84630
H          8.91880       -0.37370        8.00820
H          7.70310       -0.75710        5.22180
H          8.86410        0.49570        5.67280
H          7.24080        0.50420        6.36790
H          4.45260       -2.77320        5.48190
H          1.31870       -4.34730        2.21470
H         -3.04890       -6.61860       -0.62560
H         -2.97270       -6.07040        1.06030
H         -5.14410       -5.44450        0.02260
H         -4.29400       -4.53920       -1.23400
H         -4.21690       -4.00020        0.44510
H          4.43730        4.73670        2.95320
H          6.17360        4.45620        2.73490
H          5.92540        4.93960        0.29080
H          4.19400        5.22030        0.53000
H          5.37630        6.30250        1.27050
H          2.66230        1.79660       -1.17170
H          3.06730        2.95190       -2.80150
H          4.36600        4.67920       -1.95260
H          5.17300        3.84510       -3.31070
H          5.58680        5.53520       -2.92750
H          1.24420        6.49260       -7.33770
H          0.39590        7.30850       -5.99640
H          1.89260        8.01040       -6.66600
H         -0.05350        5.02760       -6.06310
H         -2.86470        0.85760       -5.72710
H         -5.92410       -2.90640       -3.95890
H         -5.71680       -4.03700       -5.30940
H         -3.80470       -4.20550       -3.73700
H         -3.25080       -3.57360       -5.28670
H         -3.47430       -2.47830       -3.91950
H         -3.09030        9.71540       -7.22270
H         -3.42960       10.18050       -8.90150
H         -4.85970       11.45680       -7.31510
H         -5.84790       10.41600       -8.34400
H         -5.51400        9.94540       -6.67410
H         -7.30070        5.32390       -9.02610
H        -12.88870        2.97010      -10.20350
H         -8.14180        5.68540      -10.87280
H         -7.63660        8.70290      -12.78020
H         -7.28100        6.96830      -12.59410
H         -7.66460        7.96060      -11.16120
H        -13.39480        6.45530      -13.73740
H        -13.31170        8.23360      -13.81390
H        -13.75190        7.43120      -12.28450
H        -13.02380        5.24620      -11.75060
