
  xtb     03042215133D
 energy: -199.911865050012 gnorm: 0.000560478616 xtb: 6.4.1 (unknown)
124135  0     0  0            999 V2000
    1.9397    3.2272   -0.3830 C   0  0  0  0  0  0  0  0  0  0  0  0
    1.4833    2.7153    0.8113 C   0  0  0  0  0  0  0  0  0  0  0  0
    2.4201    1.6884    1.2567 C   0  0  0  0  0  0  0  0  0  0  0  0
    3.3880    1.5774    0.3282 C   0  0  0  0  0  0  0  0  0  0  0  0
    3.1098    2.5172   -0.7551 C   0  0  0  0  0  0  0  0  0  0  0  0
    3.8190    2.5961   -1.9369 C   0  0  0  0  0  0  0  0  0  0  0  0
    3.5391    3.5046   -3.0374 C   0  0  0  0  0  0  0  0  0  0  0  0
    4.3843    3.2196   -4.0513 C   0  0  0  0  0  0  0  0  0  0  0  0
    5.2427    2.1258   -3.6328 C   0  0  0  0  0  0  0  0  0  0  0  0
    4.8998    1.7645   -2.3615 C   0  0  0  0  0  0  0  0  0  0  0  0
    6.1685    1.5303   -4.4695 N   0  0  0  0  0  0  0  0  0  0  0  0
    0.3772    3.0900    1.4929 N   0  0  0  0  0  0  0  0  0  0  0  0
   -0.2175    2.3827    2.5302 C   0  0  0  0  0  0  0  0  0  0  0  0
   -0.4632    1.0079    2.5608 C   0  0  0  0  0  0  0  0  0  0  0  0
   -1.1373    0.7136    3.8128 C   0  0  0  0  0  0  0  0  0  0  0  0
   -1.3337    1.8689    4.4804 C   0  0  0  0  0  0  0  0  0  0  0  0
   -0.7710    2.9664    3.7117 C   0  0  0  0  0  0  0  0  0  0  0  0
   -0.7599    4.2850    4.1293 C   0  0  0  0  0  0  0  0  0  0  0  0
   -0.0433    5.3999    3.5237 C   0  0  0  0  0  0  0  0  0  0  0  0
   -0.2979    6.5126    4.2431 C   0  0  0  0  0  0  0  0  0  0  0  0
   -1.1967    6.1586    5.3285 C   0  0  0  0  0  0  0  0  0  0  0  0
   -1.4543    4.8172    5.2567 C   0  0  0  0  0  0  0  0  0  0  0  0
   -1.6127    7.0560    6.2772 N   0  0  0  0  0  0  0  0  0  0  0  0
   -0.1494    0.0864    1.6181 N   0  0  0  0  0  0  0  0  0  0  0  0
   -0.6860   -1.1776    1.5473 C   0  0  0  0  0  0  0  0  0  0  0  0
   -2.0080   -1.5279    1.8649 C   0  0  0  0  0  0  0  0  0  0  0  0
   -2.0888   -2.9684    1.8638 C   0  0  0  0  0  0  0  0  0  0  0  0
   -0.8809   -3.4723    1.5235 C   0  0  0  0  0  0  0  0  0  0  0  0
    0.0184   -2.3830    1.1993 C   0  0  0  0  0  0  0  0  0  0  0  0
    1.2279   -2.5631    0.5567 C   0  0  0  0  0  0  0  0  0  0  0  0
    2.0323   -1.5640   -0.1362 C   0  0  0  0  0  0  0  0  0  0  0  0
    3.0831   -2.1827   -0.7104 C   0  0  0  0  0  0  0  0  0  0  0  0
    3.0191   -3.5956   -0.3757 C   0  0  0  0  0  0  0  0  0  0  0  0
    1.8893   -3.8151    0.3608 C   0  0  0  0  0  0  0  0  0  0  0  0
    3.9328   -4.5201   -0.8260 N   0  0  0  0  0  0  0  0  0  0  0  0
   -3.0308   -0.6565    2.0424 N   0  0  0  0  0  0  0  0  0  0  0  0
   -4.3760   -0.8532    1.9048 C   0  0  0  0  0  0  0  0  0  0  0  0
   -5.0831   -1.8759    1.2754 C   0  0  0  0  0  0  0  0  0  0  0  0
   -6.4582   -1.7693    1.6658 C   0  0  0  0  0  0  0  0  0  0  0  0
   -6.6080   -0.7068    2.5009 C   0  0  0  0  0  0  0  0  0  0  0  0
   -5.3438   -0.0343    2.6241 C   0  0  0  0  0  0  0  0  0  0  0  0
   -5.1651    1.1983    3.2197 C   0  0  0  0  0  0  0  0  0  0  0  0
   -4.1002    2.1687    2.9605 C   0  0  0  0  0  0  0  0  0  0  0  0
   -4.3504    3.2779    3.6814 C   0  0  0  0  0  0  0  0  0  0  0  0
   -5.5533    3.0491    4.4689 C   0  0  0  0  0  0  0  0  0  0  0  0
   -6.0501    1.8147    4.1527 C   0  0  0  0  0  0  0  0  0  0  0  0
   -6.0800    3.9889    5.3089 N   0  0  0  0  0  0  0  0  0  0  0  0
   -4.6441   -2.8048    0.3555 N   0  0  0  0  0  0  0  0  0  0  0  0
   -3.5579   -2.6550   -0.4489 C   0  0  0  0  0  0  0  0  0  0  0  0
   -3.0079   -1.0875   -0.9539 S   0  0  0  0  0  0  0  0  0  0  0  0
   -1.6165   -1.7561   -1.7682 C   0  0  0  0  0  0  0  0  0  0  0  0
   -1.6216   -3.1508   -1.6792 C   0  0  0  0  0  0  0  0  0  0  0  0
   -2.7543   -3.6631   -0.9807 C   0  0  0  0  0  0  0  0  0  0  0  0
   -2.8976   -5.0548   -0.7871 C   0  0  0  0  0  0  0  0  0  0  0  0
   -1.9284   -5.9065   -1.2346 C   0  0  0  0  0  0  0  0  0  0  0  0
   -1.9517   -7.2626   -1.1181 O   0  0  0  0  0  0  0  0  0  0  0  0
   -3.0577   -7.8551   -0.4885 C   0  0  0  0  0  0  0  0  0  0  0  0
   -0.7409   -5.3853   -1.8576 C   0  0  0  0  0  0  0  0  0  0  0  0
    0.1726   -6.3345   -2.1886 O   0  0  0  0  0  0  0  0  0  0  0  0
    1.3734   -5.9207   -2.7942 C   0  0  0  0  0  0  0  0  0  0  0  0
   -0.5968   -4.0426   -2.0667 C   0  0  0  0  0  0  0  0  0  0  0  0
   -0.6713   -0.8688   -2.3359 C   0  0  0  0  0  0  0  0  0  0  0  0
   -0.4486    0.7029   -1.6067 S   0  0  0  0  0  0  0  0  0  0  0  0
    0.7922    1.1242   -2.7003 C   0  0  0  0  0  0  0  0  0  0  0  0
    1.0460    0.1193   -3.6004 C   0  0  0  0  0  0  0  0  0  0  0  0
    0.1810   -1.0096   -3.4318 C   0  0  0  0  0  0  0  0  0  0  0  0
    0.2040   -2.0325   -4.4078 C   0  0  0  0  0  0  0  0  0  0  0  0
    1.1206   -1.9894   -5.4191 C   0  0  0  0  0  0  0  0  0  0  0  0
    1.2234   -2.9036   -6.4238 O   0  0  0  0  0  0  0  0  0  0  0  0
    0.2607   -3.9219   -6.4978 C   0  0  0  0  0  0  0  0  0  0  0  0
    2.0790   -0.9125   -5.5063 C   0  0  0  0  0  0  0  0  0  0  0  0
    2.9675   -1.0346   -6.5266 O   0  0  0  0  0  0  0  0  0  0  0  0
    3.8993    0.0041   -6.7101 C   0  0  0  0  0  0  0  0  0  0  0  0
    2.0174    0.1296   -4.6317 C   0  0  0  0  0  0  0  0  0  0  0  0
    1.4669    4.0068   -0.9503 H   0  0  0  0  0  0  0  0  0  0  0  0
    2.3510    1.1723    2.1971 H   0  0  0  0  0  0  0  0  0  0  0  0
    4.2351    0.9199    0.3585 H   0  0  0  0  0  0  0  0  0  0  0  0
    2.7864    4.2703   -3.0219 H   0  0  0  0  0  0  0  0  0  0  0  0
    4.4443    3.6997   -5.0125 H   0  0  0  0  0  0  0  0  0  0  0  0
    5.3478    0.9804   -1.7814 H   0  0  0  0  0  0  0  0  0  0  0  0
    6.5356    2.1278   -5.1952 H   0  0  0  0  0  0  0  0  0  0  0  0
    6.8764    0.9849   -4.0006 H   0  0  0  0  0  0  0  0  0  0  0  0
   -0.0788    3.9445    1.2040 H   0  0  0  0  0  0  0  0  0  0  0  0
   -1.3766   -0.2786    4.1476 H   0  0  0  0  0  0  0  0  0  0  0  0
   -1.7834    1.9779    5.4474 H   0  0  0  0  0  0  0  0  0  0  0  0
    0.6251    5.3266    2.6877 H   0  0  0  0  0  0  0  0  0  0  0  0
    0.0877    7.5027    4.0785 H   0  0  0  0  0  0  0  0  0  0  0  0
   -2.0851    4.2568    5.9198 H   0  0  0  0  0  0  0  0  0  0  0  0
   -1.5815    8.0314    6.0309 H   0  0  0  0  0  0  0  0  0  0  0  0
   -2.3802    6.7805    6.8672 H   0  0  0  0  0  0  0  0  0  0  0  0
    0.5537    0.3449    0.9366 H   0  0  0  0  0  0  0  0  0  0  0  0
   -2.9619   -3.5206    2.1558 H   0  0  0  0  0  0  0  0  0  0  0  0
   -0.6322   -4.5098    1.4208 H   0  0  0  0  0  0  0  0  0  0  0  0
    1.8063   -0.5209   -0.2320 H   0  0  0  0  0  0  0  0  0  0  0  0
    3.8458   -1.7368   -1.3223 H   0  0  0  0  0  0  0  0  0  0  0  0
    1.5696   -4.7578    0.7610 H   0  0  0  0  0  0  0  0  0  0  0  0
    3.9517   -5.3985   -0.3314 H   0  0  0  0  0  0  0  0  0  0  0  0
    4.8408   -4.1592   -1.0729 H   0  0  0  0  0  0  0  0  0  0  0  0
   -2.7594    0.2856    2.2994 H   0  0  0  0  0  0  0  0  0  0  0  0
   -7.2328   -2.4279    1.3153 H   0  0  0  0  0  0  0  0  0  0  0  0
   -7.5285   -0.3447    2.9147 H   0  0  0  0  0  0  0  0  0  0  0  0
   -3.3306    2.0761    2.2170 H   0  0  0  0  0  0  0  0  0  0  0  0
   -3.7798    4.1883    3.6960 H   0  0  0  0  0  0  0  0  0  0  0  0
   -6.9201    1.3524    4.5768 H   0  0  0  0  0  0  0  0  0  0  0  0
   -5.4588    4.7101    5.6356 H   0  0  0  0  0  0  0  0  0  0  0  0
   -6.7854    3.6851    5.9593 H   0  0  0  0  0  0  0  0  0  0  0  0
   -5.2027   -3.6392    0.2434 H   0  0  0  0  0  0  0  0  0  0  0  0
   -3.7689   -5.4236   -0.2697 H   0  0  0  0  0  0  0  0  0  0  0  0
   -3.1544   -7.5248    0.5517 H   0  0  0  0  0  0  0  0  0  0  0  0
   -2.8700   -8.9274   -0.5090 H   0  0  0  0  0  0  0  0  0  0  0  0
   -3.9893   -7.6411   -1.0241 H   0  0  0  0  0  0  0  0  0  0  0  0
    1.9419   -5.2478   -2.1477 H   0  0  0  0  0  0  0  0  0  0  0  0
    1.9430   -6.8324   -2.9669 H   0  0  0  0  0  0  0  0  0  0  0  0
    1.1897   -5.4241   -3.7532 H   0  0  0  0  0  0  0  0  0  0  0  0
    0.3108   -3.6367   -2.4773 H   0  0  0  0  0  0  0  0  0  0  0  0
    1.2777    2.0730   -2.6220 H   0  0  0  0  0  0  0  0  0  0  0  0
   -0.5366   -2.8128   -4.3555 H   0  0  0  0  0  0  0  0  0  0  0  0
    0.5126   -4.5027   -7.3837 H   0  0  0  0  0  0  0  0  0  0  0  0
    0.2887   -4.5758   -5.6186 H   0  0  0  0  0  0  0  0  0  0  0  0
   -0.7500   -3.5139   -6.6042 H   0  0  0  0  0  0  0  0  0  0  0  0
    3.3987    0.9501   -6.9418 H   0  0  0  0  0  0  0  0  0  0  0  0
    4.5116   -0.2983   -7.5583 H   0  0  0  0  0  0  0  0  0  0  0  0
    4.5338    0.1421   -5.8288 H   0  0  0  0  0  0  0  0  0  0  0  0
    2.6852    0.9728   -4.6871 H   0  0  0  0  0  0  0  0  0  0  0  0
  1  2  2  0  0  0  0
  2  3  1  0  0  0  0
  3  4  2  0  0  0  0
  4  5  1  0  0  0  0
  5  6  2  0  0  0  0
  6  7  1  0  0  0  0
  7  8  2  0  0  0  0
  8  9  1  0  0  0  0
  9 10  2  0  0  0  0
  9 11  1  0  0  0  0
  2 12  1  0  0  0  0
 12 13  1  0  0  0  0
 13 14  2  0  0  0  0
 14 15  1  0  0  0  0
 15 16  2  0  0  0  0
 16 17  1  0  0  0  0
 17 18  2  0  0  0  0
 18 19  1  0  0  0  0
 19 20  2  0  0  0  0
 20 21  1  0  0  0  0
 21 22  2  0  0  0  0
 21 23  1  0  0  0  0
 14 24  1  0  0  0  0
 24 25  1  0  0  0  0
 25 26  2  0  0  0  0
 26 27  1  0  0  0  0
 27 28  2  0  0  0  0
 28 29  1  0  0  0  0
 29 30  2  0  0  0  0
 30 31  1  0  0  0  0
 31 32  2  0  0  0  0
 32 33  1  0  0  0  0
 33 34  2  0  0  0  0
 33 35  1  0  0  0  0
 26 36  1  0  0  0  0
 36 37  1  0  0  0  0
 37 38  2  0  0  0  0
 38 39  1  0  0  0  0
 39 40  2  0  0  0  0
 40 41  1  0  0  0  0
 41 42  2  0  0  0  0
 42 43  1  0  0  0  0
 43 44  2  0  0  0  0
 44 45  1  0  0  0  0
 45 46  2  0  0  0  0
 45 47  1  0  0  0  0
 38 48  1  0  0  0  0
 48 49  1  0  0  0  0
 49 50  1  0  0  0  0
 50 51  1  0  0  0  0
 51 52  2  0  0  0  0
 52 53  1  0  0  0  0
 53 54  1  0  0  0  0
 54 55  2  0  0  0  0
 55 56  1  0  0  0  0
 56 57  1  0  0  0  0
 55 58  1  0  0  0  0
 58 59  1  0  0  0  0
 59 60  1  0  0  0  0
 58 61  2  0  0  0  0
 51 62  1  0  0  0  0
 62 63  1  0  0  0  0
 63 64  1  0  0  0  0
 64 65  2  0  0  0  0
 65 66  1  0  0  0  0
 66 67  1  0  0  0  0
 67 68  2  0  0  0  0
 68 69  1  0  0  0  0
 69 70  1  0  0  0  0
 68 71  1  0  0  0  0
 71 72  1  0  0  0  0
 72 73  1  0  0  0  0
 71 74  2  0  0  0  0
  5  1  1  0  0  0  0
 10  6  1  0  0  0  0
 17 13  1  0  0  0  0
 22 18  1  0  0  0  0
 29 25  1  0  0  0  0
 34 30  1  0  0  0  0
 41 37  1  0  0  0  0
 46 42  1  0  0  0  0
 53 49  2  0  0  0  0
 66 62  2  0  0  0  0
 61 52  1  0  0  0  0
 74 65  1  0  0  0  0
  1 75  1  0  0  0  0
  3 76  1  0  0  0  0
  4 77  1  0  0  0  0
  7 78  1  0  0  0  0
  8 79  1  0  0  0  0
 10 80  1  0  0  0  0
 11 81  1  0  0  0  0
 11 82  1  0  0  0  0
 12 83  1  0  0  0  0
 15 84  1  0  0  0  0
 16 85  1  0  0  0  0
 19 86  1  0  0  0  0
 20 87  1  0  0  0  0
 22 88  1  0  0  0  0
 23 89  1  0  0  0  0
 23 90  1  0  0  0  0
 24 91  1  0  0  0  0
 27 92  1  0  0  0  0
 28 93  1  0  0  0  0
 31 94  1  0  0  0  0
 32 95  1  0  0  0  0
 34 96  1  0  0  0  0
 35 97  1  0  0  0  0
 35 98  1  0  0  0  0
 36 99  1  0  0  0  0
 39100  1  0  0  0  0
 40101  1  0  0  0  0
 43102  1  0  0  0  0
 44103  1  0  0  0  0
 46104  1  0  0  0  0
 47105  1  0  0  0  0
 47106  1  0  0  0  0
 48107  1  0  0  0  0
 54108  1  0  0  0  0
 57109  1  0  0  0  0
 57110  1  0  0  0  0
 57111  1  0  0  0  0
 60112  1  0  0  0  0
 60113  1  0  0  0  0
 60114  1  0  0  0  0
 61115  1  0  0  0  0
 64116  1  0  0  0  0
 67117  1  0  0  0  0
 70118  1  0  0  0  0
 70119  1  0  0  0  0
 70120  1  0  0  0  0
 73121  1  0  0  0  0
 73122  1  0  0  0  0
 73123  1  0  0  0  0
 74124  1  0  0  0  0
M  END
