100

C          8.00880       -1.97350        6.04300
S          8.16910       -2.49570        4.41720
C          7.54280       -0.88750        3.75690
O          7.47850       -0.68070        2.57640
C          7.21910       -0.07940        4.90060
C          7.52010       -0.70830        6.15340
C          7.28300        0.11090        7.31690
O          7.41400       -0.10470        8.48350
S          6.69540        1.73460        6.67860
C          6.74030        1.20900        5.00970
C          6.38200        2.13490        3.98300
C          5.78820        1.84590        2.80380
C          5.18110        0.61650        2.41960
S          4.44000       -0.50940        3.53430
C          3.99210       -1.68740        2.20310
O          3.48420       -2.74560        2.45580
C          4.38270       -1.07400        0.96160
C          5.03220        0.17900        1.12020
C          5.53190        0.76660       -0.09980
O          6.07240        1.81290       -0.30970
S          5.15550       -0.43040       -1.43140
C          4.33890       -1.53660       -0.34490
C          3.83760       -2.75980       -0.85820
C          2.78100       -3.47240       -0.38690
C          1.76700       -3.03040        0.49520
S          1.29100       -1.35510        0.70420
C         -0.01750       -1.77220        1.91220
O         -0.65120       -0.91560        2.47230
C         -0.07270       -3.20480        1.98450
C          0.92550       -3.85690        1.22180
C          0.96400       -5.29320        1.36680
O          1.63450       -6.12280        0.82090
S         -0.32920       -5.72180        2.57830
C         -0.88250       -4.05790        2.73520
C         -1.95980       -3.78560        3.59540
C         -2.84160       -2.73520        3.53520
C         -3.11290       -1.90490        2.44090
S         -2.72100       -2.34690        0.81190
C         -3.34560       -0.87170        0.13140
C         -3.94690       -0.09540        1.15660
C         -3.81070       -0.67840        2.44610
C         -4.29780       -0.01550        3.58260
C         -4.93470        1.19430        3.45580
O         -5.44390        1.92370        4.46580
C         -5.30360        1.44780        5.78430
C         -5.10250        1.77550        2.15290
O         -5.75540        2.95340        2.14520
C         -5.94300        3.62000        0.91720
C         -4.61560        1.13500        1.03970
C         -3.12690       -0.56070       -1.21970
S         -3.73890        0.92230       -1.90130
C         -3.01120        0.64090       -3.45070
C         -2.23330       -0.52840       -3.41780
C         -2.34980       -1.24450       -2.19090
C         -1.69140       -2.48060       -2.07660
C         -0.89960       -2.95030       -3.09720
O         -0.24950       -4.12840       -3.09230
C         -0.45090       -5.01530       -2.01630
C         -0.69410       -2.16050       -4.28050
O          0.13540       -2.69900       -5.18700
C          0.23560       -2.07850       -6.45020
C         -1.34210       -0.95740       -4.41210
C         -3.28150        1.54040       -4.49340
S         -3.69630        3.20210       -4.07530
C         -3.84560        3.71800       -5.82350
O         -4.09980        4.84670       -6.13440
C         -3.61790        2.53720       -6.61280
C         -3.32210        1.35410       -5.87080
C         -3.26130        0.17040       -6.67860
O         -3.13220       -0.99480       -6.40400
S         -3.46090        0.70640       -8.42280
C         -3.70810        2.37570       -7.97920
C         -3.98180        3.40270       -8.93660
C         -4.05180        3.19790      -10.25270
H          8.28950       -2.62760        6.84720
H          6.64060        3.16550        4.18850
H          5.74180        2.61960        2.04690
H          4.38440       -3.16140       -1.70160
H          2.65710       -4.49060       -0.73620
H         -2.09130       -4.49710        4.40070
H         -3.44490       -2.55660        4.41640
H         -4.15430       -0.46530        4.55010
H         -5.76280        2.20390        6.41840
H         -5.82300        0.49440        5.92270
H         -4.25050        1.33400        6.05810
H         -6.46530        4.54230        1.16420
H         -4.98800        3.85830        0.43980
H         -6.55510        3.02860        0.22960
H         -4.75690        1.58100        0.07330
H         -1.81820       -3.07800       -1.19350
H         -1.50020       -5.31630       -1.94000
H         -0.13110       -4.57690       -1.06700
H          0.16280       -5.88750       -2.23280
H          0.82420       -2.75620       -7.06540
H         -0.75480       -1.93930       -6.89410
H          0.74750       -1.11360       -6.38240
H         -1.16230       -0.32180       -5.25910
H         -4.13180        4.38700       -8.51240
H         -3.90120        2.21760      -10.67570
H         -4.25940        4.00130      -10.93670
