212

C         -1.17310       -8.53310       14.10850
S         -1.48460       -9.23470       12.58490
C         -1.63580       -7.68060       11.81470
C         -1.43810       -6.65790       12.74270
C         -1.17300       -7.15890       14.05890
C         -0.94410       -6.25950       15.13070
C         -0.96580       -4.91620       14.90300
O         -0.76260       -3.95060       15.83290
C         -0.50880       -4.34670       17.15740
C         -1.21630       -4.40890       13.57360
O         -1.19380       -3.05810       13.48370
C         -1.41800       -2.46810       12.22620
C         -1.44730       -5.26170       12.53200
C         -1.91420       -7.63570       10.42270
C         -1.92500       -8.69920        9.56000
C         -2.22490       -8.35780        8.22210
C         -2.27900       -9.20280        7.09550
C         -2.07410      -10.63690        7.21530
S         -3.02220      -11.58730        8.32300
C         -2.24960      -13.06090        7.84810
C         -2.65730      -14.37070        8.42640
C         -3.82500      -14.97520        7.64280
C         -1.32020      -12.81580        6.88270
Cl        -0.34930      -14.03210        6.15820
C         -1.21300      -11.44480        6.52590
Cl        -0.04070      -10.88630        5.40680
C         -2.53880       -8.60310        5.87160
C         -2.75550       -7.21040        5.72830
C         -2.73810       -6.36930        6.85660
C         -3.00130       -4.94710        6.72210
S         -1.91410       -3.75420        7.37360
C         -2.85980       -2.44060        6.76220
C         -2.43280       -1.02310        6.92510
C         -1.73740       -0.51120        5.66080
C         -3.95180       -2.91430        6.09850
C         -4.03970       -4.33120        6.07720
Cl        -5.37350       -5.15500        5.37530
Cl        -5.11970       -1.90230        5.35860
C         -2.44560       -6.96700        8.07150
S         -2.30540       -6.13830        9.59350
C         -2.92070       -6.83790        4.38090
C         -2.87820       -7.88460        3.49770
S         -2.63950       -9.40900        4.32890
C         -2.95930       -7.73810        2.08990
S         -3.40460       -6.17120        1.49510
C         -3.10260       -6.61180       -0.15680
C         -2.71750       -7.94990       -0.24340
C         -2.64590       -8.59350        1.03180
C         -2.24390       -9.94310        1.10800
C         -1.93010      -10.62940       -0.03210
O         -1.52550      -11.91890       -0.07900
C         -1.39300      -12.62040        1.13450
C         -2.01840       -9.98440       -1.31970
O         -1.69270      -10.77750       -2.36510
C         -1.74000      -10.22730       -3.66000
C         -2.40440       -8.67580       -1.41130
C         -3.16580       -5.56450       -1.10930
C         -3.63510       -4.30800       -0.83320
C         -3.40120       -3.36710       -1.85370
C         -3.60580       -1.97830       -1.78010
C         -4.23300       -1.39120       -0.60560
S         -5.81120       -1.91030       -0.09090
C         -5.78480       -0.88400        1.30380
C         -6.92730       -0.84820        2.25880
C         -7.45560       -2.24590        2.57000
C         -4.61800       -0.18200        1.34560
Cl        -4.21400        0.93210        2.58600
C         -3.73670       -0.46320        0.26600
Cl        -2.17770        0.24190        0.15180
C         -3.10830       -1.22050       -2.82690
C         -2.43920       -1.78690       -3.94190
C         -2.26430       -3.18320       -4.02900
C         -1.53040       -3.78150       -5.13070
S          0.02590       -3.16310       -5.60640
C          0.20700       -4.34270       -6.85950
C          1.41000       -4.34590       -7.73760
C          1.68280       -2.96240       -8.32610
C         -0.87720       -5.16780       -6.88630
C         -1.85970       -4.85800       -5.90660
Cl        -3.34200       -5.71120       -5.80000
Cl        -1.06990       -6.46800       -7.99160
C         -2.74450       -3.94190       -2.97000
S         -2.48040       -5.64900       -2.72230
C         -1.95560       -0.78730       -4.81920
C         -2.19910        0.48290       -4.38550
S         -3.14710        0.51430       -2.91370
C         -1.60380        1.68850       -4.85190
C         -1.59930        2.88350       -4.19500
C         -0.68390        3.81900       -4.72820
C         -0.38380        5.10190       -4.23750
C         -1.02090        5.59540       -3.02790
S         -1.02630        4.62700       -1.58100
C         -1.92400        5.80990       -0.69270
C         -2.33620        5.54930        0.71430
C         -3.20490        4.29480        0.81600
C         -2.18340        6.89100       -1.48050
Cl        -3.05550        8.27440       -0.95840
C         -1.66830        6.77730       -2.80130
Cl        -1.93100        7.97840       -3.99490
C          0.58410        5.82310       -4.92360
C          1.25820        5.31430       -6.06260
C          0.96720        4.02400       -6.54350
C          1.68170        3.46530       -7.67970
S          1.78360        4.33130       -9.18560
C          2.71300        3.08030       -9.93780
C          3.23280        3.23820      -11.32350
C          4.47100        4.13830      -11.33770
C          2.92460        2.05970       -9.06060
C          2.34160        2.27130       -7.78170
Cl         2.56190        1.16220       -6.49370
Cl         3.80520        0.63670       -9.43840
C         -0.00480        3.30520       -5.86120
S         -0.53550        1.69000       -6.23720
C          2.26070        6.20350       -6.51840
C          2.36640        7.33750       -5.76920
S          1.20800        7.37900       -4.45800
C          3.30150        8.39940       -5.94020
C          3.49910        9.47900       -5.13290
C          4.54440       10.32920       -5.57260
C          4.99950       11.52010       -4.98430
C          4.38960       12.04600       -3.77370
S          2.67660       12.33260       -3.67510
C          2.78690       12.91790       -2.05100
C          1.58590       13.41330       -1.32420
C          1.33870       14.89430       -1.62120
C          4.08180       12.89330       -1.62670
Cl         4.58580       13.39690       -0.06590
C          4.99260       12.39710       -2.59780
Cl         6.66050       12.18550       -2.26730
C          6.04600       12.17770       -5.62110
C          6.66130       11.68940       -6.79890
C          6.22360       10.48540       -7.37270
C          6.82660        9.94610       -8.58180
S          6.94730       10.89730      -10.03320
C          7.66060        9.59630      -10.92390
C          8.10030        9.77370      -12.33510
C          9.51340       10.35900      -12.39480
C          7.79980        8.50010      -10.12680
C          7.32510        8.69190       -8.80120
Cl         7.46410        7.47960       -7.59780
Cl         8.47200        7.01250      -10.65560
C          5.16560        9.83740       -6.74710
S          4.40550        8.37340       -7.29890
C          7.70200       12.55570       -7.24370
C          7.84090       13.64870       -6.46560
S          6.73810       13.69900       -5.13640
H         -1.00460       -9.16320       14.95870
H         -0.75360       -6.67070       16.10840
H         -0.37870       -3.42450       17.72100
H          0.40380       -4.94780       17.22890
H         -1.34830       -4.91250       17.57490
H         -0.66170       -2.77570       11.49670
H         -2.41170       -2.71410       11.83810
H         -1.34800       -1.39420       12.39060
H         -1.62920       -4.88140       11.54260
H         -1.70240       -9.70000        9.88340
H         -1.80360      -15.05030        8.39080
H         -2.95150      -14.23060        9.46780
H         -4.68420      -14.30940        7.67290
H         -4.10830      -15.93150        8.07380
H         -3.54140      -15.13040        6.60490
H         -1.75350       -0.94760        7.77530
H         -3.31370       -0.40850        7.12480
H         -0.85890       -1.11320        5.44130
H         -2.41310       -0.55950        4.81100
H         -1.42780        0.52120        5.79840
H         -3.02040       -5.81910        4.05450
H         -2.18800      -10.41300        2.07480
H         -2.35040      -12.69840        1.65950
H         -0.65860      -12.14730        1.79380
H         -1.04720      -13.61580        0.86180
H         -2.75190       -9.90180       -3.92090
H         -1.05220       -9.38190       -3.76230
H         -1.43320      -11.02800       -4.33050
H         -2.47940       -8.17900       -2.36360
H         -4.09180       -4.06160        0.10790
H         -6.59150       -0.35910        3.17540
H         -7.73470       -0.24390        1.83320
H         -7.81660       -2.72540        1.66280
H         -6.66950       -2.86290        2.99760
H         -8.27400       -2.18570        3.28250
H          1.24910       -5.07150       -8.53710
H          2.28070       -4.66720       -7.15850
H          2.55340       -2.99680       -8.97550
H          0.82950       -2.62090       -8.90730
H          1.87020       -2.24260       -7.53240
H         -1.39970       -0.98470       -5.71720
H         -2.20970        3.06080       -3.32900
H         -2.88620        6.41810        1.07960
H         -1.44630        5.41950        1.33590
H         -3.50250        4.12820        1.84780
H         -4.10080        4.40230        0.20920
H         -2.65450        3.42340        0.46890
H          2.45900        3.67700      -11.95620
H          3.48890        2.25240      -11.71540
H          5.25570        3.71080      -10.71850
H          4.84610        4.24220      -12.35210
H          4.22500        5.12560      -10.95330
H          2.90220        6.00750       -7.35820
H          2.91720        9.65030       -4.24550
H          1.74450       13.27770       -0.25270
H          0.71400       12.83090       -1.62640
H          1.17640       15.04370       -2.68600
H          0.46140       15.24120       -1.08190
H          2.19540       15.48820       -1.31310
H          8.08650        8.80130      -12.83070
H          7.40800       10.44110      -12.85090
H          9.53990       11.33140      -11.90870
H          9.82570       10.47720      -13.42880
H         10.21570        9.69910      -11.89180
H          8.30990       12.35830       -8.10710
H          8.54160       14.45260       -6.57980
