273

C        -17.06090       -3.32350        8.15240
S        -15.71720       -4.17500        7.53650
C        -14.58390       -3.10360        8.31340
C        -15.26230       -2.11670        9.02750
C        -16.68610       -2.25100        8.92620
C        -17.53820       -1.32860        9.58390
C        -16.99920       -0.31030       10.31080
O        -17.69490        0.63790       10.98450
C        -19.09900        0.58660       10.94310
C        -15.56410       -0.16870       10.41050
O        -15.16620        0.88790       11.15630
C        -13.78670        1.12080       11.30670
C        -14.72920       -1.05030        9.78470
C        -13.19540       -3.34180        8.12550
C        -12.64510       -4.27180        7.28570
C        -11.23070       -4.29170        7.28210
C        -10.37800       -5.10520        6.51380
C        -10.91590       -6.14650        5.63090
C        -11.83770       -7.07640        6.10440
C        -12.35410       -8.05620        5.27930
C        -11.97620       -8.13440        3.94360
S        -12.55250       -9.33260        2.78760
C        -14.07190       -9.99390        3.55550
C        -15.18770       -8.96750        3.60140
C        -11.03940       -7.20580        3.48670
F        -10.64310       -7.25530        2.19950
C        -10.51080       -6.22970        4.30040
C         -9.01760       -4.86120        6.62810
C         -8.48400       -3.88780        7.50740
C         -9.33250       -3.10650        8.31080
C         -8.75990       -2.12780        9.24260
C         -9.15410       -0.79180        9.24050
C         -8.52490        0.12430       10.05690
C         -7.49930       -0.25450       10.92160
S         -6.74850        1.00960       11.90330
C         -4.97350        0.55410       11.93880
C         -4.37760        0.43320       10.55110
C         -7.16950       -1.60610       10.96690
C         -7.76670       -2.52720       10.13200
F         -6.24070       -2.06720       11.83330
C        -10.69060       -3.31170        8.15270
S        -11.95370       -2.43730        8.97740
C         -7.07740       -3.78970        7.39820
C         -6.53380       -4.65890        6.49990
S         -7.74660       -5.67800        5.74790
C         -5.16610       -4.70610        6.10460
C         -4.56260       -5.50070        5.17640
C         -3.20010       -5.17440        4.94880
C         -2.32700       -5.72110        3.99080
C         -2.69400       -6.90460        3.20610
C         -3.22430       -8.03220        3.83410
C         -3.50820       -9.17050        3.11230
C         -3.28630       -9.23470        1.73720
S         -3.71440      -10.74330        0.92210
C         -2.39440      -10.96990       -0.32680
C         -1.01520      -10.99580        0.30070
C         -2.79260       -8.09050        1.11850
F         -2.58980       -8.05530       -0.21860
C         -2.48800       -6.94890        1.83110
C         -1.10200       -5.08690        3.83590
C         -0.69540       -3.98560        4.62930
C         -1.54850       -3.46680        5.61610
C         -1.17120       -2.28640        6.40390
C         -0.70660       -1.13240        5.77290
C         -0.31670       -0.03510        6.51000
C         -0.39030       -0.03830        7.90020
S          0.13260        1.42140        8.75830
C          1.14730        0.75200       10.12940
C          2.31030       -0.07610        9.62060
C         -0.91440       -1.17140        8.51340
C         -1.28650       -2.28660        7.78970
F         -1.06970       -1.21510        9.85490
C         -2.78350       -4.07900        5.74690
S         -4.06080       -3.53020        6.79490
C          0.58410       -3.50790        4.26000
C          1.12870       -4.16370        3.19680
S          0.12040       -5.48920        2.65230
C          2.25990       -3.73600        2.44410
C          2.72000       -4.21030        1.25330
C          3.68450       -3.36750        0.64100
C          4.23370       -3.47460       -0.64790
C          3.85470       -4.57510       -1.54220
C          2.51340       -4.86680       -1.77490
C          2.13910       -5.91520       -2.59150
C          3.09640       -6.71930       -3.20000
S          2.75990       -8.09890       -4.23990
C          0.96910       -8.39220       -4.03130
C          0.62680       -8.97450       -2.67290
C          4.43770       -6.39330       -2.98490
F          5.39270       -7.13840       -3.57580
C          4.82420       -5.34450       -2.18110
C          5.07350       -2.44880       -1.05450
C          5.37700       -1.32700       -0.24140
C          4.82340       -1.21400        1.04450
C          4.97130       -0.01530        1.87830
C          5.25020       -0.12410        3.23900
C          5.25930        0.98770        4.05620
C          4.98830        2.25170        3.54490
S          4.91780        3.71370        4.53550
C          4.22150        3.09880        6.11030
C          2.84990        2.47910        5.93040
C          4.76800        2.35570        2.17280
C          4.74540        1.25320        1.34680
F          4.54210        3.56880        1.62530
C          3.99750       -2.24950        1.45250
S          3.07620       -2.26060        2.93210
C          6.16120       -0.37350       -0.93040
C          6.39210       -0.69420       -2.23820
S          5.74380       -2.26630       -2.65550
C          6.91550        0.19040       -3.22980
C          7.21740        1.50790       -3.03530
C          7.46030        2.22230       -4.23160
C          7.71000        3.59900       -4.37170
C          7.70670        4.48720       -3.20410
C          6.67420        4.42560       -2.26880
C          6.68150        5.21800       -1.13910
C          7.72340        6.10920       -0.90350
S          7.83500        7.15490        0.51030
C          6.93450        6.21920        1.79580
C          7.62320        4.91220        2.13270
C          8.72410        6.19870       -1.87200
F          9.73580        7.07010       -1.69350
C          8.73100        5.40890       -3.00100
C          7.90540        4.06110       -5.66380
C          7.85750        3.21790       -6.80310
C          7.61520        1.84060       -6.65910
C          7.59650        0.93970       -7.81770
C          8.65200        0.93170       -8.72920
C          8.65980        0.04770       -9.78670
C          7.61300       -0.84920       -9.98840
S          7.71680       -1.93400      -11.38370
C          7.11520       -3.53680      -10.73780
C          7.91530       -4.00330       -9.53890
C          6.54620       -0.80020       -9.09670
C          6.53820        0.06010       -8.01760
F          5.47050       -1.59840       -9.26340
C          7.39530        1.38080       -5.37000
S          7.00700       -0.26110       -4.91890
C          7.97890        3.95340       -8.00790
C          8.11860        5.29780       -7.81680
S          8.13270        5.72770       -6.12060
C          8.21740        6.31050       -8.81970
C          8.11400        6.14690      -10.16990
C          8.22670        7.35740      -10.89970
C          8.16380        7.53380      -12.29170
C          8.02030        6.38130      -13.18820
C          8.86300        5.27860      -13.06670
C          8.70750        4.16820      -13.87200
C          7.69370        4.11380      -14.82240
S          7.38360        2.73840      -15.87940
C          8.08000        1.32520      -14.95190
C          7.35790        1.08330      -13.64130
C          6.88210        5.24070      -14.96040
F          5.90300        5.23500      -15.88570
C          7.03090        6.35750      -14.16830
C          8.24270        8.83910      -12.75540
C          8.41590        9.95560      -11.90110
C          8.50360        9.77670      -10.51250
C          8.71520       10.90490       -9.59690
C          7.89710       11.08910       -8.48690
C          8.09910       12.14010       -7.61310
C          9.13120       13.04810       -7.81840
S          9.52520       14.41770       -6.78470
C          8.17450       14.46990       -5.55780
C          6.88830       15.03060       -6.13550
C          9.94790       12.84720       -8.93380
C          9.75690       11.80570       -9.81230
F         10.96610       13.70270       -9.16040
C          8.38890        8.47540      -10.04520
S          8.45560        7.98690       -8.37230
C          8.45490       11.17710      -12.63780
C          8.34860       10.99140      -13.96870
S          8.18500        9.33140      -14.42860
H        -18.05250       -3.65200        7.91340
H        -18.60320       -1.46050        9.48590
H        -19.44240        1.42530       11.54610
H        -19.47940       -0.34740       11.36960
H        -19.47450        0.69650        9.92030
H        -13.28670        0.27880       11.79580
H        -13.70580        2.00530       11.93600
H        -13.30530        1.31420       10.34270
H        -13.66160       -0.94190        9.85860
H        -13.24680       -4.90760        6.66120
H        -12.13750       -7.04790        7.14110
H        -13.05170       -8.76760        5.69100
H        -13.82610      -10.38750        4.54100
H        -14.33900      -10.82820        2.90690
H        -14.90960       -8.11350        4.21560
H        -15.40910       -8.61040        2.59840
H        -16.08730       -9.41680        4.01770
H         -9.80790       -5.52610        3.88370
H         -9.92800       -0.46370        8.56420
H         -8.80830        1.16490       10.02940
H         -4.52070        1.37900       12.48910
H         -4.85520       -0.36150       12.51380
H         -4.84060       -0.38040        9.99530
H         -3.31270        0.22670       10.63150
H         -4.51450        1.35610        9.99130
H         -7.46690       -3.56180       10.20070
H         -6.48600       -3.07220        7.93870
H         -5.09330       -6.26360        4.63530
H         -3.37890       -8.02450        4.90210
H         -3.90360      -10.04480        3.60530
H         -2.64080      -11.93290       -0.77410
H         -2.48640      -10.19460       -1.08400
H         -0.76620      -10.02950        0.73510
H         -0.27160      -11.23260       -0.45730
H         -0.96810      -11.74930        1.08400
H         -2.12090       -6.08980        1.29220
H         -0.66170       -1.09360        4.69540
H          0.05540        0.85010        6.01820
H          0.50610        0.18340       10.79900
H          1.49560        1.64600       10.64630
H          2.92340       -0.40000       10.45920
H          1.95560       -0.95950        9.09220
H          2.92860        0.50720        8.94110
H         -1.65960       -3.14920        8.31940
H          1.07810       -2.68440        4.74330
H          2.35200       -5.11910        0.81210
H          1.74860       -4.24840       -1.32960
H          1.08910       -6.09610       -2.75210
H          0.73530       -9.10180       -4.82500
H          0.43850       -7.46280       -4.23310
H         -0.44700       -9.13500       -2.60090
H          1.13440       -9.92650       -2.53570
H          0.92940       -8.30670       -1.86940
H          5.87560       -5.15030       -2.03840
H          5.47200       -1.09130        3.66290
H          5.47790        0.86830        5.10540
H          4.16720        3.99740        6.72460
H          4.93170        2.40850        6.56440
H          2.42320        2.23360        6.90110
H          2.18420        3.18010        5.43140
H          2.90800        1.56990        5.33360
H          4.50340        1.38620        0.30410
H          6.52130        0.52930       -0.47430
H          7.25260        1.96450       -2.06450
H          5.83730        3.76610       -2.44290
H          5.86470        5.14210       -0.43920
H          6.94160        6.89320        2.65170
H          5.90350        6.06820        1.48150
H          7.62300        4.24150        1.27540
H          7.09830        4.42880        2.95370
H          8.65330        5.09160        2.43180
H          9.54990        5.49840       -3.69710
H          9.48770        1.59870       -8.58170
H          9.48950        0.02780      -10.47630
H          6.05450       -3.45000      -10.51310
H          7.24530       -4.20970      -11.58550
H          7.57750       -4.99290       -9.23830
H          8.97500       -4.05370       -9.78140
H          7.78480       -3.32710       -8.69570
H          5.68440        0.05320       -7.35840
H          7.93170        3.49790       -8.97980
H          7.93430        5.19550      -10.63540
H          9.66650        5.30100      -12.34570
H          9.38830        3.33980      -13.75880
H          9.14890        1.48400      -14.81510
H          7.93940        0.48560      -15.63200
H          7.47480        1.92920      -12.96650
H          6.29630        0.93160      -13.82010
H          7.75700        0.19440      -13.15660
H          6.35480        7.18710      -14.30080
H          7.07630       10.41130       -8.30940
H          7.44260       12.23860       -6.76460
H          8.56390       15.12460       -4.77800
H          8.04770       13.47230       -5.13960
H          7.05400       16.03870       -6.50800
H          6.12100       15.06620       -5.36430
H          6.52650       14.41790       -6.95830
H         10.43400       11.68690      -10.64370
H          8.54460       12.14330      -12.17580
H          8.34820       11.73690      -14.73990
