
  xtb     03042220453D
 energy: -373.695128987984 gnorm: 0.000183177572 xtb: 6.4.1 (unknown)
215235  0     0  0            999 V2000
    0.1293   -0.2075    9.6134 C   0  0  0  0  0  0  0  0  0  0  0  0
   -0.1639    0.0144    8.3169 C   0  0  0  0  0  0  0  0  0  0  0  0
   -0.8985   -1.0534    7.7194 C   0  0  0  0  0  0  0  0  0  0  0  0
   -1.3769   -1.1502    6.4025 C   0  0  0  0  0  0  0  0  0  0  0  0
   -1.1901   -0.0779    5.4149 C   0  0  0  0  0  0  0  0  0  0  0  0
   -0.6997   -0.3625    4.1429 C   0  0  0  0  0  0  0  0  0  0  0  0
   -0.5250    0.6287    3.1964 C   0  0  0  0  0  0  0  0  0  0  0  0
   -0.8285    1.9535    3.4892 C   0  0  0  0  0  0  0  0  0  0  0  0
   -0.6300    3.3104    2.3871 S   0  0  0  0  0  0  0  0  0  0  0  0
   -0.1084    2.5419    0.8141 C   0  0  0  0  0  0  0  0  0  0  0  0
   -0.0207    3.6229   -0.2463 C   0  0  0  0  0  0  0  0  0  0  0  0
   -1.3151    2.2263    4.7697 C   0  0  0  0  0  0  0  0  0  0  0  0
   -1.6089    3.5038    5.0978 F   0  0  0  0  0  0  0  0  0  0  0  0
   -1.5030    1.2468    5.7180 C   0  0  0  0  0  0  0  0  0  0  0  0
   -2.0269   -2.3294    6.0697 C   0  0  0  0  0  0  0  0  0  0  0  0
   -2.2256   -3.3992    6.9761 C   0  0  0  0  0  0  0  0  0  0  0  0
   -1.7767   -3.2868    8.3027 C   0  0  0  0  0  0  0  0  0  0  0  0
   -2.0191   -4.3706    9.2608 C   0  0  0  0  0  0  0  0  0  0  0  0
   -1.0029   -4.8804   10.0625 C   0  0  0  0  0  0  0  0  0  0  0  0
   -1.2300   -5.9372   10.9238 C   0  0  0  0  0  0  0  0  0  0  0  0
   -2.4829   -6.5333   11.0080 C   0  0  0  0  0  0  0  0  0  0  0  0
   -2.9167   -7.8885   12.0475 S   0  0  0  0  0  0  0  0  0  0  0  0
   -1.3194   -8.5013   12.6842 C   0  0  0  0  0  0  0  0  0  0  0  0
   -0.5176   -9.2339   11.6249 C   0  0  0  0  0  0  0  0  0  0  0  0
   -3.4989   -5.9979   10.2142 C   0  0  0  0  0  0  0  0  0  0  0  0
   -3.2896   -4.9389    9.3624 C   0  0  0  0  0  0  0  0  0  0  0  0
   -4.7344   -6.5439   10.2714 F   0  0  0  0  0  0  0  0  0  0  0  0
   -1.1102   -2.1143    8.6337 C   0  0  0  0  0  0  0  0  0  0  0  0
   -0.4497   -1.7285   10.2033 S   0  0  0  0  0  0  0  0  0  0  0  0
   -2.8554   -4.5131    6.3625 C   0  0  0  0  0  0  0  0  0  0  0  0
   -3.1911   -4.3078    5.0548 C   0  0  0  0  0  0  0  0  0  0  0  0
   -2.7236   -2.6963    4.5170 S   0  0  0  0  0  0  0  0  0  0  0  0
   -3.7691   -5.1577    4.0733 C   0  0  0  0  0  0  0  0  0  0  0  0
   -3.7291   -4.5753    2.4477 S   0  0  0  0  0  0  0  0  0  0  0  0
   -4.4558   -6.0131    1.7985 C   0  0  0  0  0  0  0  0  0  0  0  0
   -4.7597   -6.9038    2.8290 C   0  0  0  0  0  0  0  0  0  0  0  0
   -4.3670   -6.4216    4.1202 C   0  0  0  0  0  0  0  0  0  0  0  0
   -4.6380   -7.2077    5.2600 C   0  0  0  0  0  0  0  0  0  0  0  0
   -5.2720   -8.4128    5.1366 C   0  0  0  0  0  0  0  0  0  0  0  0
   -5.5761   -9.2444    6.1602 O   0  0  0  0  0  0  0  0  0  0  0  0
   -5.2203   -8.8584    7.4671 C   0  0  0  0  0  0  0  0  0  0  0  0
   -5.6965   -8.8794    3.8415 C   0  0  0  0  0  0  0  0  0  0  0  0
   -6.3490  -10.0691    3.8656 O   0  0  0  0  0  0  0  0  0  0  0  0
   -6.8405  -10.5856    2.6557 C   0  0  0  0  0  0  0  0  0  0  0  0
   -5.4478   -8.1330    2.7239 C   0  0  0  0  0  0  0  0  0  0  0  0
   -4.5652   -5.9983    0.3799 C   0  0  0  0  0  0  0  0  0  0  0  0
   -4.7449   -4.4064   -0.2912 S   0  0  0  0  0  0  0  0  0  0  0  0
   -4.2641   -4.9065   -1.8798 C   0  0  0  0  0  0  0  0  0  0  0  0
   -4.1127   -6.2963   -1.9170 C   0  0  0  0  0  0  0  0  0  0  0  0
   -4.2693   -6.9148   -0.6334 C   0  0  0  0  0  0  0  0  0  0  0  0
   -3.9993   -8.2936   -0.4942 C   0  0  0  0  0  0  0  0  0  0  0  0
   -3.6421   -9.0393   -1.5827 C   0  0  0  0  0  0  0  0  0  0  0  0
   -3.3529  -10.3656   -1.5672 O   0  0  0  0  0  0  0  0  0  0  0  0
   -3.4220  -11.0486   -0.3420 C   0  0  0  0  0  0  0  0  0  0  0  0
   -3.5478   -8.4298   -2.8836 C   0  0  0  0  0  0  0  0  0  0  0  0
   -3.2089   -9.2847   -3.8801 O   0  0  0  0  0  0  0  0  0  0  0  0
   -3.0229   -8.7635   -5.1728 C   0  0  0  0  0  0  0  0  0  0  0  0
   -3.7766   -7.0906   -3.0335 C   0  0  0  0  0  0  0  0  0  0  0  0
   -3.8116   -3.8653   -2.7337 C   0  0  0  0  0  0  0  0  0  0  0  0
   -2.9549   -3.8866   -3.8026 C   0  0  0  0  0  0  0  0  0  0  0  0
   -2.3760   -2.6261   -4.0949 C   0  0  0  0  0  0  0  0  0  0  0  0
   -1.3625   -2.3283   -5.0264 C   0  0  0  0  0  0  0  0  0  0  0  0
   -0.8288   -3.3602   -5.9251 C   0  0  0  0  0  0  0  0  0  0  0  0
   -0.3595   -4.5757   -5.4288 C   0  0  0  0  0  0  0  0  0  0  0  0
    0.0897   -5.5574   -6.2859 C   0  0  0  0  0  0  0  0  0  0  0  0
    0.1004   -5.3635   -7.6650 C   0  0  0  0  0  0  0  0  0  0  0  0
    0.7020   -6.6889   -8.6749 S   0  0  0  0  0  0  0  0  0  0  0  0
   -0.5063   -6.7480  -10.0497 C   0  0  0  0  0  0  0  0  0  0  0  0
   -1.9187   -6.9807   -9.5509 C   0  0  0  0  0  0  0  0  0  0  0  0
   -0.3147   -4.1245   -8.1423 C   0  0  0  0  0  0  0  0  0  0  0  0
   -0.2838   -3.8505   -9.4644 F   0  0  0  0  0  0  0  0  0  0  0  0
   -0.7833   -3.1388   -7.2970 C   0  0  0  0  0  0  0  0  0  0  0  0
   -0.8602   -1.0366   -5.0126 C   0  0  0  0  0  0  0  0  0  0  0  0
   -1.3254   -0.0396   -4.1201 C   0  0  0  0  0  0  0  0  0  0  0  0
   -2.3766   -0.3137   -3.2266 C   0  0  0  0  0  0  0  0  0  0  0  0
   -2.8418    0.7074   -2.2808 C   0  0  0  0  0  0  0  0  0  0  0  0
   -2.9409    0.4446   -0.9141 C   0  0  0  0  0  0  0  0  0  0  0  0
   -3.3471    1.4265   -0.0382 C   0  0  0  0  0  0  0  0  0  0  0  0
   -3.6680    2.7173   -0.4713 C   0  0  0  0  0  0  0  0  0  0  0  0
   -4.1239    3.8579    0.7890 S   0  0  0  0  0  0  0  0  0  0  0  0
   -4.9282    5.2619   -0.0739 C   0  0  0  0  0  0  0  0  0  0  0  0
   -5.6828    6.0910    0.9457 C   0  0  0  0  0  0  0  0  0  0  0  0
   -3.5563    2.9645   -1.8377 C   0  0  0  0  0  0  0  0  0  0  0  0
   -3.1613    1.9849   -2.7269 C   0  0  0  0  0  0  0  0  0  0  0  0
   -3.8254    4.1814   -2.3633 F   0  0  0  0  0  0  0  0  0  0  0  0
   -2.8640   -1.6063   -3.2375 C   0  0  0  0  0  0  0  0  0  0  0  0
   -4.0771   -2.2236   -2.1548 S   0  0  0  0  0  0  0  0  0  0  0  0
   -0.5288    1.1204   -4.1616 C   0  0  0  0  0  0  0  0  0  0  0  0
    0.5210    1.0553   -5.0399 C   0  0  0  0  0  0  0  0  0  0  0  0
    0.5196   -0.4621   -5.9253 S   0  0  0  0  0  0  0  0  0  0  0  0
    1.5330    2.0423   -5.1317 C   0  0  0  0  0  0  0  0  0  0  0  0
    1.4754    3.3312   -3.9683 S   0  0  0  0  0  0  0  0  0  0  0  0
    2.9742    4.0193   -4.5058 C   0  0  0  0  0  0  0  0  0  0  0  0
    3.4845    3.2861   -5.5800 C   0  0  0  0  0  0  0  0  0  0  0  0
    2.6698    2.1653   -5.9352 C   0  0  0  0  0  0  0  0  0  0  0  0
    3.0731    1.3434   -6.9988 C   0  0  0  0  0  0  0  0  0  0  0  0
    4.2339    1.5850   -7.6948 C   0  0  0  0  0  0  0  0  0  0  0  0
    4.4772    0.6979   -8.6914 O   0  0  0  0  0  0  0  0  0  0  0  0
    5.5942    0.7978   -9.5457 C   0  0  0  0  0  0  0  0  0  0  0  0
    5.0578    2.7042   -7.3258 C   0  0  0  0  0  0  0  0  0  0  0  0
    6.2086    2.8975   -8.0330 O   0  0  0  0  0  0  0  0  0  0  0  0
    7.0484    3.9720   -7.6826 C   0  0  0  0  0  0  0  0  0  0  0  0
    4.6716    3.5233   -6.2974 C   0  0  0  0  0  0  0  0  0  0  0  0
    3.4714    5.1358   -3.7866 C   0  0  0  0  0  0  0  0  0  0  0  0
    2.8675    5.7063   -2.6979 C   0  0  0  0  0  0  0  0  0  0  0  0
    3.5918    6.7750   -2.1223 C   0  0  0  0  0  0  0  0  0  0  0  0
    3.2459    7.5477   -1.0008 C   0  0  0  0  0  0  0  0  0  0  0  0
    1.9603    7.3607   -0.3181 C   0  0  0  0  0  0  0  0  0  0  0  0
    1.8869    7.1888    1.0610 C   0  0  0  0  0  0  0  0  0  0  0  0
    0.6741    7.0140    1.7007 C   0  0  0  0  0  0  0  0  0  0  0  0
   -0.5153    7.0132    0.9799 C   0  0  0  0  0  0  0  0  0  0  0  0
   -2.1217    6.8208    1.6532 S   0  0  0  0  0  0  0  0  0  0  0  0
   -1.8345    6.5504    3.4366 C   0  0  0  0  0  0  0  0  0  0  0  0
   -3.1580    6.2117    4.0939 C   0  0  0  0  0  0  0  0  0  0  0  0
   -0.4260    7.1891   -0.4040 C   0  0  0  0  0  0  0  0  0  0  0  0
   -1.5633    7.1919   -1.1318 F   0  0  0  0  0  0  0  0  0  0  0  0
    0.7738    7.3565   -1.0531 C   0  0  0  0  0  0  0  0  0  0  0  0
    4.1737    8.4971   -0.5958 C   0  0  0  0  0  0  0  0  0  0  0  0
    5.3904    8.7366   -1.2790 C   0  0  0  0  0  0  0  0  0  0  0  0
    5.7203    7.9842   -2.4175 C   0  0  0  0  0  0  0  0  0  0  0  0
    6.9462    8.2289   -3.1877 C   0  0  0  0  0  0  0  0  0  0  0  0
    7.2736    9.5091   -3.6315 C   0  0  0  0  0  0  0  0  0  0  0  0
    8.4149    9.7243   -4.3744 C   0  0  0  0  0  0  0  0  0  0  0  0
    9.2668    8.6760   -4.7161 C   0  0  0  0  0  0  0  0  0  0  0  0
   10.6768    9.0606   -5.7152 S   0  0  0  0  0  0  0  0  0  0  0  0
   12.0180    8.0537   -4.9789 C   0  0  0  0  0  0  0  0  0  0  0  0
   12.2204    8.3655   -3.5098 C   0  0  0  0  0  0  0  0  0  0  0  0
    8.9112    7.3997   -4.2930 C   0  0  0  0  0  0  0  0  0  0  0  0
    7.7854    7.1732   -3.5283 C   0  0  0  0  0  0  0  0  0  0  0  0
    9.6633    6.3244   -4.6223 F   0  0  0  0  0  0  0  0  0  0  0  0
    4.8162    7.0048   -2.7953 C   0  0  0  0  0  0  0  0  0  0  0  0
    4.9951    5.9256   -4.1565 S   0  0  0  0  0  0  0  0  0  0  0  0
    6.1540    9.7630   -0.6479 C   0  0  0  0  0  0  0  0  0  0  0  0
    5.5386   10.2874    0.4312 C   0  0  0  0  0  0  0  0  0  0  0  0
    3.9977    9.5744    0.7665 S   0  0  0  0  0  0  0  0  0  0  0  0
    0.6669    0.4300   10.2878 H   0  0  0  0  0  0  0  0  0  0  0  0
    0.1370    0.8965    7.7820 H   0  0  0  0  0  0  0  0  0  0  0  0
   -0.4280   -1.3756    3.8901 H   0  0  0  0  0  0  0  0  0  0  0  0
   -0.1414    0.3609    2.2255 H   0  0  0  0  0  0  0  0  0  0  0  0
    0.8630    2.0719    0.9718 H   0  0  0  0  0  0  0  0  0  0  0  0
   -0.8554    1.7958    0.5431 H   0  0  0  0  0  0  0  0  0  0  0  0
    0.7186    4.3725    0.0299 H   0  0  0  0  0  0  0  0  0  0  0  0
   -0.9825    4.1159   -0.3659 H   0  0  0  0  0  0  0  0  0  0  0  0
    0.2662    3.1818   -1.1990 H   0  0  0  0  0  0  0  0  0  0  0  0
   -1.9129    1.5179    6.6784 H   0  0  0  0  0  0  0  0  0  0  0  0
   -0.0112   -4.4600    9.9995 H   0  0  0  0  0  0  0  0  0  0  0  0
   -0.4132   -6.2948   11.5289 H   0  0  0  0  0  0  0  0  0  0  0  0
   -1.6093   -9.1791   13.4870 H   0  0  0  0  0  0  0  0  0  0  0  0
   -0.7739   -7.6646   13.1184 H   0  0  0  0  0  0  0  0  0  0  0  0
    0.4110   -9.6048   12.0546 H   0  0  0  0  0  0  0  0  0  0  0  0
   -0.2772   -8.5779   10.7911 H   0  0  0  0  0  0  0  0  0  0  0  0
   -1.0858  -10.0788   11.2430 H   0  0  0  0  0  0  0  0  0  0  0  0
   -4.1194   -4.5492    8.7936 H   0  0  0  0  0  0  0  0  0  0  0  0
   -2.9951   -5.4460    6.8737 H   0  0  0  0  0  0  0  0  0  0  0  0
   -4.3603   -6.8331    6.2285 H   0  0  0  0  0  0  0  0  0  0  0  0
   -5.5503   -9.6685    8.1143 H   0  0  0  0  0  0  0  0  0  0  0  0
   -5.7206   -7.9331    7.7677 H   0  0  0  0  0  0  0  0  0  0  0  0
   -4.1372   -8.7341    7.5679 H   0  0  0  0  0  0  0  0  0  0  0  0
   -7.3342  -11.5210    2.9134 H   0  0  0  0  0  0  0  0  0  0  0  0
   -7.5648   -9.9082    2.1917 H   0  0  0  0  0  0  0  0  0  0  0  0
   -6.0301  -10.7887    1.9465 H   0  0  0  0  0  0  0  0  0  0  0  0
   -5.8002   -8.4399    1.7533 H   0  0  0  0  0  0  0  0  0  0  0  0
   -4.0551   -8.7294    0.4885 H   0  0  0  0  0  0  0  0  0  0  0  0
   -3.1421  -12.0774   -0.5615 H   0  0  0  0  0  0  0  0  0  0  0  0
   -4.4374  -11.0308    0.0698 H   0  0  0  0  0  0  0  0  0  0  0  0
   -2.7266  -10.6315    0.3940 H   0  0  0  0  0  0  0  0  0  0  0  0
   -3.9487   -8.3370   -5.5732 H   0  0  0  0  0  0  0  0  0  0  0  0
   -2.7198   -9.6084   -5.7886 H   0  0  0  0  0  0  0  0  0  0  0  0
   -2.2365   -8.0011   -5.1904 H   0  0  0  0  0  0  0  0  0  0  0  0
   -3.7221   -6.6225   -4.0010 H   0  0  0  0  0  0  0  0  0  0  0  0
   -2.6763   -4.7846   -4.3196 H   0  0  0  0  0  0  0  0  0  0  0  0
   -0.3366   -4.7435   -4.3627 H   0  0  0  0  0  0  0  0  0  0  0  0
    0.4448   -6.5011   -5.9009 H   0  0  0  0  0  0  0  0  0  0  0  0
   -0.1594   -7.5857  -10.6544 H   0  0  0  0  0  0  0  0  0  0  0  0
   -0.4253   -5.8329  -10.6319 H   0  0  0  0  0  0  0  0  0  0  0  0
   -2.5950   -7.0794  -10.3976 H   0  0  0  0  0  0  0  0  0  0  0  0
   -2.2550   -6.1460   -8.9380 H   0  0  0  0  0  0  0  0  0  0  0  0
   -1.9686   -7.8896   -8.9544 H   0  0  0  0  0  0  0  0  0  0  0  0
   -1.1143   -2.2032   -7.7202 H   0  0  0  0  0  0  0  0  0  0  0  0
   -2.6830   -0.5312   -0.5325 H   0  0  0  0  0  0  0  0  0  0  0  0
   -3.4262    1.2132    1.0176 H   0  0  0  0  0  0  0  0  0  0  0  0
   -5.6066    4.8427   -0.8149 H   0  0  0  0  0  0  0  0  0  0  0  0
   -4.1535    5.8533   -0.5590 H   0  0  0  0  0  0  0  0  0  0  0  0
   -6.4148    5.4829    1.4735 H   0  0  0  0  0  0  0  0  0  0  0  0
   -4.9929    6.5169    1.6692 H   0  0  0  0  0  0  0  0  0  0  0  0
   -6.1997    6.9030    0.4395 H   0  0  0  0  0  0  0  0  0  0  0  0
   -3.1175    2.2338   -3.7760 H   0  0  0  0  0  0  0  0  0  0  0  0
   -0.6912    1.9696   -3.5224 H   0  0  0  0  0  0  0  0  0  0  0  0
    2.4748    0.4985   -7.2977 H   0  0  0  0  0  0  0  0  0  0  0  0
    5.4871   -0.0347  -10.2412 H   0  0  0  0  0  0  0  0  0  0  0  0
    6.5343    0.6964   -8.9998 H   0  0  0  0  0  0  0  0  0  0  0  0
    5.5981    1.7376  -10.1017 H   0  0  0  0  0  0  0  0  0  0  0  0
    6.5454    4.9353   -7.8101 H   0  0  0  0  0  0  0  0  0  0  0  0
    7.8934    3.9127   -8.3667 H   0  0  0  0  0  0  0  0  0  0  0  0
    7.4079    3.8837   -6.6531 H   0  0  0  0  0  0  0  0  0  0  0  0
    5.2766    4.3686   -6.0211 H   0  0  0  0  0  0  0  0  0  0  0  0
    1.9331    5.3460   -2.3062 H   0  0  0  0  0  0  0  0  0  0  0  0
    2.7946    7.1717    1.6447 H   0  0  0  0  0  0  0  0  0  0  0  0
    0.6600    6.8738    2.7688 H   0  0  0  0  0  0  0  0  0  0  0  0
   -1.1414    5.7179    3.5388 H   0  0  0  0  0  0  0  0  0  0  0  0
   -1.4066    7.4637    3.8514 H   0  0  0  0  0  0  0  0  0  0  0  0
   -2.9954    6.0023    5.1480 H   0  0  0  0  0  0  0  0  0  0  0  0
   -3.5866    5.3262    3.6305 H   0  0  0  0  0  0  0  0  0  0  0  0
   -3.8618    7.0366    4.0019 H   0  0  0  0  0  0  0  0  0  0  0  0
    0.7792    7.5084   -2.1210 H   0  0  0  0  0  0  0  0  0  0  0  0
    6.6186   10.3361   -3.4033 H   0  0  0  0  0  0  0  0  0  0  0  0
    8.6673   10.7170   -4.7134 H   0  0  0  0  0  0  0  0  0  0  0  0
   11.8037    7.0006   -5.1466 H   0  0  0  0  0  0  0  0  0  0  0  0
   12.8923    8.3361   -5.5653 H   0  0  0  0  0  0  0  0  0  0  0  0
   13.0732    7.8060   -3.1307 H   0  0  0  0  0  0  0  0  0  0  0  0
   12.4070    9.4279   -3.3670 H   0  0  0  0  0  0  0  0  0  0  0  0
   11.3422    8.0876   -2.9297 H   0  0  0  0  0  0  0  0  0  0  0  0
    7.5748    6.1661   -3.2043 H   0  0  0  0  0  0  0  0  0  0  0  0
    7.1247   10.0725   -0.9908 H   0  0  0  0  0  0  0  0  0  0  0  0
    5.8940   11.0640    1.0799 H   0  0  0  0  0  0  0  0  0  0  0  0
  1  2  2  0  0  0  0
  2  3  1  0  0  0  0
  3  4  2  0  0  0  0
  4  5  1  0  0  0  0
  5  6  2  0  0  0  0
  6  7  1  0  0  0  0
  7  8  2  0  0  0  0
  8  9  1  0  0  0  0
  9 10  1  0  0  0  0
 10 11  1  0  0  0  0
  8 12  1  0  0  0  0
 12 13  1  0  0  0  0
 12 14  2  0  0  0  0
  4 15  1  0  0  0  0
 15 16  2  0  0  0  0
 16 17  1  0  0  0  0
 17 18  1  0  0  0  0
 18 19  2  0  0  0  0
 19 20  1  0  0  0  0
 20 21  2  0  0  0  0
 21 22  1  0  0  0  0
 22 23  1  0  0  0  0
 23 24  1  0  0  0  0
 21 25  1  0  0  0  0
 25 26  2  0  0  0  0
 25 27  1  0  0  0  0
 17 28  2  0  0  0  0
 28 29  1  0  0  0  0
 16 30  1  0  0  0  0
 30 31  2  0  0  0  0
 31 32  1  0  0  0  0
 31 33  1  0  0  0  0
 33 34  1  0  0  0  0
 34 35  1  0  0  0  0
 35 36  2  0  0  0  0
 36 37  1  0  0  0  0
 37 38  1  0  0  0  0
 38 39  2  0  0  0  0
 39 40  1  0  0  0  0
 40 41  1  0  0  0  0
 39 42  1  0  0  0  0
 42 43  1  0  0  0  0
 43 44  1  0  0  0  0
 42 45  2  0  0  0  0
 35 46  1  0  0  0  0
 46 47  1  0  0  0  0
 47 48  1  0  0  0  0
 48 49  2  0  0  0  0
 49 50  1  0  0  0  0
 50 51  1  0  0  0  0
 51 52  2  0  0  0  0
 52 53  1  0  0  0  0
 53 54  1  0  0  0  0
 52 55  1  0  0  0  0
 55 56  1  0  0  0  0
 56 57  1  0  0  0  0
 55 58  2  0  0  0  0
 48 59  1  0  0  0  0
 59 60  2  0  0  0  0
 60 61  1  0  0  0  0
 61 62  2  0  0  0  0
 62 63  1  0  0  0  0
 63 64  2  0  0  0  0
 64 65  1  0  0  0  0
 65 66  2  0  0  0  0
 66 67  1  0  0  0  0
 67 68  1  0  0  0  0
 68 69  1  0  0  0  0
 66 70  1  0  0  0  0
 70 71  1  0  0  0  0
 70 72  2  0  0  0  0
 62 73  1  0  0  0  0
 73 74  2  0  0  0  0
 74 75  1  0  0  0  0
 75 76  1  0  0  0  0
 76 77  2  0  0  0  0
 77 78  1  0  0  0  0
 78 79  2  0  0  0  0
 79 80  1  0  0  0  0
 80 81  1  0  0  0  0
 81 82  1  0  0  0  0
 79 83  1  0  0  0  0
 83 84  2  0  0  0  0
 83 85  1  0  0  0  0
 75 86  2  0  0  0  0
 86 87  1  0  0  0  0
 74 88  1  0  0  0  0
 88 89  2  0  0  0  0
 89 90  1  0  0  0  0
 89 91  1  0  0  0  0
 91 92  1  0  0  0  0
 92 93  1  0  0  0  0
 93 94  2  0  0  0  0
 94 95  1  0  0  0  0
 95 96  1  0  0  0  0
 96 97  2  0  0  0  0
 97 98  1  0  0  0  0
 98 99  1  0  0  0  0
 97100  1  0  0  0  0
100101  1  0  0  0  0
101102  1  0  0  0  0
100103  2  0  0  0  0
 93104  1  0  0  0  0
104105  2  0  0  0  0
105106  1  0  0  0  0
106107  2  0  0  0  0
107108  1  0  0  0  0
108109  2  0  0  0  0
109110  1  0  0  0  0
110111  2  0  0  0  0
111112  1  0  0  0  0
112113  1  0  0  0  0
113114  1  0  0  0  0
111115  1  0  0  0  0
115116  1  0  0  0  0
115117  2  0  0  0  0
107118  1  0  0  0  0
118119  2  0  0  0  0
119120  1  0  0  0  0
120121  1  0  0  0  0
121122  2  0  0  0  0
122123  1  0  0  0  0
123124  2  0  0  0  0
124125  1  0  0  0  0
125126  1  0  0  0  0
126127  1  0  0  0  0
124128  1  0  0  0  0
128129  2  0  0  0  0
128130  1  0  0  0  0
120131  2  0  0  0  0
131132  1  0  0  0  0
119133  1  0  0  0  0
133134  2  0  0  0  0
134135  1  0  0  0  0
 29  1  1  0  0  0  0
 37 33  2  0  0  0  0
 50 46  2  0  0  0  0
 87 59  1  0  0  0  0
 95 91  2  0  0  0  0
132104  1  0  0  0  0
 28  3  1  0  0  0  0
 45 36  1  0  0  0  0
 58 49  1  0  0  0  0
 86 61  1  0  0  0  0
103 94  1  0  0  0  0
131106  1  0  0  0  0
 14  5  1  0  0  0  0
 32 15  1  0  0  0  0
 72 63  1  0  0  0  0
 90 73  1  0  0  0  0
117108  1  0  0  0  0
135118  1  0  0  0  0
 26 18  1  0  0  0  0
 84 76  1  0  0  0  0
129121  1  0  0  0  0
  1136  1  0  0  0  0
  2137  1  0  0  0  0
  6138  1  0  0  0  0
  7139  1  0  0  0  0
 10140  1  0  0  0  0
 10141  1  0  0  0  0
 11142  1  0  0  0  0
 11143  1  0  0  0  0
 11144  1  0  0  0  0
 14145  1  0  0  0  0
 19146  1  0  0  0  0
 20147  1  0  0  0  0
 23148  1  0  0  0  0
 23149  1  0  0  0  0
 24150  1  0  0  0  0
 24151  1  0  0  0  0
 24152  1  0  0  0  0
 26153  1  0  0  0  0
 30154  1  0  0  0  0
 38155  1  0  0  0  0
 41156  1  0  0  0  0
 41157  1  0  0  0  0
 41158  1  0  0  0  0
 44159  1  0  0  0  0
 44160  1  0  0  0  0
 44161  1  0  0  0  0
 45162  1  0  0  0  0
 51163  1  0  0  0  0
 54164  1  0  0  0  0
 54165  1  0  0  0  0
 54166  1  0  0  0  0
 57167  1  0  0  0  0
 57168  1  0  0  0  0
 57169  1  0  0  0  0
 58170  1  0  0  0  0
 60171  1  0  0  0  0
 64172  1  0  0  0  0
 65173  1  0  0  0  0
 68174  1  0  0  0  0
 68175  1  0  0  0  0
 69176  1  0  0  0  0
 69177  1  0  0  0  0
 69178  1  0  0  0  0
 72179  1  0  0  0  0
 77180  1  0  0  0  0
 78181  1  0  0  0  0
 81182  1  0  0  0  0
 81183  1  0  0  0  0
 82184  1  0  0  0  0
 82185  1  0  0  0  0
 82186  1  0  0  0  0
 84187  1  0  0  0  0
 88188  1  0  0  0  0
 96189  1  0  0  0  0
 99190  1  0  0  0  0
 99191  1  0  0  0  0
 99192  1  0  0  0  0
102193  1  0  0  0  0
102194  1  0  0  0  0
102195  1  0  0  0  0
103196  1  0  0  0  0
105197  1  0  0  0  0
109198  1  0  0  0  0
110199  1  0  0  0  0
113200  1  0  0  0  0
113201  1  0  0  0  0
114202  1  0  0  0  0
114203  1  0  0  0  0
114204  1  0  0  0  0
117205  1  0  0  0  0
122206  1  0  0  0  0
123207  1  0  0  0  0
126208  1  0  0  0  0
126209  1  0  0  0  0
127210  1  0  0  0  0
127211  1  0  0  0  0
127212  1  0  0  0  0
129213  1  0  0  0  0
133214  1  0  0  0  0
134215  1  0  0  0  0
M  END
