
  xtb     03042212003D
 energy: -279.023966280998 gnorm: 0.000135011414 xtb: 6.4.1 (unknown)
168183  0     0  0            999 V2000
   -1.6313    1.4875   14.1572 C   0  0  0  0  0  0  0  0  0  0  0  0
   -0.6515    0.7047   13.5626 C   0  0  0  0  0  0  0  0  0  0  0  0
    0.3270    0.0242   14.1757 N   0  0  0  0  0  0  0  0  0  0  0  0
    1.2044   -0.7287   13.0629 S   0  0  0  0  0  0  0  0  0  0  0  0
    0.4068   -0.2459   11.7508 N   0  0  0  0  0  0  0  0  0  0  0  0
   -0.6003    0.5426   12.1261 C   0  0  0  0  0  0  0  0  0  0  0  0
   -1.5342    1.1628   11.2593 C   0  0  0  0  0  0  0  0  0  0  0  0
   -2.5164    1.9710   11.8942 C   0  0  0  0  0  0  0  0  0  0  0  0
   -2.5527    2.1164   13.3232 C   0  0  0  0  0  0  0  0  0  0  0  0
   -3.5082    2.8883   13.8961 N   0  0  0  0  0  0  0  0  0  0  0  0
   -4.3811    3.5027   13.1465 C   0  0  0  0  0  0  0  0  0  0  0  0
   -5.3727    4.3738   13.8602 C   0  0  0  0  0  0  0  0  0  0  0  0
   -4.8409    5.8052   13.9637 C   0  0  0  0  0  0  0  0  0  0  0  0
   -4.3369    3.3728   11.7275 C   0  0  0  0  0  0  0  0  0  0  0  0
   -5.3277    4.0234   10.8048 C   0  0  0  0  0  0  0  0  0  0  0  0
   -6.5222    3.0952   10.5711 C   0  0  0  0  0  0  0  0  0  0  0  0
   -3.4304    2.6249   11.1521 N   0  0  0  0  0  0  0  0  0  0  0  0
   -1.4080    0.9319    9.8687 C   0  0  0  0  0  0  0  0  0  0  0  0
   -2.2409    1.3893    8.8866 C   0  0  0  0  0  0  0  0  0  0  0  0
   -2.0572    1.1450    7.5229 C   0  0  0  0  0  0  0  0  0  0  0  0
   -0.6920    0.2564    6.9145 S   0  0  0  0  0  0  0  0  0  0  0  0
   -1.1676    0.4437    5.2434 C   0  0  0  0  0  0  0  0  0  0  0  0
   -2.3889    1.1630    5.1787 C   0  0  0  0  0  0  0  0  0  0  0  0
   -2.8778    1.5531    6.4528 C   0  0  0  0  0  0  0  0  0  0  0  0
   -4.0824    2.2704    6.5637 C   0  0  0  0  0  0  0  0  0  0  0  0
   -4.7950    2.5958    5.4394 C   0  0  0  0  0  0  0  0  0  0  0  0
   -5.9659    3.2785    5.4197 O   0  0  0  0  0  0  0  0  0  0  0  0
   -6.5224    3.6807    6.6468 C   0  0  0  0  0  0  0  0  0  0  0  0
   -4.3132    2.1926    4.1510 C   0  0  0  0  0  0  0  0  0  0  0  0
   -5.1016    2.5583    3.1121 O   0  0  0  0  0  0  0  0  0  0  0  0
   -4.6894    2.2228    1.8087 C   0  0  0  0  0  0  0  0  0  0  0  0
   -3.1424    1.4863    4.0369 C   0  0  0  0  0  0  0  0  0  0  0  0
   -0.3590   -0.0286    4.2033 C   0  0  0  0  0  0  0  0  0  0  0  0
   -0.6141    0.4999    2.5548 S   0  0  0  0  0  0  0  0  0  0  0  0
    0.7046   -0.4341    1.9365 C   0  0  0  0  0  0  0  0  0  0  0  0
    1.3964   -1.0588    2.9902 C   0  0  0  0  0  0  0  0  0  0  0  0
    0.7884   -0.8610    4.2587 C   0  0  0  0  0  0  0  0  0  0  0  0
    1.3601   -1.4797    5.3843 C   0  0  0  0  0  0  0  0  0  0  0  0
    2.5494   -2.1573    5.2799 C   0  0  0  0  0  0  0  0  0  0  0  0
    3.1849   -2.7733    6.3038 O   0  0  0  0  0  0  0  0  0  0  0  0
    2.5978   -2.7308    7.5830 C   0  0  0  0  0  0  0  0  0  0  0  0
    3.2358   -2.2168    4.0233 C   0  0  0  0  0  0  0  0  0  0  0  0
    4.4599   -2.8020    4.0669 O   0  0  0  0  0  0  0  0  0  0  0  0
    5.2837   -2.7057    2.9305 C   0  0  0  0  0  0  0  0  0  0  0  0
    2.6451   -1.6986    2.9012 C   0  0  0  0  0  0  0  0  0  0  0  0
    0.9434   -0.4632    0.5465 C   0  0  0  0  0  0  0  0  0  0  0  0
    0.5624    0.6259   -0.2706 C   0  0  0  0  0  0  0  0  0  0  0  0
   -0.0663    1.7238    0.1439 N   0  0  0  0  0  0  0  0  0  0  0  0
   -0.2682    2.7123   -1.1154 S   0  0  0  0  0  0  0  0  0  0  0  0
    0.4289    1.7957   -2.2400 N   0  0  0  0  0  0  0  0  0  0  0  0
    0.8559    0.6645   -1.6802 C   0  0  0  0  0  0  0  0  0  0  0  0
    1.5052   -0.4016   -2.3536 C   0  0  0  0  0  0  0  0  0  0  0  0
    1.8216   -1.5253   -1.5378 C   0  0  0  0  0  0  0  0  0  0  0  0
    1.4759   -1.5851   -0.1496 C   0  0  0  0  0  0  0  0  0  0  0  0
    1.5204   -2.7728    0.4768 N   0  0  0  0  0  0  0  0  0  0  0  0
    1.9935   -3.8303   -0.1316 C   0  0  0  0  0  0  0  0  0  0  0  0
    1.8239   -5.1466    0.5685 C   0  0  0  0  0  0  0  0  0  0  0  0
    2.9296   -5.3965    1.5952 C   0  0  0  0  0  0  0  0  0  0  0  0
    2.6308   -3.6819   -1.3960 C   0  0  0  0  0  0  0  0  0  0  0  0
    3.4413   -4.7562   -2.0583 C   0  0  0  0  0  0  0  0  0  0  0  0
    2.6213   -5.4600   -3.1430 C   0  0  0  0  0  0  0  0  0  0  0  0
    2.4909   -2.5651   -2.0607 N   0  0  0  0  0  0  0  0  0  0  0  0
    1.7534   -0.2756   -3.7381 C   0  0  0  0  0  0  0  0  0  0  0  0
    2.1592   -1.2771   -4.5736 C   0  0  0  0  0  0  0  0  0  0  0  0
    2.4216   -1.1610   -5.9580 C   0  0  0  0  0  0  0  0  0  0  0  0
    2.5965   -2.3484   -6.7134 C   0  0  0  0  0  0  0  0  0  0  0  0
    2.5740   -3.5849   -6.2138 N   0  0  0  0  0  0  0  0  0  0  0  0
    2.8153   -4.6358   -7.4085 S   0  0  0  0  0  0  0  0  0  0  0  0
    2.9500   -3.5868   -8.6152 N   0  0  0  0  0  0  0  0  0  0  0  0
    2.8039   -2.3466   -8.1414 C   0  0  0  0  0  0  0  0  0  0  0  0
    2.8658   -1.1446   -8.8771 C   0  0  0  0  0  0  0  0  0  0  0  0
    2.7658    0.0454   -8.1120 C   0  0  0  0  0  0  0  0  0  0  0  0
    2.5244    0.0479   -6.7023 C   0  0  0  0  0  0  0  0  0  0  0  0
    2.3920    1.2242   -6.0639 N   0  0  0  0  0  0  0  0  0  0  0  0
    2.4645    2.3509   -6.7228 C   0  0  0  0  0  0  0  0  0  0  0  0
    2.3319    3.5972   -5.8983 C   0  0  0  0  0  0  0  0  0  0  0  0
    3.7011    4.0197   -5.3605 C   0  0  0  0  0  0  0  0  0  0  0  0
    2.7266    2.3489   -8.1219 C   0  0  0  0  0  0  0  0  0  0  0  0
    2.8235    3.5993   -8.9449 C   0  0  0  0  0  0  0  0  0  0  0  0
    1.4358    4.0079   -9.4447 C   0  0  0  0  0  0  0  0  0  0  0  0
    2.8736    1.2213   -8.7656 N   0  0  0  0  0  0  0  0  0  0  0  0
    3.1308   -1.0555  -10.2780 C   0  0  0  0  0  0  0  0  0  0  0  0
    2.9081   -1.9887  -11.2309 C   0  0  0  0  0  0  0  0  0  0  0  0
    2.0963   -3.1642  -11.1244 C   0  0  0  0  0  0  0  0  0  0  0  0
    2.4402   -4.3288  -11.8326 C   0  0  0  0  0  0  0  0  0  0  0  0
    3.5024   -4.4626  -12.6328 N   0  0  0  0  0  0  0  0  0  0  0  0
    3.5524   -5.9671  -13.1799 S   0  0  0  0  0  0  0  0  0  0  0  0
    2.2493   -6.5395  -12.4397 N   0  0  0  0  0  0  0  0  0  0  0  0
    1.6913   -5.5618  -11.7153 C   0  0  0  0  0  0  0  0  0  0  0  0
    0.5312   -5.6412  -10.9243 C   0  0  0  0  0  0  0  0  0  0  0  0
    0.1263   -4.4356  -10.3113 C   0  0  0  0  0  0  0  0  0  0  0  0
    0.8877   -3.2254  -10.3967 C   0  0  0  0  0  0  0  0  0  0  0  0
    0.4166   -2.1046   -9.8112 N   0  0  0  0  0  0  0  0  0  0  0  0
   -0.7150   -2.1215   -9.1652 C   0  0  0  0  0  0  0  0  0  0  0  0
   -1.1718   -0.8177   -8.5792 C   0  0  0  0  0  0  0  0  0  0  0  0
   -0.9412   -0.7567   -7.0682 C   0  0  0  0  0  0  0  0  0  0  0  0
   -1.4693   -3.3331   -9.0649 C   0  0  0  0  0  0  0  0  0  0  0  0
   -2.8310   -3.4117   -8.4389 C   0  0  0  0  0  0  0  0  0  0  0  0
   -3.9025   -3.1675   -9.5049 C   0  0  0  0  0  0  0  0  0  0  0  0
   -1.0384   -4.4283   -9.6233 N   0  0  0  0  0  0  0  0  0  0  0  0
   -0.2453   -6.8393  -10.7157 C   0  0  0  0  0  0  0  0  0  0  0  0
    0.0368   -8.0469  -11.2030 C   0  0  0  0  0  0  0  0  0  0  0  0
   -1.6872    1.6143   15.2245 H   0  0  0  0  0  0  0  0  0  0  0  0
   -5.5074    3.9735   14.8657 H   0  0  0  0  0  0  0  0  0  0  0  0
   -6.3341    4.3680   13.3460 H   0  0  0  0  0  0  0  0  0  0  0  0
   -5.5538    6.4336   14.4922 H   0  0  0  0  0  0  0  0  0  0  0  0
   -4.6669    6.2313   12.9774 H   0  0  0  0  0  0  0  0  0  0  0  0
   -3.9003    5.8104   14.5088 H   0  0  0  0  0  0  0  0  0  0  0  0
   -5.6714    4.9732   11.2132 H   0  0  0  0  0  0  0  0  0  0  0  0
   -4.8293    4.2152    9.8527 H   0  0  0  0  0  0  0  0  0  0  0  0
   -7.0273    2.8738   11.5089 H   0  0  0  0  0  0  0  0  0  0  0  0
   -6.1860    2.1555   10.1383 H   0  0  0  0  0  0  0  0  0  0  0  0
   -7.2362    3.5601    9.8944 H   0  0  0  0  0  0  0  0  0  0  0  0
   -0.5601    0.3175    9.5886 H   0  0  0  0  0  0  0  0  0  0  0  0
   -3.0920    1.9842    9.1803 H   0  0  0  0  0  0  0  0  0  0  0  0
   -4.4287    2.5495    7.5443 H   0  0  0  0  0  0  0  0  0  0  0  0
   -5.8629    4.3738    7.1793 H   0  0  0  0  0  0  0  0  0  0  0  0
   -6.7408    2.8212    7.2889 H   0  0  0  0  0  0  0  0  0  0  0  0
   -7.4517    4.1892    6.3952 H   0  0  0  0  0  0  0  0  0  0  0  0
   -5.4448    2.6430    1.1468 H   0  0  0  0  0  0  0  0  0  0  0  0
   -3.7125    2.6558    1.5711 H   0  0  0  0  0  0  0  0  0  0  0  0
   -4.6464    1.1380    1.6678 H   0  0  0  0  0  0  0  0  0  0  0  0
   -2.8042    1.1647    3.0698 H   0  0  0  0  0  0  0  0  0  0  0  0
    0.8655   -1.4152    6.3357 H   0  0  0  0  0  0  0  0  0  0  0  0
    3.2788   -3.2755    8.2346 H   0  0  0  0  0  0  0  0  0  0  0  0
    2.4926   -1.7032    7.9445 H   0  0  0  0  0  0  0  0  0  0  0  0
    1.6183   -3.2190    7.5919 H   0  0  0  0  0  0  0  0  0  0  0  0
    4.8642   -3.2419    2.0742 H   0  0  0  0  0  0  0  0  0  0  0  0
    6.2289   -3.1652    3.2145 H   0  0  0  0  0  0  0  0  0  0  0  0
    5.4547   -1.6609    2.6509 H   0  0  0  0  0  0  0  0  0  0  0  0
    3.1317   -1.7502    1.9434 H   0  0  0  0  0  0  0  0  0  0  0  0
    0.8655   -5.1254    1.0902 H   0  0  0  0  0  0  0  0  0  0  0  0
    1.8080   -5.9543   -0.1641 H   0  0  0  0  0  0  0  0  0  0  0  0
    3.9112   -5.3797    1.1244 H   0  0  0  0  0  0  0  0  0  0  0  0
    2.7910   -6.3686    2.0624 H   0  0  0  0  0  0  0  0  0  0  0  0
    2.8942   -4.6349    2.3695 H   0  0  0  0  0  0  0  0  0  0  0  0
    4.3095   -4.2894   -2.5269 H   0  0  0  0  0  0  0  0  0  0  0  0
    3.7865   -5.4807   -1.3204 H   0  0  0  0  0  0  0  0  0  0  0  0
    2.3591   -4.7576   -3.9300 H   0  0  0  0  0  0  0  0  0  0  0  0
    3.2016   -6.2685   -3.5813 H   0  0  0  0  0  0  0  0  0  0  0  0
    1.7058   -5.8762   -2.7269 H   0  0  0  0  0  0  0  0  0  0  0  0
    1.5572    0.7023   -4.1533 H   0  0  0  0  0  0  0  0  0  0  0  0
    2.2644   -2.2752   -4.1741 H   0  0  0  0  0  0  0  0  0  0  0  0
    1.8951    4.4057   -6.4843 H   0  0  0  0  0  0  0  0  0  0  0  0
    1.6762    3.3761   -5.0545 H   0  0  0  0  0  0  0  0  0  0  0  0
    4.1181    3.2228   -4.7500 H   0  0  0  0  0  0  0  0  0  0  0  0
    3.6054    4.9143   -4.7497 H   0  0  0  0  0  0  0  0  0  0  0  0
    4.3930    4.2272   -6.1746 H   0  0  0  0  0  0  0  0  0  0  0  0
    3.2653    4.4098   -8.3650 H   0  0  0  0  0  0  0  0  0  0  0  0
    3.4623    3.3906   -9.8041 H   0  0  0  0  0  0  0  0  0  0  0  0
    0.7624    4.2009   -8.6119 H   0  0  0  0  0  0  0  0  0  0  0  0
    1.5046    4.9081  -10.0510 H   0  0  0  0  0  0  0  0  0  0  0  0
    1.0123    3.2108  -10.0507 H   0  0  0  0  0  0  0  0  0  0  0  0
    3.6016   -0.1254  -10.5700 H   0  0  0  0  0  0  0  0  0  0  0  0
    3.3744   -1.8556  -12.1993 H   0  0  0  0  0  0  0  0  0  0  0  0
   -2.2301   -0.6616   -8.7972 H   0  0  0  0  0  0  0  0  0  0  0  0
   -0.5935   -0.0254   -9.0580 H   0  0  0  0  0  0  0  0  0  0  0  0
   -1.5099   -1.5199   -6.5422 H   0  0  0  0  0  0  0  0  0  0  0  0
   -1.2364    0.2174   -6.6855 H   0  0  0  0  0  0  0  0  0  0  0  0
    0.1098   -0.9075   -6.8417 H   0  0  0  0  0  0  0  0  0  0  0  0
   -2.9389   -2.6860   -7.6349 H   0  0  0  0  0  0  0  0  0  0  0  0
   -2.9609   -4.4152   -8.0311 H   0  0  0  0  0  0  0  0  0  0  0  0
   -4.8940   -3.2388   -9.0640 H   0  0  0  0  0  0  0  0  0  0  0  0
   -3.8159   -3.9100  -10.2942 H   0  0  0  0  0  0  0  0  0  0  0  0
   -3.7906   -2.1803   -9.9489 H   0  0  0  0  0  0  0  0  0  0  0  0
   -1.1217   -6.6843  -10.1012 H   0  0  0  0  0  0  0  0  0  0  0  0
   -0.6025   -8.8900  -11.0019 H   0  0  0  0  0  0  0  0  0  0  0  0
    0.9064   -8.2200  -11.8120 H   0  0  0  0  0  0  0  0  0  0  0  0
  1  2  1  0  0  0  0
  2  3  2  0  0  0  0
  3  4  1  0  0  0  0
  4  5  1  0  0  0  0
  5  6  2  0  0  0  0
  6  7  1  0  0  0  0
  7  8  2  0  0  0  0
  8  9  1  0  0  0  0
  9 10  1  0  0  0  0
 10 11  2  0  0  0  0
 11 12  1  0  0  0  0
 12 13  1  0  0  0  0
 11 14  1  0  0  0  0
 14 15  1  0  0  0  0
 15 16  1  0  0  0  0
 14 17  2  0  0  0  0
  7 18  1  0  0  0  0
 18 19  2  0  0  0  0
 19 20  1  0  0  0  0
 20 21  1  0  0  0  0
 21 22  1  0  0  0  0
 22 23  2  0  0  0  0
 23 24  1  0  0  0  0
 24 25  1  0  0  0  0
 25 26  2  0  0  0  0
 26 27  1  0  0  0  0
 27 28  1  0  0  0  0
 26 29  1  0  0  0  0
 29 30  1  0  0  0  0
 30 31  1  0  0  0  0
 29 32  2  0  0  0  0
 22 33  1  0  0  0  0
 33 34  1  0  0  0  0
 34 35  1  0  0  0  0
 35 36  2  0  0  0  0
 36 37  1  0  0  0  0
 37 38  1  0  0  0  0
 38 39  2  0  0  0  0
 39 40  1  0  0  0  0
 40 41  1  0  0  0  0
 39 42  1  0  0  0  0
 42 43  1  0  0  0  0
 43 44  1  0  0  0  0
 42 45  2  0  0  0  0
 35 46  1  0  0  0  0
 46 47  1  0  0  0  0
 47 48  2  0  0  0  0
 48 49  1  0  0  0  0
 49 50  1  0  0  0  0
 50 51  2  0  0  0  0
 51 52  1  0  0  0  0
 52 53  2  0  0  0  0
 53 54  1  0  0  0  0
 54 55  1  0  0  0  0
 55 56  2  0  0  0  0
 56 57  1  0  0  0  0
 57 58  1  0  0  0  0
 56 59  1  0  0  0  0
 59 60  1  0  0  0  0
 60 61  1  0  0  0  0
 59 62  2  0  0  0  0
 52 63  1  0  0  0  0
 63 64  2  0  0  0  0
 64 65  1  0  0  0  0
 65 66  1  0  0  0  0
 66 67  2  0  0  0  0
 67 68  1  0  0  0  0
 68 69  1  0  0  0  0
 69 70  2  0  0  0  0
 70 71  1  0  0  0  0
 71 72  2  0  0  0  0
 72 73  1  0  0  0  0
 73 74  1  0  0  0  0
 74 75  2  0  0  0  0
 75 76  1  0  0  0  0
 76 77  1  0  0  0  0
 75 78  1  0  0  0  0
 78 79  1  0  0  0  0
 79 80  1  0  0  0  0
 78 81  2  0  0  0  0
 71 82  1  0  0  0  0
 82 83  2  0  0  0  0
 83 84  1  0  0  0  0
 84 85  1  0  0  0  0
 85 86  2  0  0  0  0
 86 87  1  0  0  0  0
 87 88  1  0  0  0  0
 88 89  2  0  0  0  0
 89 90  1  0  0  0  0
 90 91  2  0  0  0  0
 91 92  1  0  0  0  0
 92 93  1  0  0  0  0
 93 94  2  0  0  0  0
 94 95  1  0  0  0  0
 95 96  1  0  0  0  0
 94 97  1  0  0  0  0
 97 98  1  0  0  0  0
 98 99  1  0  0  0  0
 97100  2  0  0  0  0
 90101  1  0  0  0  0
101102  2  0  0  0  0
  9  1  2  0  0  0  0
 24 20  2  0  0  0  0
 37 33  2  0  0  0  0
 54 46  2  0  0  0  0
 73 65  2  0  0  0  0
 92 84  2  0  0  0  0
  6  2  1  0  0  0  0
 17  8  1  0  0  0  0
 32 23  1  0  0  0  0
 45 36  1  0  0  0  0
 51 47  1  0  0  0  0
 62 53  1  0  0  0  0
 70 66  1  0  0  0  0
 81 72  1  0  0  0  0
 89 85  1  0  0  0  0
100 91  1  0  0  0  0
  1103  1  0  0  0  0
 12104  1  0  0  0  0
 12105  1  0  0  0  0
 13106  1  0  0  0  0
 13107  1  0  0  0  0
 13108  1  0  0  0  0
 15109  1  0  0  0  0
 15110  1  0  0  0  0
 16111  1  0  0  0  0
 16112  1  0  0  0  0
 16113  1  0  0  0  0
 18114  1  0  0  0  0
 19115  1  0  0  0  0
 25116  1  0  0  0  0
 28117  1  0  0  0  0
 28118  1  0  0  0  0
 28119  1  0  0  0  0
 31120  1  0  0  0  0
 31121  1  0  0  0  0
 31122  1  0  0  0  0
 32123  1  0  0  0  0
 38124  1  0  0  0  0
 41125  1  0  0  0  0
 41126  1  0  0  0  0
 41127  1  0  0  0  0
 44128  1  0  0  0  0
 44129  1  0  0  0  0
 44130  1  0  0  0  0
 45131  1  0  0  0  0
 57132  1  0  0  0  0
 57133  1  0  0  0  0
 58134  1  0  0  0  0
 58135  1  0  0  0  0
 58136  1  0  0  0  0
 60137  1  0  0  0  0
 60138  1  0  0  0  0
 61139  1  0  0  0  0
 61140  1  0  0  0  0
 61141  1  0  0  0  0
 63142  1  0  0  0  0
 64143  1  0  0  0  0
 76144  1  0  0  0  0
 76145  1  0  0  0  0
 77146  1  0  0  0  0
 77147  1  0  0  0  0
 77148  1  0  0  0  0
 79149  1  0  0  0  0
 79150  1  0  0  0  0
 80151  1  0  0  0  0
 80152  1  0  0  0  0
 80153  1  0  0  0  0
 82154  1  0  0  0  0
 83155  1  0  0  0  0
 95156  1  0  0  0  0
 95157  1  0  0  0  0
 96158  1  0  0  0  0
 96159  1  0  0  0  0
 96160  1  0  0  0  0
 98161  1  0  0  0  0
 98162  1  0  0  0  0
 99163  1  0  0  0  0
 99164  1  0  0  0  0
 99165  1  0  0  0  0
101166  1  0  0  0  0
102167  1  0  0  0  0
102168  1  0  0  0  0
M  END
