163

C        -14.18180        5.88610       -7.92780
C        -12.85960        5.80870       -7.68010
C        -12.56060        5.56330       -6.30550
C        -11.30860        5.42310       -5.69760
C        -10.02890        5.48470       -6.47660
C         -9.70430        4.12340       -7.09430
C        -11.31230        5.17440       -4.33790
C        -12.49150        5.07270       -3.55800
C        -13.74450        5.21120       -4.16780
C        -15.02460        5.14050       -3.39020
C        -15.36900        6.50370       -2.78720
C        -13.74000        5.45800       -5.52890
S        -15.16440        5.66990       -6.51960
C        -12.20240        4.82880       -2.18920
C        -10.86970        4.72370       -1.91270
S         -9.88900        4.95020       -3.35510
C        -10.20310        4.46970       -0.67960
S         -8.54640        4.94880       -0.51900
C         -8.42140        4.32280        1.09570
C         -9.63910        3.76940        1.49660
C        -10.64660        3.83990        0.48410
C        -11.90530        3.24120        0.71840
C        -12.17230        2.64560        1.91780
O        -13.33630        2.03300        2.25030
C        -14.36630        1.99400        1.29520
C        -11.17740        2.63020        2.95910
O        -11.57870        2.03330        4.10770
C        -10.65610        1.93990        5.16520
C         -9.94410        3.17370        2.74000
C         -7.15010        4.36510        1.72790
C         -6.03300        4.97750        1.22760
C         -4.85070        4.73030        1.96360
C         -3.54350        5.13700        1.66450
C         -3.22960        5.99830        0.47850
C         -3.08860        5.15150       -0.78800
C         -2.54600        4.62070        2.46830
C         -2.78660        3.77390        3.58070
C         -4.10260        3.43560        3.92870
C         -4.41570        2.53530        5.08640
C         -4.34430        1.06500        4.66920
C         -5.09330        3.90290        3.08900
S         -6.78820        3.49380        3.21020
C         -1.57860        3.29970        4.15160
C         -0.45710        3.73290        3.50420
S         -0.83630        4.83410        2.19570
C          0.88320        3.26520        3.66320
C          1.32170        2.23970        4.45020
C          2.65680        1.84310        4.18150
C          3.35630        0.74840        4.70820
C          2.80690       -0.08230        5.82860
C          3.03640        0.60740        7.17470
C          4.57840        0.46810        4.12770
C          5.15560        1.24760        3.09240
C          4.49100        2.38720        2.61960
C          5.08600        3.27890        1.57190
C          6.10130        4.23970        2.19330
C          3.24590        2.63630        3.16330
S          2.14510        3.87360        2.61240
C          6.34260        0.65780        2.58870
C          6.65940       -0.53190        3.17740
S          5.55280       -0.93950        4.47230
C          7.64330       -1.47610        2.75100
C          8.44160       -1.39620        1.64660
C          9.15040       -2.59130        1.36510
C          9.96980       -2.87290        0.26300
C         10.32070       -1.82790       -0.75290
C         11.46010       -0.94120       -0.24750
C         10.44260       -4.16700        0.16870
C         10.16390       -5.17940        1.12260
C          9.38620       -4.88470        2.24910
C          9.03760       -5.92310        3.27250
C          7.79760       -6.71070        2.84460
C          8.88200       -3.60000        2.32480
S          7.78340       -3.02590        3.55330
C         10.70580       -6.43200        0.73350
C         11.36000       -6.40170       -0.46060
S         11.38830       -4.79380       -1.16010
C         11.93140       -7.49630       -1.17430
C         12.52640       -7.47420       -2.39880
C         12.92520       -8.75450       -2.86610
C         13.53740       -9.08160       -4.08160
C         13.85130       -8.04480       -5.11780
C         12.61970       -7.74550       -5.97500
C         13.78780      -10.42460       -4.29830
C         13.47540      -11.44320       -3.36520
C         12.87870      -11.11490       -2.14330
C         12.49010      -12.15670       -1.13710
C         11.11430      -12.73960       -1.46570
C         12.61260       -9.77460       -1.93300
S         11.84070       -9.11710       -0.51060
C         13.84020      -12.73290       -3.85810
C         14.39270      -12.69200       -5.08650
S         14.51420      -11.09460       -5.73980
H        -14.66920        6.06120       -8.86720
H        -12.11010        5.91860       -8.44280
H         -9.21770        5.77590       -5.80520
H        -10.10700        6.23620       -7.26410
H         -8.77470        4.17480       -7.65600
H        -10.50100        3.80880       -7.76480
H         -9.59620        3.37410       -6.31350
H        -15.83100        4.83060       -4.05870
H        -14.93790        4.39760       -2.59500
H        -16.29740        6.44520       -2.22400
H        -15.48880        7.24170       -3.57670
H        -14.57600        6.83820       -2.12200
H        -12.96250        4.78580       -1.43210
H        -12.63150        3.23610       -0.07460
H        -14.69790        3.00120        1.02070
H        -15.18850        1.46180        1.77040
H        -14.05890        1.45490        0.39270
H        -10.34800        2.92950        5.51810
H        -11.17790        1.41680        5.96460
H         -9.76830        1.36930        4.87390
H         -9.18980        3.15820        3.50680
H         -6.06410        5.56340        0.32620
H         -4.01870        6.73910        0.33880
H         -2.29130        6.52710        0.66170
H         -4.00990        4.60960       -0.98970
H         -2.86260        5.78530       -1.64190
H         -2.28340        4.43030       -0.66880
H         -5.42350        2.75650        5.44570
H         -3.71450        2.72170        5.90170
H         -3.35210        0.82190        4.29560
H         -4.56730        0.41990        5.51580
H         -5.06580        0.86420        3.88080
H         -1.54310        2.62390        4.98620
H          0.68850        1.74190        5.16150
H          1.73840       -0.24960        5.68040
H          3.30600       -1.05380        5.83160
H          2.63500        0.00150        7.98350
H          4.10070        0.75180        7.34560
H          2.55080        1.58060        7.19230
H          4.28820        3.85490        1.09780
H          5.57400        2.67760        0.80260
H          6.53020        4.88310        1.42890
H          5.61760        4.86470        2.94040
H          6.90410        3.68660        2.67600
H          6.91430        1.07770        1.78170
H          8.48970       -0.52020        1.02640
H          9.44600       -1.21230       -0.97110
H         10.63020       -2.31940       -1.67800
H         11.70630       -0.18330       -0.98730
H         11.17650       -0.44680        0.67890
H         12.34680       -1.54170       -0.05820
H          9.87710       -6.60620        3.41100
H          8.83630       -5.42930        4.22600
H          6.94820       -6.04080        2.73310
H          7.97130       -7.20830        1.89310
H          7.55110       -7.46140        3.59150
H         10.59440       -7.33920        1.30050
H         12.66100       -6.56160       -2.95180
H         14.65440       -8.41340       -5.75990
H         14.19300       -7.12770       -4.63490
H         11.80360       -7.37990       -5.35590
H         12.28820       -8.64790       -6.48360
H         12.85470       -6.99250       -6.72330
H         13.23330      -12.95540       -1.12050
H         12.45800      -11.69940       -0.14540
H         10.36220      -11.95410       -1.45520
H         11.11970      -13.19700       -2.45270
H         10.83800      -13.49360       -0.73260
H         13.68890      -13.64550       -3.31050
H         14.74770      -13.51320       -5.67850
