212

C         -0.16900       -6.19060        9.98010
C         -0.57420       -5.04830        9.38890
C         -1.30170       -5.27870        8.18520
C         -1.91380       -4.33550        7.34630
C         -1.71340       -2.90740        7.53630
S         -3.03740       -1.78810        7.64010
C         -1.97690       -0.42500        7.75580
C         -2.50780        0.95460        7.93390
C         -2.72860        1.26980        9.41530
C         -0.67640       -0.83150        7.72060
Cl         0.66170        0.23700        7.79510
C         -0.52210       -2.23780        7.59400
Cl         1.01400       -2.99040        7.45120
C         -2.66300       -4.82750        6.28550
C         -2.74770       -6.20630        5.97530
C         -2.10690       -7.14920        6.79540
C         -2.17640       -8.57240        6.50910
S         -3.70640       -9.37330        6.29910
C         -2.95720      -10.91340        6.05340
C         -3.77000      -12.14410        5.85170
C         -4.20170      -12.74010        7.19370
C         -1.60180      -10.79800        6.13640
C         -1.15470       -9.47330        6.39080
Cl         0.50730       -9.06090        6.44870
Cl        -0.51650      -12.11300        5.94470
C         -1.41660       -6.66010        7.89950
S         -0.63000       -7.61800        9.12090
C         -3.44840       -6.43100        4.76120
C         -3.91880       -5.29070        4.18760
S         -3.52130       -3.85970        5.12180
C         -4.54540       -5.12240        2.91350
C         -5.28730       -4.06350        2.48550
C         -5.56740       -4.09690        1.09730
C         -6.17710       -3.09390        0.32330
C         -6.82600       -1.95240        0.94990
S         -8.11290       -2.20190        2.09420
C         -8.34870       -0.50300        2.32200
C         -9.34990        0.01760        3.29320
C         -8.76110        0.07110        4.70530
C         -7.46410        0.20010        1.56110
Cl        -7.38510        1.91250        1.52630
C         -6.59860       -0.61430        0.78100
Cl        -5.34720        0.05940       -0.18110
C         -6.06200       -3.21510       -1.05250
C         -5.38560       -4.28940       -1.68810
C         -4.90900       -5.36340       -0.91550
C         -4.27980       -6.53240       -1.50610
S         -2.97570       -6.41140       -2.65080
C         -2.80880       -8.12910       -2.76770
C         -1.75380       -8.74580       -3.61760
C         -0.43440       -8.86470       -2.85070
C         -3.71200       -8.74760       -1.95600
C         -4.54610       -7.84810       -1.24030
Cl        -5.81020       -8.38760       -0.21720
Cl        -3.85300      -10.45080       -1.80510
C         -4.99390       -5.22660        0.46700
S         -4.22190       -6.26920        1.62890
C         -5.18400       -4.03610       -3.06810
C         -5.66790       -2.82680       -3.47590
S         -6.57470       -2.02020       -2.20580
C         -5.22930       -2.02920       -4.57330
C         -5.53190       -0.70980       -4.75390
C         -4.56170       -0.00330       -5.49960
C         -4.42030        1.39340       -5.60710
C         -5.39470        2.31070       -5.03920
S         -5.93660        2.12970       -3.39450
C         -6.89760        3.56680       -3.46390
C         -7.70750        3.99200       -2.28890
C         -8.68760        2.89960       -1.86190
C         -6.78970        4.14520       -4.69280
Cl        -7.59690        5.58950       -5.15230
C         -5.93080        3.44400       -5.58270
Cl        -5.66880        3.95220       -7.19850
C         -3.20680        1.85900       -6.09070
C         -2.14800        1.00690       -6.49690
C         -2.34450       -0.38740       -6.51500
C         -1.31570       -1.32070       -6.93880
S          0.31660       -1.25190       -6.34060
C          0.78670       -2.66620       -7.21950
C          2.19030       -3.16090       -7.18450
C          3.07940       -2.35260       -8.13240
C         -0.26670       -3.14710       -7.93760
C         -1.46050       -2.39560       -7.77330
Cl        -2.90480       -2.77340       -8.61490
Cl        -0.18590       -4.53400       -8.94500
C         -3.53720       -0.85700       -5.97590
S         -3.83050       -2.51420       -5.51590
C         -0.93610        1.71790       -6.65520
C         -1.02820        3.04680       -6.34460
S         -2.69010        3.51980       -6.01220
C          0.03570        3.92280       -6.00510
S          1.48610        3.21610       -5.35210
C          2.01500        4.73070       -4.68000
C          1.17590        5.76700       -5.09360
C          0.03410        5.30420       -5.81390
C         -0.94660        6.22610       -6.23650
C         -0.78850        7.55870       -5.97450
O         -1.66850        8.53060       -6.30650
C         -2.86850        8.15390       -6.93970
C          0.40420        8.03480       -5.31680
O          0.46330        9.38380       -5.17930
C          1.61720        9.94570       -4.60620
C          1.36040        7.15450       -4.89570
C          3.01580        4.72080       -3.66920
S          4.33270        3.59200       -3.73290
C          4.80770        3.92860       -2.10100
C          4.00390        4.91920       -1.54400
C          2.97480        5.36320       -2.42710
C          2.00220        6.26880       -1.94590
C          2.10490        6.78040       -0.68390
O          1.23110        7.65220       -0.12080
C          0.08960        8.02060       -0.85410
C          3.20900        6.41250        0.16760
O          3.21740        7.03410        1.37210
C          4.23540        6.70300        2.28390
C          4.12260        5.49100       -0.25610
C          5.79570        3.14060       -1.43690
C          5.72260        2.66090       -0.16140
C          6.82080        1.84530        0.20470
C          7.03860        1.18040        1.42360
C          6.00210        1.11700        2.44000
S          6.30760        1.49150        4.11140
C          4.68100        1.12460        4.57490
C          4.23550        1.18890        5.99440
C          4.29990       -0.19280        6.65010
C          3.95790        0.72820        3.48930
Cl         2.30510        0.27090        3.56490
C          4.69980        0.72560        2.27850
Cl         4.02710        0.19320        0.79070
C          8.26430        0.54200        1.57860
C          9.24260        0.49420        0.55830
C          8.98680        1.08580       -0.68930
C          9.94800        1.02320       -1.77970
S         11.57400        1.60950       -1.58570
C         11.98280        1.25610       -3.23070
C         13.35580        1.49690       -3.75370
C         14.28850        0.33570       -3.40140
C         10.91590        0.70420       -3.87320
C          9.75860        0.57780       -3.05750
Cl         8.30750       -0.13710       -3.62310
Cl        10.94070        0.20800       -5.51570
C          7.77750        1.75220       -0.83570
S          7.25490        2.61580       -2.25410
C         10.38720       -0.25370        0.96270
C         10.27870       -0.74080        2.21510
S          8.78480       -0.33620        2.98940
H          0.38690       -6.29940       10.89090
H         -0.38790       -4.06870        9.78910
H         -1.79210        1.66330        7.51270
H         -3.45270        1.04960        7.39660
H         -1.79080        1.19590        9.96010
H         -3.43890        0.56920        9.84770
H         -3.11860        2.27760        9.52840
H         -4.65470      -11.90170        5.26030
H         -3.17040      -12.87320        5.30360
H         -3.32950      -12.99810        7.78900
H         -4.80240      -12.02350        7.74890
H         -4.79100      -13.63840        7.03070
H         -3.58760       -7.40130        4.32000
H         -5.58260       -3.25890        3.13490
H        -10.22920       -0.62850        3.29050
H         -9.64990        1.02030        2.98350
H         -8.46300       -0.92360        5.02790
H         -7.88850        0.71900        4.72500
H         -9.49870        0.45820        5.40290
H         -1.60260       -8.13380       -4.50840
H         -2.08790       -9.73840       -3.92570
H         -0.56710       -9.48230       -1.96610
H          0.32430       -9.31850       -3.48250
H         -0.08860       -7.88170       -2.54000
H         -4.61440       -4.67410       -3.71870
H         -6.37470       -0.24760       -4.27360
H         -7.04020        4.21730       -1.45250
H         -8.24770        4.90310       -2.55150
H         -9.26430        3.23040       -1.00240
H         -9.37290        2.66520       -2.67300
H         -8.14770        1.99510       -1.59090
H          2.57880       -3.07950       -6.16760
H          2.19740       -4.21150       -7.47980
H          4.09920       -2.72600       -8.09680
H          3.08170       -1.30410       -7.84420
H          2.71390       -2.43310       -9.15320
H          0.00050        1.25810       -6.91140
H         -1.80450        5.85920       -6.77370
H         -2.68030        7.70180       -7.91850
H         -3.43340        9.07510       -7.07010
H         -3.44450        7.45560       -6.32430
H          2.51160        9.71280       -5.19300
H          1.76670        9.60480       -3.57550
H          1.45260       11.02170       -4.60880
H          2.27210        7.48820       -4.42810
H          1.17460        6.52630       -2.58320
H          0.35190        8.54690       -1.77820
H         -0.47190        8.69150       -0.20630
H         -0.52770        7.15110       -1.10150
H          4.20630        5.64120        2.55030
H          4.04210        7.30310        3.17130
H          5.22620        6.94860        1.88790
H          4.94980        5.18980        0.36430
H          4.88710        2.85500        0.48470
H          4.87130        1.88550        6.54270
H          3.20600        1.55280        6.02560
H          3.97180       -0.12910        7.68410
H          5.31710       -0.57660        6.62760
H          3.65270       -0.88960        6.12400
H         13.30120        1.60670       -4.83820
H         13.75000        2.42090       -3.32700
H         14.35300        0.21780       -2.32220
H         15.28460        0.52530       -3.79180
H         13.91580       -0.59040       -3.83150
H         11.24250       -0.41340        0.33240
H         10.99140       -1.33080        2.75720
