
  xtb     03042207043D
 energy: -281.952675973509 gnorm: 0.000246353794 xtb: 6.4.1 (unknown)
148159  0     0  0            999 V2000
   -1.1871    4.0795    5.5607 C   0  0  0  0  0  0  0  0  0  0  0  0
   -2.4289    2.9793    6.0137 S   0  0  0  0  0  0  0  0  0  0  0  0
   -1.2983    2.0266    6.9392 C   0  0  0  0  0  0  0  0  0  0  0  0
   -0.0448    2.5730    6.8851 C   0  0  0  0  0  0  0  0  0  0  0  0
    0.0218    3.7407    6.0823 C   0  0  0  0  0  0  0  0  0  0  0  0
    1.3018    4.4780    5.8350 C   0  0  0  0  0  0  0  0  0  0  0  0
    2.3241    4.1067    6.9312 C   0  0  0  0  0  0  0  0  0  0  0  0
    3.6027    4.8331    6.6441 C   0  0  0  0  0  0  0  0  0  0  0  0
    3.9005    5.9060    7.0860 O   0  0  0  0  0  0  0  0  0  0  0  0
    4.6083    4.1315    5.6750 C   0  0  0  0  0  0  0  0  0  0  0  0
    4.0199    3.5989    4.5929 F   0  0  0  0  0  0  0  0  0  0  0  0
    5.2569    3.1324    6.2946 F   0  0  0  0  0  0  0  0  0  0  0  0
    5.5295    4.9863    5.2342 F   0  0  0  0  0  0  0  0  0  0  0  0
    2.4430    2.5827    7.0204 C   0  0  0  0  0  0  0  0  0  0  0  0
    1.1478    2.0146    7.5974 C   0  0  0  0  0  0  0  0  0  0  0  0
   -1.7097    0.9059    7.7582 C   0  0  0  0  0  0  0  0  0  0  0  0
   -2.3197   -0.2290    7.3655 C   0  0  0  0  0  0  0  0  0  0  0  0
   -2.5951   -0.6916    6.0509 C   0  0  0  0  0  0  0  0  0  0  0  0
   -2.0565    0.1233    4.6169 S   0  0  0  0  0  0  0  0  0  0  0  0
   -2.6341   -1.1311    3.5674 C   0  0  0  0  0  0  0  0  0  0  0  0
   -3.2369   -2.1498    4.3104 C   0  0  0  0  0  0  0  0  0  0  0  0
   -3.2199   -1.8975    5.7134 C   0  0  0  0  0  0  0  0  0  0  0  0
   -3.8158   -2.8307    6.5906 C   0  0  0  0  0  0  0  0  0  0  0  0
   -4.4135   -3.9554    6.0953 C   0  0  0  0  0  0  0  0  0  0  0  0
   -5.0172   -4.9172    6.8366 O   0  0  0  0  0  0  0  0  0  0  0  0
   -5.0407   -4.7697    8.2337 C   0  0  0  0  0  0  0  0  0  0  0  0
   -4.4567   -4.1918    4.6749 C   0  0  0  0  0  0  0  0  0  0  0  0
   -5.1058   -5.3257    4.3153 O   0  0  0  0  0  0  0  0  0  0  0  0
   -5.2006   -5.6305    2.9445 C   0  0  0  0  0  0  0  0  0  0  0  0
   -3.8792   -3.3045    3.8125 C   0  0  0  0  0  0  0  0  0  0  0  0
   -2.4500   -1.0602    2.1606 C   0  0  0  0  0  0  0  0  0  0  0  0
   -2.1252   -2.4987    1.2440 S   0  0  0  0  0  0  0  0  0  0  0  0
   -2.0776   -1.6381   -0.2581 C   0  0  0  0  0  0  0  0  0  0  0  0
   -2.2789   -0.2795   -0.0553 C   0  0  0  0  0  0  0  0  0  0  0  0
   -2.4733    0.0548    1.3204 C   0  0  0  0  0  0  0  0  0  0  0  0
   -2.7040    1.4002    1.6823 C   0  0  0  0  0  0  0  0  0  0  0  0
   -2.7108    2.3729    0.7243 C   0  0  0  0  0  0  0  0  0  0  0  0
   -2.9177    3.6941    0.9494 O   0  0  0  0  0  0  0  0  0  0  0  0
   -3.1055    4.1149    2.2777 C   0  0  0  0  0  0  0  0  0  0  0  0
   -2.4762    2.0400   -0.6590 C   0  0  0  0  0  0  0  0  0  0  0  0
   -2.4935    3.1103   -1.4945 O   0  0  0  0  0  0  0  0  0  0  0  0
   -2.3692    2.8809   -2.8723 C   0  0  0  0  0  0  0  0  0  0  0  0
   -2.2639    0.7451   -1.0319 C   0  0  0  0  0  0  0  0  0  0  0  0
   -1.8941   -2.3776   -1.4724 C   0  0  0  0  0  0  0  0  0  0  0  0
   -0.6133   -3.5494   -1.5910 S   0  0  0  0  0  0  0  0  0  0  0  0
   -1.1651   -4.0642   -3.1611 C   0  0  0  0  0  0  0  0  0  0  0  0
   -2.2809   -3.3620   -3.5468 C   0  0  0  0  0  0  0  0  0  0  0  0
   -2.6773   -2.3898   -2.6014 C   0  0  0  0  0  0  0  0  0  0  0  0
   -3.9094   -1.5673   -2.8077 C   0  0  0  0  0  0  0  0  0  0  0  0
   -4.9059   -2.3937   -3.6359 C   0  0  0  0  0  0  0  0  0  0  0  0
   -5.3444   -3.6308   -2.9053 C   0  0  0  0  0  0  0  0  0  0  0  0
   -5.3435   -4.7517   -3.3221 O   0  0  0  0  0  0  0  0  0  0  0  0
   -5.8893   -3.3773   -1.4617 C   0  0  0  0  0  0  0  0  0  0  0  0
   -6.5414   -2.2081   -1.3555 F   0  0  0  0  0  0  0  0  0  0  0  0
   -4.9059   -3.3594   -0.5497 F   0  0  0  0  0  0  0  0  0  0  0  0
   -6.7434   -4.3336   -1.0944 F   0  0  0  0  0  0  0  0  0  0  0  0
   -4.2636   -2.7429   -4.9820 C   0  0  0  0  0  0  0  0  0  0  0  0
   -3.0304   -3.6377   -4.8136 C   0  0  0  0  0  0  0  0  0  0  0  0
   -0.5534   -5.1886   -3.8223 C   0  0  0  0  0  0  0  0  0  0  0  0
    0.7666   -5.4187   -3.9266 C   0  0  0  0  0  0  0  0  0  0  0  0
    1.8169   -4.4765   -3.6668 C   0  0  0  0  0  0  0  0  0  0  0  0
    1.5815   -2.7734   -3.9289 S   0  0  0  0  0  0  0  0  0  0  0  0
    3.2642   -2.4366   -3.6280 C   0  0  0  0  0  0  0  0  0  0  0  0
    3.9472   -3.5959   -3.3100 C   0  0  0  0  0  0  0  0  0  0  0  0
    3.1345   -4.7441   -3.3544 C   0  0  0  0  0  0  0  0  0  0  0  0
    3.6511   -6.1145   -3.0425 C   0  0  0  0  0  0  0  0  0  0  0  0
    5.1901   -6.1274   -3.1590 C   0  0  0  0  0  0  0  0  0  0  0  0
    5.6706   -7.4999   -2.7955 C   0  0  0  0  0  0  0  0  0  0  0  0
    5.8368   -8.3979   -3.5705 O   0  0  0  0  0  0  0  0  0  0  0  0
    5.9479   -7.7690   -1.2817 C   0  0  0  0  0  0  0  0  0  0  0  0
    7.0987   -7.1963   -0.8937 F   0  0  0  0  0  0  0  0  0  0  0  0
    4.9865   -7.2918   -0.4763 F   0  0  0  0  0  0  0  0  0  0  0  0
    6.0522   -9.0728   -1.0341 F   0  0  0  0  0  0  0  0  0  0  0  0
    5.7713   -4.9829   -2.3272 C   0  0  0  0  0  0  0  0  0  0  0  0
    5.4091   -3.6553   -2.9901 C   0  0  0  0  0  0  0  0  0  0  0  0
    3.7914   -1.1250   -3.7724 C   0  0  0  0  0  0  0  0  0  0  0  0
    3.0587   -0.0546   -4.1499 C   0  0  0  0  0  0  0  0  0  0  0  0
    3.5774    1.2465   -4.3894 C   0  0  0  0  0  0  0  0  0  0  0  0
    5.2662    1.6173   -4.2162 S   0  0  0  0  0  0  0  0  0  0  0  0
    5.0240    3.2574   -4.7490 C   0  0  0  0  0  0  0  0  0  0  0  0
    3.6967    3.4842   -5.0540 C   0  0  0  0  0  0  0  0  0  0  0  0
    2.8819    2.3561   -4.8347 C   0  0  0  0  0  0  0  0  0  0  0  0
    1.4048    2.3447   -5.0995 C   0  0  0  0  0  0  0  0  0  0  0  0
    0.8847    3.7753   -5.2365 C   0  0  0  0  0  0  0  0  0  0  0  0
   -0.5428    3.9064   -5.6667 C   0  0  0  0  0  0  0  0  0  0  0  0
   -1.2819    4.7894   -5.3331 O   0  0  0  0  0  0  0  0  0  0  0  0
   -1.0984    2.8233   -6.6447 C   0  0  0  0  0  0  0  0  0  0  0  0
   -1.3088    1.6590   -6.0010 F   0  0  0  0  0  0  0  0  0  0  0  0
   -2.2661    3.1938   -7.1639 F   0  0  0  0  0  0  0  0  0  0  0  0
   -0.2748    2.5611   -7.6689 F   0  0  0  0  0  0  0  0  0  0  0  0
    1.7722    4.5383   -6.2420 C   0  0  0  0  0  0  0  0  0  0  0  0
    3.1436    4.7606   -5.6093 C   0  0  0  0  0  0  0  0  0  0  0  0
    6.1857    4.1025   -4.8092 C   0  0  0  0  0  0  0  0  0  0  0  0
    6.2239    5.4299   -4.9119 C   0  0  0  0  0  0  0  0  0  0  0  0
   -1.4264    4.9195    4.9395 H   0  0  0  0  0  0  0  0  0  0  0  0
    1.1254    5.5557    5.8319 H   0  0  0  0  0  0  0  0  0  0  0  0
    1.6917    4.1973    4.8527 H   0  0  0  0  0  0  0  0  0  0  0  0
    1.9515    4.5010    7.8837 H   0  0  0  0  0  0  0  0  0  0  0  0
    2.6099    2.1607    6.0284 H   0  0  0  0  0  0  0  0  0  0  0  0
    3.2795    2.3001    7.6614 H   0  0  0  0  0  0  0  0  0  0  0  0
    1.0776    2.2658    8.6615 H   0  0  0  0  0  0  0  0  0  0  0  0
    1.1507    0.9256    7.5209 H   0  0  0  0  0  0  0  0  0  0  0  0
   -1.4771    1.0157    8.8113 H   0  0  0  0  0  0  0  0  0  0  0  0
   -2.5885   -0.9322    8.1430 H   0  0  0  0  0  0  0  0  0  0  0  0
   -3.8009   -2.6352    7.6497 H   0  0  0  0  0  0  0  0  0  0  0  0
   -5.5641   -5.6455    8.6134 H   0  0  0  0  0  0  0  0  0  0  0  0
   -5.5818   -3.8659    8.5339 H   0  0  0  0  0  0  0  0  0  0  0  0
   -4.0290   -4.7424    8.6525 H   0  0  0  0  0  0  0  0  0  0  0  0
   -4.2119   -5.7528    2.4910 H   0  0  0  0  0  0  0  0  0  0  0  0
   -5.7442   -6.5720    2.8899 H   0  0  0  0  0  0  0  0  0  0  0  0
   -5.7539   -4.8601    2.3985 H   0  0  0  0  0  0  0  0  0  0  0  0
   -3.9189   -3.4604    2.7483 H   0  0  0  0  0  0  0  0  0  0  0  0
   -2.8768    1.6365    2.7183 H   0  0  0  0  0  0  0  0  0  0  0  0
   -2.2437    3.8560    2.9009 H   0  0  0  0  0  0  0  0  0  0  0  0
   -3.2133    5.1973    2.2307 H   0  0  0  0  0  0  0  0  0  0  0  0
   -4.0083    3.6788    2.7173 H   0  0  0  0  0  0  0  0  0  0  0  0
   -1.4016    2.4293   -3.1218 H   0  0  0  0  0  0  0  0  0  0  0  0
   -2.4451    3.8595   -3.3439 H   0  0  0  0  0  0  0  0  0  0  0  0
   -3.1697    2.2340   -3.2471 H   0  0  0  0  0  0  0  0  0  0  0  0
   -2.0651    0.4731   -2.0548 H   0  0  0  0  0  0  0  0  0  0  0  0
   -3.6753   -0.6637   -3.3777 H   0  0  0  0  0  0  0  0  0  0  0  0
   -4.3200   -1.2473   -1.8494 H   0  0  0  0  0  0  0  0  0  0  0  0
   -5.8120   -1.7949   -3.7969 H   0  0  0  0  0  0  0  0  0  0  0  0
   -3.9814   -1.8086   -5.4696 H   0  0  0  0  0  0  0  0  0  0  0  0
   -4.9894   -3.2504   -5.6183 H   0  0  0  0  0  0  0  0  0  0  0  0
   -2.3669   -3.5113   -5.6723 H   0  0  0  0  0  0  0  0  0  0  0  0
   -3.3398   -4.6867   -4.7994 H   0  0  0  0  0  0  0  0  0  0  0  0
   -1.2450   -5.9240   -4.2156 H   0  0  0  0  0  0  0  0  0  0  0  0
    1.0948   -6.3765   -4.3112 H   0  0  0  0  0  0  0  0  0  0  0  0
    3.2216   -6.8488   -3.7280 H   0  0  0  0  0  0  0  0  0  0  0  0
    3.3476   -6.3897   -2.0285 H   0  0  0  0  0  0  0  0  0  0  0  0
    5.4473   -5.9792   -4.2144 H   0  0  0  0  0  0  0  0  0  0  0  0
    5.3588   -5.0053   -1.3176 H   0  0  0  0  0  0  0  0  0  0  0  0
    6.8568   -5.0686   -2.2593 H   0  0  0  0  0  0  0  0  0  0  0  0
    5.6812   -2.8312   -2.3282 H   0  0  0  0  0  0  0  0  0  0  0  0
    5.9838   -3.5367   -3.9148 H   0  0  0  0  0  0  0  0  0  0  0  0
    4.8528   -1.0069   -3.5998 H   0  0  0  0  0  0  0  0  0  0  0  0
    1.9986   -0.1868   -4.3221 H   0  0  0  0  0  0  0  0  0  0  0  0
    1.2268    1.7746   -6.0149 H   0  0  0  0  0  0  0  0  0  0  0  0
    0.8864    1.8347   -4.2837 H   0  0  0  0  0  0  0  0  0  0  0  0
    0.9618    4.2917   -4.2726 H   0  0  0  0  0  0  0  0  0  0  0  0
    1.8697    3.9515   -7.1567 H   0  0  0  0  0  0  0  0  0  0  0  0
    1.3221    5.5003   -6.4918 H   0  0  0  0  0  0  0  0  0  0  0  0
    3.8290    5.1598   -6.3599 H   0  0  0  0  0  0  0  0  0  0  0  0
    3.0553    5.5003   -4.8075 H   0  0  0  0  0  0  0  0  0  0  0  0
    7.1206    3.5602   -4.7360 H   0  0  0  0  0  0  0  0  0  0  0  0
    7.1674    5.9461   -4.9466 H   0  0  0  0  0  0  0  0  0  0  0  0
    5.3454    6.0467   -4.9422 H   0  0  0  0  0  0  0  0  0  0  0  0
  1  2  1  0  0  0  0
  2  3  1  0  0  0  0
  3  4  2  0  0  0  0
  4  5  1  0  0  0  0
  5  6  1  0  0  0  0
  6  7  1  0  0  0  0
  7  8  1  0  0  0  0
  8  9  2  0  0  0  0
  8 10  1  0  0  0  0
 10 11  1  0  0  0  0
 10 12  1  0  0  0  0
 10 13  1  0  0  0  0
  7 14  1  0  0  0  0
 14 15  1  0  0  0  0
  3 16  1  0  0  0  0
 16 17  2  0  0  0  0
 17 18  1  0  0  0  0
 18 19  1  0  0  0  0
 19 20  1  0  0  0  0
 20 21  2  0  0  0  0
 21 22  1  0  0  0  0
 22 23  1  0  0  0  0
 23 24  2  0  0  0  0
 24 25  1  0  0  0  0
 25 26  1  0  0  0  0
 24 27  1  0  0  0  0
 27 28  1  0  0  0  0
 28 29  1  0  0  0  0
 27 30  2  0  0  0  0
 20 31  1  0  0  0  0
 31 32  1  0  0  0  0
 32 33  1  0  0  0  0
 33 34  2  0  0  0  0
 34 35  1  0  0  0  0
 35 36  1  0  0  0  0
 36 37  2  0  0  0  0
 37 38  1  0  0  0  0
 38 39  1  0  0  0  0
 37 40  1  0  0  0  0
 40 41  1  0  0  0  0
 41 42  1  0  0  0  0
 40 43  2  0  0  0  0
 33 44  1  0  0  0  0
 44 45  1  0  0  0  0
 45 46  1  0  0  0  0
 46 47  2  0  0  0  0
 47 48  1  0  0  0  0
 48 49  1  0  0  0  0
 49 50  1  0  0  0  0
 50 51  1  0  0  0  0
 51 52  2  0  0  0  0
 51 53  1  0  0  0  0
 53 54  1  0  0  0  0
 53 55  1  0  0  0  0
 53 56  1  0  0  0  0
 50 57  1  0  0  0  0
 57 58  1  0  0  0  0
 46 59  1  0  0  0  0
 59 60  2  0  0  0  0
 60 61  1  0  0  0  0
 61 62  1  0  0  0  0
 62 63  1  0  0  0  0
 63 64  2  0  0  0  0
 64 65  1  0  0  0  0
 65 66  1  0  0  0  0
 66 67  1  0  0  0  0
 67 68  1  0  0  0  0
 68 69  2  0  0  0  0
 68 70  1  0  0  0  0
 70 71  1  0  0  0  0
 70 72  1  0  0  0  0
 70 73  1  0  0  0  0
 67 74  1  0  0  0  0
 74 75  1  0  0  0  0
 63 76  1  0  0  0  0
 76 77  2  0  0  0  0
 77 78  1  0  0  0  0
 78 79  1  0  0  0  0
 79 80  1  0  0  0  0
 80 81  2  0  0  0  0
 81 82  1  0  0  0  0
 82 83  1  0  0  0  0
 83 84  1  0  0  0  0
 84 85  1  0  0  0  0
 85 86  2  0  0  0  0
 85 87  1  0  0  0  0
 87 88  1  0  0  0  0
 87 89  1  0  0  0  0
 87 90  1  0  0  0  0
 84 91  1  0  0  0  0
 91 92  1  0  0  0  0
 80 93  1  0  0  0  0
 93 94  2  0  0  0  0
  5  1  2  0  0  0  0
 22 18  2  0  0  0  0
 35 31  2  0  0  0  0
 48 44  2  0  0  0  0
 65 61  2  0  0  0  0
 82 78  2  0  0  0  0
 15  4  1  0  0  0  0
 30 21  1  0  0  0  0
 43 34  1  0  0  0  0
 58 47  1  0  0  0  0
 75 64  1  0  0  0  0
 92 81  1  0  0  0  0
  1 95  1  0  0  0  0
  6 96  1  0  0  0  0
  6 97  1  0  0  0  0
  7 98  1  0  0  0  0
 14 99  1  0  0  0  0
 14100  1  0  0  0  0
 15101  1  0  0  0  0
 15102  1  0  0  0  0
 16103  1  0  0  0  0
 17104  1  0  0  0  0
 23105  1  0  0  0  0
 26106  1  0  0  0  0
 26107  1  0  0  0  0
 26108  1  0  0  0  0
 29109  1  0  0  0  0
 29110  1  0  0  0  0
 29111  1  0  0  0  0
 30112  1  0  0  0  0
 36113  1  0  0  0  0
 39114  1  0  0  0  0
 39115  1  0  0  0  0
 39116  1  0  0  0  0
 42117  1  0  0  0  0
 42118  1  0  0  0  0
 42119  1  0  0  0  0
 43120  1  0  0  0  0
 49121  1  0  0  0  0
 49122  1  0  0  0  0
 50123  1  0  0  0  0
 57124  1  0  0  0  0
 57125  1  0  0  0  0
 58126  1  0  0  0  0
 58127  1  0  0  0  0
 59128  1  0  0  0  0
 60129  1  0  0  0  0
 66130  1  0  0  0  0
 66131  1  0  0  0  0
 67132  1  0  0  0  0
 74133  1  0  0  0  0
 74134  1  0  0  0  0
 75135  1  0  0  0  0
 75136  1  0  0  0  0
 76137  1  0  0  0  0
 77138  1  0  0  0  0
 83139  1  0  0  0  0
 83140  1  0  0  0  0
 84141  1  0  0  0  0
 91142  1  0  0  0  0
 91143  1  0  0  0  0
 92144  1  0  0  0  0
 92145  1  0  0  0  0
 93146  1  0  0  0  0
 94147  1  0  0  0  0
 94148  1  0  0  0  0
M  END
