128

C          2.76890        1.17320        9.44300
S          1.47990        0.24450        8.81850
C          1.48120        1.10320        7.30570
C          2.46860        2.09040        7.31900
C          3.20480        2.11990        8.54740
C          4.25440        3.05580        8.72880
C          4.54910        3.94380        7.73900
O          5.53170        4.88120        7.78030
C          6.34680        4.93340        8.92290
C          3.78040        3.94780        6.51760
O          4.15170        4.90740        5.63050
C          3.46360        4.98270        4.40730
C          2.77600        3.04530        6.32260
C          0.58870        0.73750        6.25460
S          1.00900        1.09270        4.59700
C         -0.47560        0.40090        4.00770
C         -1.22350       -0.10400        5.04240
C         -0.62750        0.08600        6.30960
C         -1.29230       -0.37370        7.57050
C         -0.75390       -1.69650        8.05250
C         -0.02470       -2.53520        7.34070
C         -2.80820       -0.49040        7.34530
C         -3.08720       -1.37040        6.13410
C         -2.59130       -0.68900        4.86270
C         -0.76460        0.40740        2.60010
S         -1.23070       -1.06130        1.78910
C         -1.35850       -0.24380        0.24910
C         -1.05760        1.09850        0.39390
C         -0.70360        1.45510        1.71330
C         -0.38070        2.86240        2.13800
C         -1.49360        3.36120        3.01800
C         -1.33590        3.76650        4.26330
C         -0.17790        3.76910        0.91660
C         -1.24300        3.52280       -0.14360
C         -1.10980        2.11000       -0.70540
C         -1.66360       -0.97720       -0.93200
S         -1.25920       -0.32520       -2.49370
C         -1.76030       -1.75150       -3.32640
C         -2.26220       -2.68670       -2.43690
C         -2.20180       -2.25940       -1.07560
C         -2.69300       -3.12640       -0.07350
C         -3.19220       -4.35340       -0.40450
O         -3.67620       -5.26450        0.47900
C         -3.65270       -4.94180        1.84670
C         -3.25950       -4.77360       -1.78150
O         -3.79420       -6.00900       -1.96500
C         -3.89400       -6.49630       -3.27860
C         -2.81750       -3.94500       -2.76930
C         -1.57550       -1.89380       -4.74500
S         -2.31740       -0.78570       -5.86450
C         -1.61090       -1.62740       -7.21270
C         -0.86910       -2.69980       -6.80420
C         -0.83390       -2.84620       -5.39560
C         -0.00010       -3.88780       -4.69850
C          0.77270       -3.27030       -3.56870
C          0.78130       -3.72120       -2.32910
C          0.96830       -4.53730       -5.69840
C          0.24930       -4.90210       -6.99250
C         -0.14890       -3.62780       -7.73080
C         -1.78620       -1.15030       -8.56780
S         -3.27170       -1.41720       -9.43780
C         -2.63250       -0.62260      -10.82180
C         -1.36500       -0.17250      -10.63140
C         -0.87550       -0.47500       -9.33100
C          0.50280       -0.09030       -8.86540
C          0.48280        0.40360       -7.44880
C          1.24900       -0.05900       -6.47950
C          1.07640        0.98940       -9.79480
C          0.91830        0.57890      -11.25510
C         -0.55900        0.58580      -11.63950
H          3.13450        0.97600       10.43050
H          4.79620        3.03620        9.66020
H          7.06710        5.72800        8.73590
H          6.87980        3.98930        9.07910
H          5.76720        5.17320        9.82090
H          2.40120        5.20480        4.55490
H          3.92870        5.79990        3.85820
H          3.56140        4.05550        3.83290
H          2.20150        3.05560        5.41360
H         -1.11420        0.36540        8.36230
H         -1.04310       -1.95050        9.06400
H          0.30950       -3.47630        7.74350
H          0.27990       -2.31480        6.33090
H         -3.27370       -0.91360        8.23730
H         -3.22710        0.50480        7.18040
H         -2.57510       -2.32600        6.26420
H         -4.15710       -1.56870        6.04680
H         -2.58760       -1.40020        4.03490
H         -3.27350        0.12390        4.58940
H          0.54430        2.85750        2.72330
H         -2.47810        3.35620        2.56920
H         -0.37140        3.77250        4.74410
H         -2.16380        4.10770        4.86170
H         -0.19780        4.81100        1.24310
H          0.80560        3.56920        0.48490
H         -1.13700        4.24600       -0.95420
H         -2.23550        3.65270        0.29070
H         -0.19530        2.03850       -1.30410
H         -1.94830        1.89440       -1.37220
H         -2.67980       -2.80260        0.95170
H         -4.05450       -5.81320        2.36100
H         -2.63350       -4.74890        2.19750
H         -4.27920       -4.07050        2.06540
H         -4.32900       -7.49060       -3.19270
H         -4.54490       -5.86670       -3.89430
H         -2.91030       -6.57110       -3.75530
H         -2.89330       -4.20620       -3.81170
H         -0.65480       -4.66700       -4.29030
H          1.36300       -2.40530       -3.84320
H          0.19380       -4.57380       -2.02960
H          1.36220       -3.25020       -1.55460
H          1.77810       -3.83900       -5.92300
H          1.40920       -5.42380       -5.23900
H         -0.64220       -5.49010       -6.76250
H          0.89850       -5.50840       -7.62690
H          0.75160       -3.13200       -8.10740
H         -0.77880       -3.85420       -8.59450
H         -3.24010       -0.53260      -11.70060
H          1.15090       -0.97470       -8.92450
H         -0.21270        1.21030       -7.25710
H          1.94820       -0.86360       -6.64270
H          1.20380        0.33720       -5.47940
H          2.12950        1.14330       -9.55210
H          0.55040        1.93140       -9.62390
H          1.33160       -0.42230      -11.39760
H          1.46880        1.26570      -11.90070
H         -0.70320        0.15730      -12.63390
H         -0.91880        1.61950      -11.67410
