170

C          3.58360       -2.61010       14.03110
C          2.90190       -1.46940       13.80340
C          2.92720       -1.07320       12.43460
C          2.34010        0.05860       11.84190
C          1.66530        1.07030       12.63830
S          0.05150        1.59720       12.26170
C          0.03070        2.72900       13.57120
C         -1.18030        3.54320       13.86660
C         -2.18150        2.75080       14.71040
C          1.20990        2.68600       14.25250
Cl         1.56540        3.66840       15.61430
C          2.14090        1.75160       13.72360
Cl         3.72880        1.57490       14.35230
C          2.44270        0.17080       10.46410
C          3.13940       -0.76460        9.66150
C          3.78330       -1.86140       10.26150
C          4.54840       -2.79910        9.45910
S          4.26080       -4.51250        9.54610
C          5.45790       -4.85580        8.34520
C          5.69970       -6.24540        7.86850
C          4.75190       -6.60200        6.72060
C          6.03580       -3.70080        7.91020
C          5.52720       -2.53440        8.54010
Cl         6.15830       -0.97000        8.21540
Cl         7.27290       -3.63990        6.72110
C          3.63750       -2.00010       11.63680
S          4.29550       -3.28830       12.60670
C          3.05870       -0.44470        8.29010
C          2.37040        0.70940        8.02010
S          1.76500        1.44930        9.49420
C          2.17970        1.26130        6.73140
S          3.06680        0.55100        5.41690
C          2.37820        1.62230        4.23330
C          1.49180        2.51520        4.85930
C          1.38620        2.31370        6.26790
C          0.52380        3.12980        7.02850
C         -0.19880        4.11970        6.42280
O         -1.05710        4.95670        7.05200
C         -1.22740        4.81440        8.44140
C         -0.07180        4.34380        5.00740
O         -0.82560        5.36280        4.52950
C         -0.78150        5.63580        3.14970
C          0.75910        3.55800        4.25670
C          2.66650        1.44910        2.86230
S          1.56020        2.00490        1.64160
C          2.44960        1.26280        0.35070
C          3.61540        0.66370        0.84090
C          3.73100        0.75520        2.25970
C          4.85560        0.19390        2.89730
C          5.81380       -0.45950        2.17110
O          6.91400       -1.05330        2.68810
C          7.07830       -1.05320        4.08650
C          5.70590       -0.53440        0.73940
O          6.72910       -1.18030        0.12880
C          6.69940       -1.30580       -1.27130
C          4.63920        0.03480        0.10100
C          1.87550        1.25420       -0.94450
C          2.14680        0.43900       -2.01130
C          1.27020        0.61110       -3.10390
C          1.27300       -0.07370       -4.33630
C          2.28390       -1.06350       -4.66510
S          2.67680       -2.37070       -3.58240
C          3.83950       -3.04210       -4.67540
C          4.57140       -4.29730       -4.35040
C          3.75170       -5.52740       -4.74730
C          3.90040       -2.29420       -5.81190
Cl         4.93730       -2.64710       -7.13370
C          3.02840       -1.17210       -5.80810
Cl         3.01230       -0.03350       -7.08960
C          0.24020        0.21990       -5.21550
C         -0.75540        1.19230       -4.95190
C         -0.69350        1.94970       -3.76510
C         -1.63870        3.02090       -3.51300
S         -2.50620        3.14670       -2.01090
C         -3.32550        4.58500       -2.51400
C         -4.34290        5.24030       -1.64660
C         -5.74070        4.68490       -1.93090
C         -2.94260        4.93280       -3.77500
C         -1.98420        4.05260       -4.34320
Cl        -1.28210        4.32740       -5.88500
Cl        -3.53820        6.31000       -4.60770
C          0.29680        1.60990       -2.85590
S          0.51920        2.32320       -1.28410
C         -1.76180        1.20140       -5.94010
C         -1.56870        0.29290       -6.94890
S         -0.08630       -0.61550       -6.70560
C         -2.44420        0.04660       -8.03450
S         -3.99160        0.84500       -8.04570
C         -4.49560        0.03940       -9.49400
C         -3.47360       -0.77280       -9.98540
C         -2.31560       -0.78430       -9.15100
C         -1.20460       -1.56800       -9.53000
C         -1.23140       -2.28880      -10.69110
O         -0.22490       -3.07280      -11.14500
C          0.95250       -3.15650      -10.37840
C         -2.38130       -2.23210      -11.55770
O         -2.26250       -2.95950      -12.69840
C         -3.31830       -2.91760      -13.62510
C         -3.46680       -1.48210      -11.20880
C         -5.80600        0.23090      -10.01780
S         -6.54640        1.80320      -10.02070
C         -7.95860        1.21670      -10.78340
C         -7.90030       -0.13750      -11.01570
C         -6.67090       -0.71510      -10.56260
C         -6.49850       -2.11780      -10.62720
C         -7.46860       -2.89660      -11.18680
O         -7.41560       -4.24830      -11.30880
C         -6.29760       -4.92050      -10.78620
C         -8.68100       -2.30580      -11.70630
O         -9.54190       -3.20430      -12.24870
C        -10.76960       -2.73200      -12.74290
C         -8.89080       -0.96310      -11.60680
H          3.72070       -3.12140       14.96370
H          2.38190       -0.92360       14.56880
H         -1.65240        3.84230       12.92900
H         -0.87500        4.44050       14.40790
H         -1.73190        2.46390       15.65760
H         -3.06160        3.35550       14.91150
H         -2.48820        1.85030       14.18360
H          5.54890       -6.94190        8.69470
H          6.73320       -6.32510        7.52590
H          4.93790       -7.61870        6.38510
H          3.71780       -6.52540        7.04800
H          4.90270       -5.92560        5.88310
H          3.47170       -1.05780        7.51020
H          0.44450        2.95530        8.08720
H         -1.94200        5.58370        8.72880
H         -0.28700        4.97070        8.97970
H         -1.62860        3.82870        8.69850
H         -1.09750        4.77090        2.55760
H         -1.47710        6.45830        2.99200
H          0.22040        5.94270        2.83260
H          0.87100        3.73490        3.20180
H          4.96290        0.30040        3.96170
H          7.20070       -0.03850        4.47830
H          7.98560       -1.62380        4.27600
H          6.23400       -1.53420        4.58970
H          7.58740       -1.87810       -1.53390
H          5.80680       -1.84430       -1.60830
H          6.73980       -0.32920       -1.76470
H          4.58210        0.03740       -0.97220
H          2.90540       -0.31760       -1.99570
H          4.77860       -4.33040       -3.27930
H          5.51950       -4.29960       -4.89170
H          3.55220       -5.51800       -5.81580
H          2.80300       -5.53540       -4.21590
H          4.29730       -6.43450       -4.50210
H         -4.33200        6.31460       -1.84120
H         -4.08790        5.06970       -0.59960
H         -6.01140        4.86130       -2.96870
H         -6.47310        5.17060       -1.29180
H         -5.76630        3.61440       -1.74200
H         -2.62800        1.83670       -5.90200
H         -0.33280       -1.57720       -8.90060
H          0.75590       -3.56950       -9.38360
H          1.43410       -2.17930      -10.27280
H          1.61190       -3.82750      -10.92610
H         -3.48940       -1.90110      -13.99420
H         -3.01000       -3.55550      -14.45160
H         -4.25020       -3.30370      -13.19730
H         -4.32300       -1.39370      -11.85590
H         -8.75530        1.89390      -11.01710
H         -5.60370       -2.54690      -10.20860
H         -6.46870       -5.97660      -10.98750
H         -6.20400       -4.76610       -9.70630
H         -5.36860       -4.60490      -11.27370
H        -10.62600       -2.02130      -13.56360
H        -11.36420       -2.25840      -11.95460
H        -11.29560       -3.61020      -13.11350
H         -9.79840       -0.49950      -11.95670
