
  xtb     03032211393D
 energy: -424.121536475617 gnorm: 0.000212435880 xtb: 6.4.1 (unknown)
244267  0     0  0            999 V2000
   -2.6843   -9.2162    9.0505 C   0  0  0  0  0  0  0  0  0  0  0  0
   -3.8741   -8.4498    8.0914 S   0  0  0  0  0  0  0  0  0  0  0  0
   -2.8889   -7.0373    7.8704 C   0  0  0  0  0  0  0  0  0  0  0  0
   -1.6565   -7.1993    8.4972 C   0  0  0  0  0  0  0  0  0  0  0  0
   -1.5528   -8.4473    9.1905 C   0  0  0  0  0  0  0  0  0  0  0  0
   -0.3657   -8.7573    9.9027 C   0  0  0  0  0  0  0  0  0  0  0  0
    0.6789   -7.8819    9.8928 C   0  0  0  0  0  0  0  0  0  0  0  0
    1.8597   -8.0517   10.5399 O   0  0  0  0  0  0  0  0  0  0  0  0
    2.0424   -9.2261   11.2897 C   0  0  0  0  0  0  0  0  0  0  0  0
    0.6000   -6.6563    9.1295 C   0  0  0  0  0  0  0  0  0  0  0  0
    1.7289   -5.9031    9.1654 O   0  0  0  0  0  0  0  0  0  0  0  0
    1.7602   -4.7126    8.4175 C   0  0  0  0  0  0  0  0  0  0  0  0
   -0.5368   -6.3358    8.4480 C   0  0  0  0  0  0  0  0  0  0  0  0
   -3.3495   -5.9030    7.1404 C   0  0  0  0  0  0  0  0  0  0  0  0
   -4.1887   -6.0668    5.6354 S   0  0  0  0  0  0  0  0  0  0  0  0
   -4.2042   -4.3524    5.3654 C   0  0  0  0  0  0  0  0  0  0  0  0
   -3.6459   -3.6725    6.4504 C   0  0  0  0  0  0  0  0  0  0  0  0
   -3.1619   -4.5578    7.4586 C   0  0  0  0  0  0  0  0  0  0  0  0
   -2.6120   -4.0344    8.6520 C   0  0  0  0  0  0  0  0  0  0  0  0
   -2.4870   -2.6852    8.8099 C   0  0  0  0  0  0  0  0  0  0  0  0
   -1.9380   -2.0662    9.8872 O   0  0  0  0  0  0  0  0  0  0  0  0
   -1.4898   -2.8647   10.9539 C   0  0  0  0  0  0  0  0  0  0  0  0
   -2.9776   -1.7877    7.7947 C   0  0  0  0  0  0  0  0  0  0  0  0
   -2.8118   -0.4737    8.0891 O   0  0  0  0  0  0  0  0  0  0  0  0
   -3.2367    0.4854    7.1518 C   0  0  0  0  0  0  0  0  0  0  0  0
   -3.5643   -2.2770    6.6624 C   0  0  0  0  0  0  0  0  0  0  0  0
   -4.6261   -3.8173    4.1180 C   0  0  0  0  0  0  0  0  0  0  0  0
   -4.1806   -2.6655    3.5345 C   0  0  0  0  0  0  0  0  0  0  0  0
   -4.7436   -2.4108    2.2647 C   0  0  0  0  0  0  0  0  0  0  0  0
   -4.5159   -1.2956    1.4473 C   0  0  0  0  0  0  0  0  0  0  0  0
   -3.4968   -0.2877    1.7681 C   0  0  0  0  0  0  0  0  0  0  0  0
   -3.7762    1.0763    1.7327 C   0  0  0  0  0  0  0  0  0  0  0  0
   -2.7765    2.0029    1.9482 C   0  0  0  0  0  0  0  0  0  0  0  0
   -1.4666    1.6094    2.2043 C   0  0  0  0  0  0  0  0  0  0  0  0
   -0.2370    2.8630    2.4535 S   0  0  0  0  0  0  0  0  0  0  0  0
    1.0894    2.3346    1.3102 C   0  0  0  0  0  0  0  0  0  0  0  0
    0.6081    2.2614   -0.1242 C   0  0  0  0  0  0  0  0  0  0  0  0
   -1.2073    0.2444    2.2733 C   0  0  0  0  0  0  0  0  0  0  0  0
    0.0359   -0.2076    2.5463 F   0  0  0  0  0  0  0  0  0  0  0  0
   -2.1946   -0.6942    2.0517 C   0  0  0  0  0  0  0  0  0  0  0  0
   -5.2356   -1.2436    0.2648 C   0  0  0  0  0  0  0  0  0  0  0  0
   -6.0899   -2.2804   -0.1817 C   0  0  0  0  0  0  0  0  0  0  0  0
   -6.3225   -3.3937    0.6464 C   0  0  0  0  0  0  0  0  0  0  0  0
   -7.2457   -4.4611    0.2449 C   0  0  0  0  0  0  0  0  0  0  0  0
   -8.5242   -4.1562   -0.2217 C   0  0  0  0  0  0  0  0  0  0  0  0
   -9.3933   -5.1583   -0.5938 C   0  0  0  0  0  0  0  0  0  0  0  0
   -9.0314   -6.5025   -0.5127 C   0  0  0  0  0  0  0  0  0  0  0  0
  -10.2597   -7.6871   -0.9749 S   0  0  0  0  0  0  0  0  0  0  0  0
   -9.3255   -9.0424   -1.7765 C   0  0  0  0  0  0  0  0  0  0  0  0
   -8.5275   -8.5567   -2.9695 C   0  0  0  0  0  0  0  0  0  0  0  0
   -7.7630   -6.7923   -0.0192 C   0  0  0  0  0  0  0  0  0  0  0  0
   -6.8767   -5.7982    0.3430 C   0  0  0  0  0  0  0  0  0  0  0  0
   -7.3479   -8.0701    0.1222 F   0  0  0  0  0  0  0  0  0  0  0  0
   -5.6481   -3.4235    1.8602 C   0  0  0  0  0  0  0  0  0  0  0  0
   -5.7714   -4.6628    3.0869 S   0  0  0  0  0  0  0  0  0  0  0  0
   -6.5242   -2.0650   -1.5255 C   0  0  0  0  0  0  0  0  0  0  0  0
   -6.0778   -0.9008   -2.0562 C   0  0  0  0  0  0  0  0  0  0  0  0
   -5.1031    0.0233   -0.9136 S   0  0  0  0  0  0  0  0  0  0  0  0
   -6.0180   -0.3475   -3.3876 C   0  0  0  0  0  0  0  0  0  0  0  0
   -5.4261   -0.9054   -4.4788 C   0  0  0  0  0  0  0  0  0  0  0  0
   -4.9094    0.0567   -5.3935 C   0  0  0  0  0  0  0  0  0  0  0  0
   -3.9498   -0.1509   -6.3996 C   0  0  0  0  0  0  0  0  0  0  0  0
   -3.5041   -1.4794   -6.8414 C   0  0  0  0  0  0  0  0  0  0  0  0
   -3.4585   -1.7692   -8.2021 C   0  0  0  0  0  0  0  0  0  0  0  0
   -3.0040   -2.9902   -8.6596 C   0  0  0  0  0  0  0  0  0  0  0  0
   -2.5589   -3.9619   -7.7702 C   0  0  0  0  0  0  0  0  0  0  0  0
   -1.9628   -5.5560   -8.2258 S   0  0  0  0  0  0  0  0  0  0  0  0
   -1.4466   -5.3440   -9.9651 C   0  0  0  0  0  0  0  0  0  0  0  0
   -0.2671   -4.4008  -10.1029 C   0  0  0  0  0  0  0  0  0  0  0  0
   -2.6080   -3.6567   -6.4094 C   0  0  0  0  0  0  0  0  0  0  0  0
   -2.1834   -4.5712   -5.5145 F   0  0  0  0  0  0  0  0  0  0  0  0
   -3.0640   -2.4451   -5.9397 C   0  0  0  0  0  0  0  0  0  0  0  0
   -3.2834    0.9767   -6.8596 C   0  0  0  0  0  0  0  0  0  0  0  0
   -3.6204    2.2912   -6.4644 C   0  0  0  0  0  0  0  0  0  0  0  0
   -4.6715    2.5102   -5.5609 C   0  0  0  0  0  0  0  0  0  0  0  0
   -4.9382    3.8761   -5.0837 C   0  0  0  0  0  0  0  0  0  0  0  0
   -5.3397    4.8739   -5.9691 C   0  0  0  0  0  0  0  0  0  0  0  0
   -5.5083    6.1707   -5.5345 C   0  0  0  0  0  0  0  0  0  0  0  0
   -5.2723    6.5295   -4.2067 C   0  0  0  0  0  0  0  0  0  0  0  0
   -5.5149    8.2225   -3.7731 S   0  0  0  0  0  0  0  0  0  0  0  0
   -4.2637    8.5187   -2.4595 C   0  0  0  0  0  0  0  0  0  0  0  0
   -3.9281    9.9952   -2.4145 C   0  0  0  0  0  0  0  0  0  0  0  0
   -4.8970    5.5147   -3.3323 C   0  0  0  0  0  0  0  0  0  0  0  0
   -4.7216    4.2122   -3.7529 C   0  0  0  0  0  0  0  0  0  0  0  0
   -4.6730    5.7700   -2.0204 F   0  0  0  0  0  0  0  0  0  0  0  0
   -5.2349    1.3803   -4.9960 C   0  0  0  0  0  0  0  0  0  0  0  0
   -6.2001    1.3906   -3.5458 S   0  0  0  0  0  0  0  0  0  0  0  0
   -2.5733    3.2135   -6.7155 C   0  0  0  0  0  0  0  0  0  0  0  0
   -1.4293    2.6210   -7.1678 C   0  0  0  0  0  0  0  0  0  0  0  0
   -1.7075    0.9410   -7.6248 S   0  0  0  0  0  0  0  0  0  0  0  0
   -0.1086    3.0520   -6.8127 C   0  0  0  0  0  0  0  0  0  0  0  0
    0.1185    3.8850   -5.7523 C   0  0  0  0  0  0  0  0  0  0  0  0
    1.3859    3.7114   -5.1528 C   0  0  0  0  0  0  0  0  0  0  0  0
    1.7901    4.2073   -3.9060 C   0  0  0  0  0  0  0  0  0  0  0  0
    0.9638    5.1189   -3.0989 C   0  0  0  0  0  0  0  0  0  0  0  0
   -0.3227    4.7717   -2.6956 C   0  0  0  0  0  0  0  0  0  0  0  0
   -1.0648    5.6102   -1.8848 C   0  0  0  0  0  0  0  0  0  0  0  0
   -0.5465    6.8270   -1.4554 C   0  0  0  0  0  0  0  0  0  0  0  0
   -1.4127    7.9844   -0.4442 S   0  0  0  0  0  0  0  0  0  0  0  0
   -2.5225    6.9348    0.5587 C   0  0  0  0  0  0  0  0  0  0  0  0
   -1.7476    6.0105    1.4753 C   0  0  0  0  0  0  0  0  0  0  0  0
    0.7366    7.1695   -1.8831 C   0  0  0  0  0  0  0  0  0  0  0  0
    1.2640    8.3488   -1.5043 F   0  0  0  0  0  0  0  0  0  0  0  0
    1.4926    6.3355   -2.6774 C   0  0  0  0  0  0  0  0  0  0  0  0
    2.9679    3.6913   -3.3952 C   0  0  0  0  0  0  0  0  0  0  0  0
    3.7965    2.7883   -4.1033 C   0  0  0  0  0  0  0  0  0  0  0  0
    3.4307    2.3586   -5.3937 C   0  0  0  0  0  0  0  0  0  0  0  0
    4.3104    1.4682   -6.1589 C   0  0  0  0  0  0  0  0  0  0  0  0
    5.6661    1.7741   -6.2868 C   0  0  0  0  0  0  0  0  0  0  0  0
    6.5016    0.9709   -7.0311 C   0  0  0  0  0  0  0  0  0  0  0  0
    6.0298   -0.1782   -7.6646 C   0  0  0  0  0  0  0  0  0  0  0  0
    7.2099   -1.1485   -8.5540 S   0  0  0  0  0  0  0  0  0  0  0  0
    6.2949   -1.7436  -10.0237 C   0  0  0  0  0  0  0  0  0  0  0  0
    5.7331   -0.6006  -10.8448 C   0  0  0  0  0  0  0  0  0  0  0  0
    4.6842   -0.4906   -7.4974 C   0  0  0  0  0  0  0  0  0  0  0  0
    3.8300    0.3182   -6.7755 C   0  0  0  0  0  0  0  0  0  0  0  0
    4.1616   -1.6146   -8.0355 F   0  0  0  0  0  0  0  0  0  0  0  0
    2.1908    2.7789   -5.8560 C   0  0  0  0  0  0  0  0  0  0  0  0
    1.3362    2.1655   -7.2562 S   0  0  0  0  0  0  0  0  0  0  0  0
    4.8224    2.2618   -3.2702 C   0  0  0  0  0  0  0  0  0  0  0  0
    4.7512    2.6991   -1.9825 C   0  0  0  0  0  0  0  0  0  0  0  0
    3.4900    3.8916   -1.7462 S   0  0  0  0  0  0  0  0  0  0  0  0
    5.4431    2.1911   -0.8324 C   0  0  0  0  0  0  0  0  0  0  0  0
    6.7138    1.7271   -0.7097 C   0  0  0  0  0  0  0  0  0  0  0  0
    6.9989    1.1960    0.5797 C   0  0  0  0  0  0  0  0  0  0  0  0
    8.2032    0.6431    1.0396 C   0  0  0  0  0  0  0  0  0  0  0  0
    9.3645    0.4968    0.1533 C   0  0  0  0  0  0  0  0  0  0  0  0
    9.2397   -0.1368   -1.0827 C   0  0  0  0  0  0  0  0  0  0  0  0
   10.3290   -0.2720   -1.9155 C   0  0  0  0  0  0  0  0  0  0  0  0
   11.5857    0.2101   -1.5518 C   0  0  0  0  0  0  0  0  0  0  0  0
   12.9098   -0.0659   -2.6910 S   0  0  0  0  0  0  0  0  0  0  0  0
   13.9295    1.4512   -2.5845 C   0  0  0  0  0  0  0  0  0  0  0  0
   13.1307    2.6972   -2.9098 C   0  0  0  0  0  0  0  0  0  0  0  0
   11.7014    0.8113   -0.3023 C   0  0  0  0  0  0  0  0  0  0  0  0
   12.8925    1.2728    0.1382 F   0  0  0  0  0  0  0  0  0  0  0  0
   10.6155    0.9672    0.5357 C   0  0  0  0  0  0  0  0  0  0  0  0
    8.2275    0.2181    2.3613 C   0  0  0  0  0  0  0  0  0  0  0  0
    7.0925    0.2505    3.2073 C   0  0  0  0  0  0  0  0  0  0  0  0
    5.8749    0.7641    2.7369 C   0  0  0  0  0  0  0  0  0  0  0  0
    4.6442    0.7013    3.5363 C   0  0  0  0  0  0  0  0  0  0  0  0
    3.8026    1.8020    3.6949 C   0  0  0  0  0  0  0  0  0  0  0  0
    2.6333    1.6939    4.4136 C   0  0  0  0  0  0  0  0  0  0  0  0
    2.2367    0.4920    5.0085 C   0  0  0  0  0  0  0  0  0  0  0  0
    0.7183    0.5821    5.9002 S   0  0  0  0  0  0  0  0  0  0  0  0
    0.3259   -1.0823    6.5503 C   0  0  0  0  0  0  0  0  0  0  0  0
   -0.2633   -1.9909    5.4891 C   0  0  0  0  0  0  0  0  0  0  0  0
    3.0903   -0.5940    4.8455 C   0  0  0  0  0  0  0  0  0  0  0  0
    4.2649   -0.4997    4.1253 C   0  0  0  0  0  0  0  0  0  0  0  0
    2.8178   -1.8075    5.3873 F   0  0  0  0  0  0  0  0  0  0  0  0
    5.8796    1.2717    1.4446 C   0  0  0  0  0  0  0  0  0  0  0  0
    4.5177    2.0045    0.6467 S   0  0  0  0  0  0  0  0  0  0  0  0
    7.3909   -0.2652    4.5042 C   0  0  0  0  0  0  0  0  0  0  0  0
    8.6668   -0.6828    4.6228 C   0  0  0  0  0  0  0  0  0  0  0  0
    9.6001   -0.4828    3.1795 S   0  0  0  0  0  0  0  0  0  0  0  0
   -2.8784  -10.1882    9.4572 H   0  0  0  0  0  0  0  0  0  0  0  0
   -0.3203   -9.6933   10.4347 H   0  0  0  0  0  0  0  0  0  0  0  0
    3.0405   -9.1505   11.7176 H   0  0  0  0  0  0  0  0  0  0  0  0
    1.9846  -10.1188   10.6582 H   0  0  0  0  0  0  0  0  0  0  0  0
    1.3061   -9.3060   12.0965 H   0  0  0  0  0  0  0  0  0  0  0  0
    1.6332   -4.9034    7.3472 H   0  0  0  0  0  0  0  0  0  0  0  0
    0.9912   -4.0052    8.7482 H   0  0  0  0  0  0  0  0  0  0  0  0
    2.7445   -4.2816    8.5913 H   0  0  0  0  0  0  0  0  0  0  0  0
   -0.6012   -5.4411    7.8522 H   0  0  0  0  0  0  0  0  0  0  0  0
   -2.3105   -4.7229    9.4229 H   0  0  0  0  0  0  0  0  0  0  0  0
   -0.6988   -3.5547   10.6397 H   0  0  0  0  0  0  0  0  0  0  0  0
   -2.3091   -3.4389   11.3979 H   0  0  0  0  0  0  0  0  0  0  0  0
   -1.0915   -2.1716   11.6928 H   0  0  0  0  0  0  0  0  0  0  0  0
   -2.7132    0.3754    6.1962 H   0  0  0  0  0  0  0  0  0  0  0  0
   -2.9843    1.4510    7.5859 H   0  0  0  0  0  0  0  0  0  0  0  0
   -4.3169    0.4333    6.9827 H   0  0  0  0  0  0  0  0  0  0  0  0
   -4.0005   -1.6112    5.9387 H   0  0  0  0  0  0  0  0  0  0  0  0
   -3.4394   -2.0290    3.9772 H   0  0  0  0  0  0  0  0  0  0  0  0
   -4.7826    1.4114    1.5342 H   0  0  0  0  0  0  0  0  0  0  0  0
   -2.9952    3.0582    1.9085 H   0  0  0  0  0  0  0  0  0  0  0  0
    1.8524    3.1032    1.4252 H   0  0  0  0  0  0  0  0  0  0  0  0
    1.4941    1.3858    1.6554 H   0  0  0  0  0  0  0  0  0  0  0  0
    0.2505    3.2328   -0.4599 H   0  0  0  0  0  0  0  0  0  0  0  0
   -0.1983    1.5369   -0.2296 H   0  0  0  0  0  0  0  0  0  0  0  0
    1.4318    1.9568   -0.7663 H   0  0  0  0  0  0  0  0  0  0  0  0
   -1.9340   -1.7414    2.0777 H   0  0  0  0  0  0  0  0  0  0  0  0
   -8.8401   -3.1254   -0.2767 H   0  0  0  0  0  0  0  0  0  0  0  0
  -10.3815   -4.9184   -0.9546 H   0  0  0  0  0  0  0  0  0  0  0  0
  -10.1106   -9.7334   -2.0841 H   0  0  0  0  0  0  0  0  0  0  0  0
   -8.6965   -9.5285   -1.0343 H   0  0  0  0  0  0  0  0  0  0  0  0
   -7.7451   -7.8667   -2.6594 H   0  0  0  0  0  0  0  0  0  0  0  0
   -8.0587   -9.4043   -3.4653 H   0  0  0  0  0  0  0  0  0  0  0  0
   -9.1749   -8.0487   -3.6814 H   0  0  0  0  0  0  0  0  0  0  0  0
   -5.8989   -6.0844    0.6973 H   0  0  0  0  0  0  0  0  0  0  0  0
   -7.1251   -2.7699   -2.0713 H   0  0  0  0  0  0  0  0  0  0  0  0
   -5.2596   -1.9630   -4.5686 H   0  0  0  0  0  0  0  0  0  0  0  0
   -3.7973   -1.0306   -8.9131 H   0  0  0  0  0  0  0  0  0  0  0  0
   -3.0029   -3.1820   -9.7202 H   0  0  0  0  0  0  0  0  0  0  0  0
   -1.1753   -6.3542  -10.2715 H   0  0  0  0  0  0  0  0  0  0  0  0
   -2.3071   -5.0246  -10.5519 H   0  0  0  0  0  0  0  0  0  0  0  0
   -0.5210   -3.4020   -9.7536 H   0  0  0  0  0  0  0  0  0  0  0  0
    0.0351   -4.3376  -11.1465 H   0  0  0  0  0  0  0  0  0  0  0  0
    0.5746   -4.7638   -9.5180 H   0  0  0  0  0  0  0  0  0  0  0  0
   -3.0320   -2.2501   -4.8794 H   0  0  0  0  0  0  0  0  0  0  0  0
   -5.5147    4.6257   -7.0050 H   0  0  0  0  0  0  0  0  0  0  0  0
   -5.8168    6.9425   -6.2222 H   0  0  0  0  0  0  0  0  0  0  0  0
   -4.6769    8.1831   -1.5097 H   0  0  0  0  0  0  0  0  0  0  0  0
   -3.3848    7.9290   -2.7150 H   0  0  0  0  0  0  0  0  0  0  0  0
   -4.8089   10.5819   -2.1642 H   0  0  0  0  0  0  0  0  0  0  0  0
   -3.1632   10.1663   -1.6602 H   0  0  0  0  0  0  0  0  0  0  0  0
   -3.5503   10.3310   -3.3774 H   0  0  0  0  0  0  0  0  0  0  0  0
   -4.4056    3.4721   -3.0341 H   0  0  0  0  0  0  0  0  0  0  0  0
   -2.6281    4.2438   -6.4141 H   0  0  0  0  0  0  0  0  0  0  0  0
   -0.6378    4.5196   -5.3297 H   0  0  0  0  0  0  0  0  0  0  0  0
   -0.7394    3.8226   -2.9999 H   0  0  0  0  0  0  0  0  0  0  0  0
   -2.0561    5.3102   -1.5846 H   0  0  0  0  0  0  0  0  0  0  0  0
   -3.1999    6.3961   -0.1007 H   0  0  0  0  0  0  0  0  0  0  0  0
   -3.0982    7.6616    1.1320 H   0  0  0  0  0  0  0  0  0  0  0  0
   -2.4316    5.4839    2.1371 H   0  0  0  0  0  0  0  0  0  0  0  0
   -1.0500    6.5775    2.0871 H   0  0  0  0  0  0  0  0  0  0  0  0
   -1.1830    5.2752    0.9068 H   0  0  0  0  0  0  0  0  0  0  0  0
    2.4853    6.6411   -2.9688 H   0  0  0  0  0  0  0  0  0  0  0  0
    6.0555    2.6675   -5.8225 H   0  0  0  0  0  0  0  0  0  0  0  0
    7.5455    1.2207   -7.1410 H   0  0  0  0  0  0  0  0  0  0  0  0
    7.0542   -2.2924  -10.5810 H   0  0  0  0  0  0  0  0  0  0  0  0
    5.5200   -2.4365   -9.7036 H   0  0  0  0  0  0  0  0  0  0  0  0
    4.9767   -0.0539  -10.2848 H   0  0  0  0  0  0  0  0  0  0  0  0
    6.5235    0.0923  -11.1261 H   0  0  0  0  0  0  0  0  0  0  0  0
    5.2728   -0.9924  -11.7495 H   0  0  0  0  0  0  0  0  0  0  0  0
    2.8002    0.0145   -6.6741 H   0  0  0  0  0  0  0  0  0  0  0  0
    5.5203    1.5107   -3.5939 H   0  0  0  0  0  0  0  0  0  0  0  0
    7.4391    1.7839   -1.5010 H   0  0  0  0  0  0  0  0  0  0  0  0
    8.2835   -0.5387   -1.3815 H   0  0  0  0  0  0  0  0  0  0  0  0
   10.2284   -0.7615   -2.8719 H   0  0  0  0  0  0  0  0  0  0  0  0
   14.3869    1.5045   -1.5993 H   0  0  0  0  0  0  0  0  0  0  0  0
   14.7073    1.2781   -3.3284 H   0  0  0  0  0  0  0  0  0  0  0  0
   12.3545    2.8664   -2.1658 H   0  0  0  0  0  0  0  0  0  0  0  0
   12.6598    2.6048   -3.8863 H   0  0  0  0  0  0  0  0  0  0  0  0
   13.7904    3.5625   -2.9193 H   0  0  0  0  0  0  0  0  0  0  0  0
   10.7609    1.4613    1.4835 H   0  0  0  0  0  0  0  0  0  0  0  0
    4.0779    2.7546    3.2692 H   0  0  0  0  0  0  0  0  0  0  0  0
    1.9870    2.5503    4.5310 H   0  0  0  0  0  0  0  0  0  0  0  0
   -0.3999   -0.8735    7.3367 H   0  0  0  0  0  0  0  0  0  0  0  0
    1.2190   -1.5037    7.0043 H   0  0  0  0  0  0  0  0  0  0  0  0
   -0.5772   -2.9315    5.9382 H   0  0  0  0  0  0  0  0  0  0  0  0
    0.4634   -2.2013    4.7089 H   0  0  0  0  0  0  0  0  0  0  0  0
   -1.1319   -1.5223    5.0312 H   0  0  0  0  0  0  0  0  0  0  0  0
    4.8674   -1.3881    4.0123 H   0  0  0  0  0  0  0  0  0  0  0  0
    6.6759   -0.2947    5.3061 H   0  0  0  0  0  0  0  0  0  0  0  0
    9.1460   -1.1018    5.4861 H   0  0  0  0  0  0  0  0  0  0  0  0
  1  2  1  0  0  0  0
  2  3  1  0  0  0  0
  3  4  2  0  0  0  0
  4  5  1  0  0  0  0
  5  6  1  0  0  0  0
  6  7  2  0  0  0  0
  7  8  1  0  0  0  0
  8  9  1  0  0  0  0
  7 10  1  0  0  0  0
 10 11  1  0  0  0  0
 11 12  1  0  0  0  0
 10 13  2  0  0  0  0
  3 14  1  0  0  0  0
 14 15  1  0  0  0  0
 15 16  1  0  0  0  0
 16 17  2  0  0  0  0
 17 18  1  0  0  0  0
 18 19  1  0  0  0  0
 19 20  2  0  0  0  0
 20 21  1  0  0  0  0
 21 22  1  0  0  0  0
 20 23  1  0  0  0  0
 23 24  1  0  0  0  0
 24 25  1  0  0  0  0
 23 26  2  0  0  0  0
 16 27  1  0  0  0  0
 27 28  2  0  0  0  0
 28 29  1  0  0  0  0
 29 30  2  0  0  0  0
 30 31  1  0  0  0  0
 31 32  2  0  0  0  0
 32 33  1  0  0  0  0
 33 34  2  0  0  0  0
 34 35  1  0  0  0  0
 35 36  1  0  0  0  0
 36 37  1  0  0  0  0
 34 38  1  0  0  0  0
 38 39  1  0  0  0  0
 38 40  2  0  0  0  0
 30 41  1  0  0  0  0
 41 42  2  0  0  0  0
 42 43  1  0  0  0  0
 43 44  1  0  0  0  0
 44 45  2  0  0  0  0
 45 46  1  0  0  0  0
 46 47  2  0  0  0  0
 47 48  1  0  0  0  0
 48 49  1  0  0  0  0
 49 50  1  0  0  0  0
 47 51  1  0  0  0  0
 51 52  2  0  0  0  0
 51 53  1  0  0  0  0
 43 54  2  0  0  0  0
 54 55  1  0  0  0  0
 42 56  1  0  0  0  0
 56 57  2  0  0  0  0
 57 58  1  0  0  0  0
 57 59  1  0  0  0  0
 59 60  2  0  0  0  0
 60 61  1  0  0  0  0
 61 62  2  0  0  0  0
 62 63  1  0  0  0  0
 63 64  2  0  0  0  0
 64 65  1  0  0  0  0
 65 66  2  0  0  0  0
 66 67  1  0  0  0  0
 67 68  1  0  0  0  0
 68 69  1  0  0  0  0
 66 70  1  0  0  0  0
 70 71  1  0  0  0  0
 70 72  2  0  0  0  0
 62 73  1  0  0  0  0
 73 74  2  0  0  0  0
 74 75  1  0  0  0  0
 75 76  1  0  0  0  0
 76 77  2  0  0  0  0
 77 78  1  0  0  0  0
 78 79  2  0  0  0  0
 79 80  1  0  0  0  0
 80 81  1  0  0  0  0
 81 82  1  0  0  0  0
 79 83  1  0  0  0  0
 83 84  2  0  0  0  0
 83 85  1  0  0  0  0
 75 86  2  0  0  0  0
 86 87  1  0  0  0  0
 74 88  1  0  0  0  0
 88 89  2  0  0  0  0
 89 90  1  0  0  0  0
 89 91  1  0  0  0  0
 91 92  2  0  0  0  0
 92 93  1  0  0  0  0
 93 94  2  0  0  0  0
 94 95  1  0  0  0  0
 95 96  2  0  0  0  0
 96 97  1  0  0  0  0
 97 98  2  0  0  0  0
 98 99  1  0  0  0  0
 99100  1  0  0  0  0
100101  1  0  0  0  0
 98102  1  0  0  0  0
102103  1  0  0  0  0
102104  2  0  0  0  0
 94105  1  0  0  0  0
105106  2  0  0  0  0
106107  1  0  0  0  0
107108  1  0  0  0  0
108109  2  0  0  0  0
109110  1  0  0  0  0
110111  2  0  0  0  0
111112  1  0  0  0  0
112113  1  0  0  0  0
113114  1  0  0  0  0
111115  1  0  0  0  0
115116  2  0  0  0  0
115117  1  0  0  0  0
107118  2  0  0  0  0
118119  1  0  0  0  0
106120  1  0  0  0  0
120121  2  0  0  0  0
121122  1  0  0  0  0
121123  1  0  0  0  0
123124  2  0  0  0  0
124125  1  0  0  0  0
125126  2  0  0  0  0
126127  1  0  0  0  0
127128  2  0  0  0  0
128129  1  0  0  0  0
129130  2  0  0  0  0
130131  1  0  0  0  0
131132  1  0  0  0  0
132133  1  0  0  0  0
130134  1  0  0  0  0
134135  1  0  0  0  0
134136  2  0  0  0  0
126137  1  0  0  0  0
137138  2  0  0  0  0
138139  1  0  0  0  0
139140  1  0  0  0  0
140141  2  0  0  0  0
141142  1  0  0  0  0
142143  2  0  0  0  0
143144  1  0  0  0  0
144145  1  0  0  0  0
145146  1  0  0  0  0
143147  1  0  0  0  0
147148  2  0  0  0  0
147149  1  0  0  0  0
139150  2  0  0  0  0
150151  1  0  0  0  0
138152  1  0  0  0  0
152153  2  0  0  0  0
153154  1  0  0  0  0
  5  1  2  0  0  0  0
 18 14  2  0  0  0  0
 55 27  1  0  0  0  0
 87 59  1  0  0  0  0
119 91  1  0  0  0  0
151123  1  0  0  0  0
 13  4  1  0  0  0  0
 26 17  1  0  0  0  0
 54 29  1  0  0  0  0
 86 61  1  0  0  0  0
118 93  1  0  0  0  0
150125  1  0  0  0  0
 40 31  1  0  0  0  0
 58 41  1  0  0  0  0
 72 63  1  0  0  0  0
 90 73  1  0  0  0  0
104 95  1  0  0  0  0
122105  1  0  0  0  0
136127  1  0  0  0  0
154137  1  0  0  0  0
 52 44  1  0  0  0  0
 84 76  1  0  0  0  0
116108  1  0  0  0  0
148140  1  0  0  0  0
  1155  1  0  0  0  0
  6156  1  0  0  0  0
  9157  1  0  0  0  0
  9158  1  0  0  0  0
  9159  1  0  0  0  0
 12160  1  0  0  0  0
 12161  1  0  0  0  0
 12162  1  0  0  0  0
 13163  1  0  0  0  0
 19164  1  0  0  0  0
 22165  1  0  0  0  0
 22166  1  0  0  0  0
 22167  1  0  0  0  0
 25168  1  0  0  0  0
 25169  1  0  0  0  0
 25170  1  0  0  0  0
 26171  1  0  0  0  0
 28172  1  0  0  0  0
 32173  1  0  0  0  0
 33174  1  0  0  0  0
 36175  1  0  0  0  0
 36176  1  0  0  0  0
 37177  1  0  0  0  0
 37178  1  0  0  0  0
 37179  1  0  0  0  0
 40180  1  0  0  0  0
 45181  1  0  0  0  0
 46182  1  0  0  0  0
 49183  1  0  0  0  0
 49184  1  0  0  0  0
 50185  1  0  0  0  0
 50186  1  0  0  0  0
 50187  1  0  0  0  0
 52188  1  0  0  0  0
 56189  1  0  0  0  0
 60190  1  0  0  0  0
 64191  1  0  0  0  0
 65192  1  0  0  0  0
 68193  1  0  0  0  0
 68194  1  0  0  0  0
 69195  1  0  0  0  0
 69196  1  0  0  0  0
 69197  1  0  0  0  0
 72198  1  0  0  0  0
 77199  1  0  0  0  0
 78200  1  0  0  0  0
 81201  1  0  0  0  0
 81202  1  0  0  0  0
 82203  1  0  0  0  0
 82204  1  0  0  0  0
 82205  1  0  0  0  0
 84206  1  0  0  0  0
 88207  1  0  0  0  0
 92208  1  0  0  0  0
 96209  1  0  0  0  0
 97210  1  0  0  0  0
100211  1  0  0  0  0
100212  1  0  0  0  0
101213  1  0  0  0  0
101214  1  0  0  0  0
101215  1  0  0  0  0
104216  1  0  0  0  0
109217  1  0  0  0  0
110218  1  0  0  0  0
113219  1  0  0  0  0
113220  1  0  0  0  0
114221  1  0  0  0  0
114222  1  0  0  0  0
114223  1  0  0  0  0
116224  1  0  0  0  0
120225  1  0  0  0  0
124226  1  0  0  0  0
128227  1  0  0  0  0
129228  1  0  0  0  0
132229  1  0  0  0  0
132230  1  0  0  0  0
133231  1  0  0  0  0
133232  1  0  0  0  0
133233  1  0  0  0  0
136234  1  0  0  0  0
141235  1  0  0  0  0
142236  1  0  0  0  0
145237  1  0  0  0  0
145238  1  0  0  0  0
146239  1  0  0  0  0
146240  1  0  0  0  0
146241  1  0  0  0  0
148242  1  0  0  0  0
152243  1  0  0  0  0
153244  1  0  0  0  0
M  END
