
  xtb     03042208343D
 energy: -186.378243171805 gnorm: 0.000447936024 xtb: 6.4.1 (unknown)
 96111  0     0  0            999 V2000
   15.8784    1.4183    7.0265 C   0  0  0  0  0  0  0  0  0  0  0  0
   14.8239    0.9999    5.7181 S   0  0  0  0  0  0  0  0  0  0  0  0
   13.4756    0.9827    6.7946 C   0  0  0  0  0  0  0  0  0  0  0  0
   13.8664    1.2910    8.0961 C   0  0  0  0  0  0  0  0  0  0  0  0
   15.2460    1.5407    8.2223 C   0  0  0  0  0  0  0  0  0  0  0  0
   12.5366    1.2842    9.2195 S   0  0  0  0  0  0  0  0  0  0  0  0
   11.4494    0.8638    7.9250 C   0  0  0  0  0  0  0  0  0  0  0  0
   10.0718    0.6302    7.8659 C   0  0  0  0  0  0  0  0  0  0  0  0
    9.6591    0.3270    6.5879 C   0  0  0  0  0  0  0  0  0  0  0  0
   10.9887    0.3288    5.4417 S   0  0  0  0  0  0  0  0  0  0  0  0
   12.0977    0.7399    6.6955 C   0  0  0  0  0  0  0  0  0  0  0  0
    8.3370    0.0381    6.1479 C   0  0  0  0  0  0  0  0  0  0  0  0
    8.0122   -0.2234    4.4420 S   0  0  0  0  0  0  0  0  0  0  0  0
    6.3372   -0.4639    4.7750 C   0  0  0  0  0  0  0  0  0  0  0  0
    6.0715   -0.3481    6.1431 C   0  0  0  0  0  0  0  0  0  0  0  0
    7.1983   -0.0643    6.9168 C   0  0  0  0  0  0  0  0  0  0  0  0
    4.3855   -0.5792    6.5218 S   0  0  0  0  0  0  0  0  0  0  0  0
    4.0419   -0.8201    4.8305 C   0  0  0  0  0  0  0  0  0  0  0  0
    2.8711   -1.0632    4.1167 C   0  0  0  0  0  0  0  0  0  0  0  0
    3.0920   -1.1636    2.7543 C   0  0  0  0  0  0  0  0  0  0  0  0
    4.7973   -0.9603    2.3652 S   0  0  0  0  0  0  0  0  0  0  0  0
    5.1852   -0.7305    4.0316 C   0  0  0  0  0  0  0  0  0  0  0  0
    2.0954   -1.3664    1.7733 C   0  0  0  0  0  0  0  0  0  0  0  0
    0.4424   -1.4853    2.3058 S   0  0  0  0  0  0  0  0  0  0  0  0
   -0.1822   -1.6276    0.6870 C   0  0  0  0  0  0  0  0  0  0  0  0
    0.8803   -1.6187   -0.2321 C   0  0  0  0  0  0  0  0  0  0  0  0
    2.1610   -1.4725    0.3791 C   0  0  0  0  0  0  0  0  0  0  0  0
    3.3171   -1.4483   -0.4284 C   0  0  0  0  0  0  0  0  0  0  0  0
    3.2148   -1.5722   -1.7866 C   0  0  0  0  0  0  0  0  0  0  0  0
    4.2531   -1.5589   -2.6542 O   0  0  0  0  0  0  0  0  0  0  0  0
    5.5525   -1.3927   -2.1403 C   0  0  0  0  0  0  0  0  0  0  0  0
    1.9265   -1.7501   -2.4004 C   0  0  0  0  0  0  0  0  0  0  0  0
    1.9591   -1.8898   -3.7465 O   0  0  0  0  0  0  0  0  0  0  0  0
    0.7411   -2.0595   -4.4305 C   0  0  0  0  0  0  0  0  0  0  0  0
    0.7962   -1.7747   -1.6308 C   0  0  0  0  0  0  0  0  0  0  0  0
   -1.5731   -1.6381    0.4490 C   0  0  0  0  0  0  0  0  0  0  0  0
   -2.2139   -1.1107   -1.0807 S   0  0  0  0  0  0  0  0  0  0  0  0
   -3.8619   -1.2310   -0.5512 C   0  0  0  0  0  0  0  0  0  0  0  0
   -3.9193   -1.7212    0.7577 C   0  0  0  0  0  0  0  0  0  0  0  0
   -2.6293   -1.9399    1.3262 C   0  0  0  0  0  0  0  0  0  0  0  0
   -2.5304   -2.4635    2.6315 C   0  0  0  0  0  0  0  0  0  0  0  0
   -3.6581   -2.7497    3.3504 C   0  0  0  0  0  0  0  0  0  0  0  0
   -3.6798   -3.2530    4.6077 O   0  0  0  0  0  0  0  0  0  0  0  0
   -2.4534   -3.4881    5.2550 C   0  0  0  0  0  0  0  0  0  0  0  0
   -4.9578   -2.5468    2.7696 C   0  0  0  0  0  0  0  0  0  0  0  0
   -5.9897   -2.9021    3.5724 O   0  0  0  0  0  0  0  0  0  0  0  0
   -7.2996   -2.7627    3.0810 C   0  0  0  0  0  0  0  0  0  0  0  0
   -5.0731   -2.0523    1.5003 C   0  0  0  0  0  0  0  0  0  0  0  0
   -4.8926   -0.8282   -1.4362 C   0  0  0  0  0  0  0  0  0  0  0  0
   -4.5462   -0.7596   -3.1648 S   0  0  0  0  0  0  0  0  0  0  0  0
   -6.1413   -0.1882   -3.4911 C   0  0  0  0  0  0  0  0  0  0  0  0
   -6.8804   -0.0635   -2.3119 C   0  0  0  0  0  0  0  0  0  0  0  0
   -6.1799   -0.4178   -1.1572 C   0  0  0  0  0  0  0  0  0  0  0  0
   -8.4975    0.5232   -2.5908 S   0  0  0  0  0  0  0  0  0  0  0  0
   -8.1709    0.6018   -4.3000 C   0  0  0  0  0  0  0  0  0  0  0  0
   -8.9299    0.9914   -5.4059 C   0  0  0  0  0  0  0  0  0  0  0  0
   -8.2210    0.8816   -6.5796 C   0  0  0  0  0  0  0  0  0  0  0  0
   -6.5875    0.2860   -6.3191 S   0  0  0  0  0  0  0  0  0  0  0  0
   -6.8739    0.1904   -4.6199 C   0  0  0  0  0  0  0  0  0  0  0  0
   -8.6635    1.1898   -7.8944 C   0  0  0  0  0  0  0  0  0  0  0  0
  -10.2966    1.7883   -8.1482 S   0  0  0  0  0  0  0  0  0  0  0  0
  -10.0133    1.8929   -9.8464 C   0  0  0  0  0  0  0  0  0  0  0  0
   -8.7205    1.4817  -10.1727 C   0  0  0  0  0  0  0  0  0  0  0  0
   -7.9576    1.0842   -9.0692 C   0  0  0  0  0  0  0  0  0  0  0  0
   -8.3969    1.5745  -11.8813 S   0  0  0  0  0  0  0  0  0  0  0  0
  -10.0102    2.1699  -12.1516 C   0  0  0  0  0  0  0  0  0  0  0  0
  -10.7250    2.5587  -13.3004 C   0  0  0  0  0  0  0  0  0  0  0  0
  -11.9834    2.9598  -12.9836 C   0  0  0  0  0  0  0  0  0  0  0  0
  -12.3371    2.8782  -11.2902 S   0  0  0  0  0  0  0  0  0  0  0  0
  -10.7478    2.2850  -10.9749 C   0  0  0  0  0  0  0  0  0  0  0  0
   16.9217    1.5495    6.8195 H   0  0  0  0  0  0  0  0  0  0  0  0
   15.7343    1.7947    9.1445 H   0  0  0  0  0  0  0  0  0  0  0  0
    9.4135    0.6857    8.7119 H   0  0  0  0  0  0  0  0  0  0  0  0
    7.1827    0.0588    7.9830 H   0  0  0  0  0  0  0  0  0  0  0  0
    1.8962   -1.1559    4.5589 H   0  0  0  0  0  0  0  0  0  0  0  0
    4.2790   -1.3375    0.0396 H   0  0  0  0  0  0  0  0  0  0  0  0
    5.6560   -0.4412   -1.6090 H   0  0  0  0  0  0  0  0  0  0  0  0
    6.2126   -1.3982   -3.0058 H   0  0  0  0  0  0  0  0  0  0  0  0
    5.8267   -2.2123   -1.4683 H   0  0  0  0  0  0  0  0  0  0  0  0
    0.0712   -1.2074   -4.2770 H   0  0  0  0  0  0  0  0  0  0  0  0
    0.2320   -2.9785   -4.1225 H   0  0  0  0  0  0  0  0  0  0  0  0
    1.0043   -2.1288   -5.4845 H   0  0  0  0  0  0  0  0  0  0  0  0
   -0.1669   -1.9319   -2.0829 H   0  0  0  0  0  0  0  0  0  0  0  0
   -1.5564   -2.6565    3.0448 H   0  0  0  0  0  0  0  0  0  0  0  0
   -1.8705   -2.5671    5.3567 H   0  0  0  0  0  0  0  0  0  0  0  0
   -2.7114   -3.8654    6.2430 H   0  0  0  0  0  0  0  0  0  0  0  0
   -1.8559   -4.2371    4.7251 H   0  0  0  0  0  0  0  0  0  0  0  0
   -7.5312   -1.7189    2.8446 H   0  0  0  0  0  0  0  0  0  0  0  0
   -7.4640   -3.3809    2.1923 H   0  0  0  0  0  0  0  0  0  0  0  0
   -7.9520   -3.1035    3.8829 H   0  0  0  0  0  0  0  0  0  0  0  0
   -6.0371   -1.9428    1.0365 H   0  0  0  0  0  0  0  0  0  0  0  0
   -6.5807   -0.3200   -0.1670 H   0  0  0  0  0  0  0  0  0  0  0  0
   -9.9459    1.3386   -5.3609 H   0  0  0  0  0  0  0  0  0  0  0  0
   -6.9419    0.7370   -9.1188 H   0  0  0  0  0  0  0  0  0  0  0  0
  -10.3265    2.5405  -14.2976 H   0  0  0  0  0  0  0  0  0  0  0  0
  -12.7484    3.3077  -13.6486 H   0  0  0  0  0  0  0  0  0  0  0  0
  1  2  1  0  0  0  0
  2  3  1  0  0  0  0
  3  4  2  0  0  0  0
  4  5  1  0  0  0  0
  4  6  1  0  0  0  0
  6  7  1  0  0  0  0
  7  8  1  0  0  0  0
  8  9  2  0  0  0  0
  9 10  1  0  0  0  0
 10 11  1  0  0  0  0
  9 12  1  0  0  0  0
 12 13  1  0  0  0  0
 13 14  1  0  0  0  0
 14 15  2  0  0  0  0
 15 16  1  0  0  0  0
 15 17  1  0  0  0  0
 17 18  1  0  0  0  0
 18 19  1  0  0  0  0
 19 20  2  0  0  0  0
 20 21  1  0  0  0  0
 21 22  1  0  0  0  0
 20 23  1  0  0  0  0
 23 24  1  0  0  0  0
 24 25  1  0  0  0  0
 25 26  2  0  0  0  0
 26 27  1  0  0  0  0
 27 28  1  0  0  0  0
 28 29  2  0  0  0  0
 29 30  1  0  0  0  0
 30 31  1  0  0  0  0
 29 32  1  0  0  0  0
 32 33  1  0  0  0  0
 33 34  1  0  0  0  0
 32 35  2  0  0  0  0
 25 36  1  0  0  0  0
 36 37  1  0  0  0  0
 37 38  1  0  0  0  0
 38 39  2  0  0  0  0
 39 40  1  0  0  0  0
 40 41  1  0  0  0  0
 41 42  2  0  0  0  0
 42 43  1  0  0  0  0
 43 44  1  0  0  0  0
 42 45  1  0  0  0  0
 45 46  1  0  0  0  0
 46 47  1  0  0  0  0
 45 48  2  0  0  0  0
 38 49  1  0  0  0  0
 49 50  1  0  0  0  0
 50 51  1  0  0  0  0
 51 52  2  0  0  0  0
 52 53  1  0  0  0  0
 52 54  1  0  0  0  0
 54 55  1  0  0  0  0
 55 56  1  0  0  0  0
 56 57  2  0  0  0  0
 57 58  1  0  0  0  0
 58 59  1  0  0  0  0
 57 60  1  0  0  0  0
 60 61  1  0  0  0  0
 61 62  1  0  0  0  0
 62 63  2  0  0  0  0
 63 64  1  0  0  0  0
 63 65  1  0  0  0  0
 65 66  1  0  0  0  0
 66 67  1  0  0  0  0
 67 68  2  0  0  0  0
 68 69  1  0  0  0  0
 69 70  1  0  0  0  0
  5  1  2  0  0  0  0
 11  7  2  0  0  0  0
 16 12  2  0  0  0  0
 22 18  2  0  0  0  0
 27 23  2  0  0  0  0
 40 36  2  0  0  0  0
 53 49  2  0  0  0  0
 59 55  2  0  0  0  0
 64 60  2  0  0  0  0
 70 66  2  0  0  0  0
 11  3  1  0  0  0  0
 22 14  1  0  0  0  0
 35 26  1  0  0  0  0
 48 39  1  0  0  0  0
 59 51  1  0  0  0  0
 70 62  1  0  0  0  0
  1 71  1  0  0  0  0
  5 72  1  0  0  0  0
  8 73  1  0  0  0  0
 16 74  1  0  0  0  0
 19 75  1  0  0  0  0
 28 76  1  0  0  0  0
 31 77  1  0  0  0  0
 31 78  1  0  0  0  0
 31 79  1  0  0  0  0
 34 80  1  0  0  0  0
 34 81  1  0  0  0  0
 34 82  1  0  0  0  0
 35 83  1  0  0  0  0
 41 84  1  0  0  0  0
 44 85  1  0  0  0  0
 44 86  1  0  0  0  0
 44 87  1  0  0  0  0
 47 88  1  0  0  0  0
 47 89  1  0  0  0  0
 47 90  1  0  0  0  0
 48 91  1  0  0  0  0
 53 92  1  0  0  0  0
 56 93  1  0  0  0  0
 64 94  1  0  0  0  0
 67 95  1  0  0  0  0
 68 96  1  0  0  0  0
M  END
