215

C          0.30240       -5.01010       12.22510
C          1.02700       -4.14640       11.48590
C          0.81280       -4.30340       10.08490
C          1.38570       -3.57940        9.03250
C          2.29770       -2.44150        9.22120
C          3.53480       -2.41800        8.58030
C          4.33400       -1.29520        8.63650
C          3.92600       -0.16190        9.33030
S          4.96920        1.27550        9.31240
C          3.80310        2.53340        8.66830
C          3.32070        2.18830        7.27270
C          2.71760       -0.21960       10.01630
F          2.29390        0.83780       10.74090
C          1.90340       -1.33370        9.96340
C          1.01650       -3.95070        7.75080
C          0.08430       -4.97510        7.46210
C         -0.49990       -5.69290        8.51930
C         -1.50520       -6.73230        8.26910
C         -1.39410       -8.00070        8.83520
C         -2.33790       -8.97040        8.57320
C         -3.43800       -8.71260        7.75710
S         -4.59990      -10.02520        7.52400
C         -5.10080       -9.87280        5.76880
C         -3.91400       -9.94300        4.82910
C         -3.55820       -7.42870        7.23390
C         -2.60560       -6.45730        7.46310
F         -4.62490       -7.08260        6.47920
C         -0.10060       -5.34920        9.80460
S         -0.68320       -6.07580       11.28120
C         -0.11390       -5.12430        6.06640
C          0.59700       -4.24100        5.29940
S          1.57810       -3.17790        6.29630
C          0.58130       -4.12860        3.88340
S         -0.46940       -5.17310        2.96810
C          0.02340       -4.48960        1.46340
C          0.95650       -3.47070        1.66070
C          1.27430       -3.25920        3.03610
C          2.17000       -2.21970        3.37630
C          2.69560       -1.40920        2.40970
O          3.52500       -0.36340        2.62820
C          3.83670       -0.00560        3.95510
C          2.35450       -1.61450        1.02530
O          2.92540       -0.73470        0.16160
C          2.67350       -0.90360       -1.21230
C          1.50750       -2.62220        0.67250
C         -0.54400       -4.78890        0.18390
C          0.15430       -4.81070       -0.98640
C         -0.65160       -4.61560       -2.13590
C         -0.19250       -4.26040       -3.41500
C          1.23690       -4.35650       -3.74180
C          1.96920       -3.24930       -4.15800
C          3.31730       -3.35080       -4.44580
C          3.97680       -4.57100       -4.34380
S          5.68050       -4.84560       -4.68930
C          6.18690       -3.36180       -5.62080
C          5.55690       -3.29900       -6.99870
C          3.23240       -5.66910       -3.90580
F          3.84280       -6.86410       -3.77530
C          1.89410       -5.57740       -3.59990
C         -1.12620       -3.69550       -4.26260
C         -2.50390       -3.57040       -3.94210
C         -2.97940       -4.05210       -2.70770
C         -4.39640       -3.98520       -2.32710
C         -5.04010       -5.12790       -1.85410
C         -6.38110       -5.10060       -1.53520
C         -7.13050       -3.93420       -1.66500
S         -8.84500       -3.98990       -1.22180
C         -9.65100       -3.11970       -2.61790
C         -9.39290       -3.81910       -3.93810
C         -6.46250       -2.78790       -2.08240
C         -5.12360       -2.80250       -2.41610
F         -7.11300       -1.60570       -2.18160
C         -2.02410       -4.51530       -1.81270
S         -2.28540       -4.75270       -0.09840
C         -3.19090       -2.76080       -4.88280
C         -2.36870       -2.19220       -5.82040
S         -0.74780       -2.87570       -5.75510
C         -2.53330       -0.94040       -6.47740
S         -1.07940        0.00030       -6.65170
C         -1.94980        1.50690       -6.66710
C         -3.32440        1.26410       -6.74480
C         -3.65660       -0.12320       -6.62390
C         -5.01290       -0.51270       -6.60200
C         -5.99880        0.43190       -6.67960
O         -7.32940        0.18330       -6.64860
C         -7.75780       -1.13460       -6.41230
C         -5.66210        1.82740       -6.81190
O         -6.73120        2.65260       -6.89640
C         -6.49780        4.03490       -7.01480
C         -4.35340        2.22180       -6.84960
C         -1.23780        2.65220       -6.22460
C          0.08300        2.64720       -5.85770
C          0.44580        3.69650       -4.98710
C          1.64210        3.79970       -4.25480
C          2.78130        2.92510       -4.55220
C          3.43080        2.19890       -3.55560
C          4.51560        1.40440       -3.85870
C          4.99020        1.29380       -5.16360
S          6.37040        0.21970       -5.43520
C          7.40710        1.09520       -6.67180
C          7.37940        0.42340       -8.02990
C          4.31290        1.99620       -6.15480
F          4.69540        1.90600       -7.44760
C          3.23610        2.80760       -5.86280
C          1.64800        4.71750       -3.21780
C          0.58220        5.61780       -2.97060
C         -0.57300        5.58360       -3.77670
C         -1.66130        6.54590       -3.57000
C         -2.98500        6.14060       -3.43680
C         -4.00220        7.05890       -3.25790
C         -3.73000        8.42130       -3.21100
S         -4.92160        9.69680       -2.99920
C         -6.51160        8.78950       -2.93500
C         -7.63750        9.79710       -2.79820
C         -2.39530        8.81420       -3.33950
C         -1.37390        7.90980       -3.51160
F         -2.09670       10.12870       -3.29740
C         -0.63590        4.57270       -4.72260
S         -2.04490        4.10910       -5.65420
C          0.79030        6.36690       -1.78510
C          1.93750        6.04470       -1.11680
S          2.89280        4.87160       -2.00790
C          2.35090        6.50770        0.16600
S          1.79530        8.05080        0.73980
C          2.56170        7.84500        2.25130
C          3.21270        6.63740        2.34590
C          3.10400        5.86230        1.14540
C          3.68680        4.57550        1.10480
C          4.34510        4.08410        2.19550
O          4.94070        2.87050        2.26670
C          4.92310        2.04780        1.12100
C          4.45710        4.87010        3.40310
O          5.12610        4.24480        4.40720
C          5.32380        4.94530        5.60990
C          3.90980        6.11610        3.46620
H          0.27770       -5.10540       13.29320
H          1.70330       -3.42050       11.90020
H          3.86630       -3.28460        8.02930
H          5.28440       -1.27130        8.12670
H          2.97850        2.63240        9.37150
H          4.38400        3.45530        8.67150
H          2.65520        2.96880        6.90880
H          4.15900        2.09710        6.58570
H          2.77460        1.24590        7.27770
H          0.95670       -1.31930       10.48140
H         -0.54620       -8.23610        9.45930
H         -2.23890       -9.95700        8.99800
H         -5.76530      -10.72520        5.62710
H         -5.66980       -8.95490        5.63970
H         -3.34690      -10.85640        4.99680
H         -4.26260       -9.93060        3.79840
H         -3.25070       -9.09260        4.97530
H         -2.75300       -5.47640        7.03810
H         -0.75550       -5.87140        5.63400
H          2.42600       -2.05890        4.40750
H          4.42810        0.90600        3.87900
H          4.41970       -0.78600        4.45430
H          2.93190        0.19400        4.53750
H          1.61200       -0.77200       -1.44710
H          2.99900       -1.88800       -1.56460
H          3.25100       -0.13210       -1.71720
H          1.21490       -2.76710       -0.35300
H          1.22480       -4.90140       -1.02670
H          1.48820       -2.28660       -4.23980
H          3.85220       -2.46360       -4.74390
H          5.96550       -2.47910       -5.02350
H          7.26960       -3.46450       -5.69290
H          5.85690       -4.15930       -7.59240
H          5.87970       -2.39250       -7.50560
H          4.47110       -3.28860       -6.93290
H          1.36350       -6.45830       -3.27350
H         -4.48600       -6.04930       -1.76110
H         -6.87840       -5.99130       -1.18470
H         -9.31800       -2.08440       -2.63120
H        -10.70890       -3.14810       -2.35870
H         -9.93410       -3.31460       -4.73600
H         -8.33140       -3.81000       -4.18110
H         -9.72430       -4.85400       -3.89060
H         -4.65180       -1.87490       -2.70120
H         -4.22610       -2.49820       -4.78390
H         -5.24680       -1.56260       -6.54670
H         -7.37820       -1.51030       -5.45650
H         -8.84470       -1.08750       -6.37540
H         -7.45220       -1.81150       -7.21680
H         -5.96290        4.27390       -7.93950
H         -7.48300        4.49740       -7.03770
H         -5.93070        4.42080       -6.16140
H         -4.08420        3.25730       -6.97120
H          0.74420        1.83550       -6.10550
H          3.07630        2.25270       -2.53840
H          5.02710        0.85360       -3.08390
H          8.41200        1.07710       -6.24900
H          7.05940        2.12440       -6.71780
H          7.73400       -0.60250       -7.95310
H          6.37230        0.41900       -8.43840
H          8.02760        0.96440       -8.71620
H          2.76170        3.35120       -6.66520
H         -3.22670        5.08920       -3.44790
H         -5.01270        6.70050       -3.14990
H         -6.48400        8.11830       -2.07640
H         -6.60990        8.21820       -3.85830
H         -7.64400       10.47760       -3.64640
H         -8.59380        9.28020       -2.75660
H         -7.51620       10.38170       -1.88940
H         -0.36280        8.27000       -3.62060
H          0.07340        7.06590       -1.39240
H          2.48780        8.61640        2.99140
H          3.59230        3.98550        0.21040
H          3.90850        1.72510        0.87370
H          5.51150        1.17000        1.37870
H          5.37360        2.55400        0.26140
H          5.88900        5.86880        5.44830
H          5.89960        4.27820        6.24940
H          4.37220        5.18500        6.09610
H          3.97470        6.72500        4.35300
