
  xtb     03012217503D
 energy: -460.358383635094 gnorm: 0.000224756852 xtb: 6.4.1 (unknown)
233259  0     0  0            999 V2000
  -20.3923    2.0001    3.9867 C   0  0  0  0  0  0  0  0  0  0  0  0
  -19.7150    1.2988    4.9182 C   0  0  0  0  0  0  0  0  0  0  0  0
  -18.3471    1.0969    4.5717 C   0  0  0  0  0  0  0  0  0  0  0  0
  -17.3688    0.3763    5.2745 C   0  0  0  0  0  0  0  0  0  0  0  0
  -17.6334   -0.1654    6.5970 C   0  0  0  0  0  0  0  0  0  0  0  0
  -17.3219   -1.8300    6.9869 S   0  0  0  0  0  0  0  0  0  0  0  0
  -17.8391   -1.6233    8.6249 C   0  0  0  0  0  0  0  0  0  0  0  0
  -17.8742   -2.7684    9.5757 C   0  0  0  0  0  0  0  0  0  0  0  0
  -19.2044   -3.5195    9.4809 C   0  0  0  0  0  0  0  0  0  0  0  0
  -18.2317   -0.3357    8.8402 C   0  0  0  0  0  0  0  0  0  0  0  0
  -18.8049    0.2503   10.3480 Cl  0  0  0  0  0  0  0  0  0  0  0  0
  -18.1126    0.4953    7.6947 C   0  0  0  0  0  0  0  0  0  0  0  0
  -18.4610    2.1759    7.7318 Cl  0  0  0  0  0  0  0  0  0  0  0  0
  -16.1346    0.2208    4.6565 C   0  0  0  0  0  0  0  0  0  0  0  0
  -15.8212    0.8025    3.4041 C   0  0  0  0  0  0  0  0  0  0  0  0
  -16.7850    1.5652    2.7227 C   0  0  0  0  0  0  0  0  0  0  0  0
  -16.4947    2.1832    1.4395 C   0  0  0  0  0  0  0  0  0  0  0  0
  -15.8826    1.2487    0.1053 S   0  0  0  0  0  0  0  0  0  0  0  0
  -15.8504    2.6223   -0.9465 C   0  0  0  0  0  0  0  0  0  0  0  0
  -15.4397    2.4944   -2.3720 C   0  0  0  0  0  0  0  0  0  0  0  0
  -16.6317    2.1074   -3.2506 C   0  0  0  0  0  0  0  0  0  0  0  0
  -16.2969    3.7301   -0.2907 C   0  0  0  0  0  0  0  0  0  0  0  0
  -16.6600    3.4869    1.0617 C   0  0  0  0  0  0  0  0  0  0  0  0
  -17.1667    4.7396    2.1151 Cl  0  0  0  0  0  0  0  0  0  0  0  0
  -16.4057    5.2853   -1.0070 Cl  0  0  0  0  0  0  0  0  0  0  0  0
  -18.0348    1.6808    3.3205 C   0  0  0  0  0  0  0  0  0  0  0  0
  -19.4263    2.4666    2.6312 S   0  0  0  0  0  0  0  0  0  0  0  0
  -14.4832    0.5393    3.0200 C   0  0  0  0  0  0  0  0  0  0  0  0
  -13.7990   -0.2240    3.9204 C   0  0  0  0  0  0  0  0  0  0  0  0
  -14.7763   -0.6486    5.3088 S   0  0  0  0  0  0  0  0  0  0  0  0
  -12.4470   -0.6733    3.8193 C   0  0  0  0  0  0  0  0  0  0  0  0
  -11.5045   -0.2653    2.9199 C   0  0  0  0  0  0  0  0  0  0  0  0
  -10.2563   -0.9129    3.0762 C   0  0  0  0  0  0  0  0  0  0  0  0
   -9.0621   -0.6659    2.3730 C   0  0  0  0  0  0  0  0  0  0  0  0
   -9.0147    0.2840    1.2740 C   0  0  0  0  0  0  0  0  0  0  0  0
  -10.1294    0.1590   -0.0575 S   0  0  0  0  0  0  0  0  0  0  0  0
   -9.4159    1.4999   -0.8873 C   0  0  0  0  0  0  0  0  0  0  0  0
   -9.9030    1.9252   -2.2283 C   0  0  0  0  0  0  0  0  0  0  0  0
   -9.2688    1.0771   -3.3333 C   0  0  0  0  0  0  0  0  0  0  0  0
   -8.3744    2.0001   -0.1654 C   0  0  0  0  0  0  0  0  0  0  0  0
   -7.4159    3.3316   -0.6669 Cl  0  0  0  0  0  0  0  0  0  0  0  0
   -8.1476    1.3199    1.0620 C   0  0  0  0  0  0  0  0  0  0  0  0
   -6.9602    1.8366    2.1838 Cl  0  0  0  0  0  0  0  0  0  0  0  0
   -7.9409   -1.3828    2.7665 C   0  0  0  0  0  0  0  0  0  0  0  0
   -7.9715   -2.3528    3.8001 C   0  0  0  0  0  0  0  0  0  0  0  0
   -9.1651   -2.6033    4.5015 C   0  0  0  0  0  0  0  0  0  0  0  0
   -9.2147   -3.5701    5.5843 C   0  0  0  0  0  0  0  0  0  0  0  0
   -8.0518   -3.5258    6.8817 S   0  0  0  0  0  0  0  0  0  0  0  0
   -8.7915   -4.8593    7.7055 C   0  0  0  0  0  0  0  0  0  0  0  0
   -8.2464   -5.3774    8.9913 C   0  0  0  0  0  0  0  0  0  0  0  0
   -7.9948   -4.2582    9.9989 C   0  0  0  0  0  0  0  0  0  0  0  0
   -9.8694   -5.3024    7.0006 C   0  0  0  0  0  0  0  0  0  0  0  0
  -10.1115   -4.5792    5.8001 C   0  0  0  0  0  0  0  0  0  0  0  0
  -11.3560   -5.0218    4.7092 Cl  0  0  0  0  0  0  0  0  0  0  0  0
  -10.8597   -6.6169    7.4872 Cl  0  0  0  0  0  0  0  0  0  0  0  0
  -10.2793   -1.8587    4.1314 C   0  0  0  0  0  0  0  0  0  0  0  0
  -11.8331   -1.8928    4.9105 S   0  0  0  0  0  0  0  0  0  0  0  0
   -6.7200   -2.9853    3.9724 C   0  0  0  0  0  0  0  0  0  0  0  0
   -5.7363   -2.5038    3.1520 C   0  0  0  0  0  0  0  0  0  0  0  0
   -6.3561   -1.2741    2.0606 S   0  0  0  0  0  0  0  0  0  0  0  0
   -4.3577   -2.8401    3.0981 C   0  0  0  0  0  0  0  0  0  0  0  0
   -3.4321   -2.3851    1.7064 S   0  0  0  0  0  0  0  0  0  0  0  0
   -1.9689   -3.0668    2.3417 C   0  0  0  0  0  0  0  0  0  0  0  0
   -2.2008   -3.6409    3.5963 C   0  0  0  0  0  0  0  0  0  0  0  0
   -3.5498   -3.4857    4.0405 C   0  0  0  0  0  0  0  0  0  0  0  0
   -3.9025   -3.9148    5.3389 C   0  0  0  0  0  0  0  0  0  0  0  0
   -2.9812   -4.5354    6.1354 C   0  0  0  0  0  0  0  0  0  0  0  0
   -3.2082   -4.9778    7.3950 O   0  0  0  0  0  0  0  0  0  0  0  0
   -4.4868   -4.7888    7.9494 C   0  0  0  0  0  0  0  0  0  0  0  0
   -1.6440   -4.7656    5.6543 C   0  0  0  0  0  0  0  0  0  0  0  0
   -0.8381   -5.4253    6.5181 O   0  0  0  0  0  0  0  0  0  0  0  0
    0.4900   -5.6793    6.1275 C   0  0  0  0  0  0  0  0  0  0  0  0
   -1.2721   -4.3107    4.4206 C   0  0  0  0  0  0  0  0  0  0  0  0
   -0.7707   -2.9036    1.6002 C   0  0  0  0  0  0  0  0  0  0  0  0
   -0.6469   -2.2362    0.4091 C   0  0  0  0  0  0  0  0  0  0  0  0
    0.6787   -2.1410   -0.0696 C   0  0  0  0  0  0  0  0  0  0  0  0
    1.1498   -1.4689   -1.2156 C   0  0  0  0  0  0  0  0  0  0  0  0
    0.2405   -0.7404   -2.0831 C   0  0  0  0  0  0  0  0  0  0  0  0
   -0.8817    0.4233   -1.4363 S   0  0  0  0  0  0  0  0  0  0  0  0
   -1.5217    0.7980   -2.9991 C   0  0  0  0  0  0  0  0  0  0  0  0
   -2.5842    1.8270   -3.1682 C   0  0  0  0  0  0  0  0  0  0  0  0
   -1.9906    3.2375   -3.1669 C   0  0  0  0  0  0  0  0  0  0  0  0
   -0.8853    0.0665   -3.9566 C   0  0  0  0  0  0  0  0  0  0  0  0
   -1.2476    0.1606   -5.6313 Cl  0  0  0  0  0  0  0  0  0  0  0  0
    0.1107   -0.8076   -3.4431 C   0  0  0  0  0  0  0  0  0  0  0  0
    0.9765   -1.8945   -4.4458 Cl  0  0  0  0  0  0  0  0  0  0  0  0
    2.5197   -1.5070   -1.4489 C   0  0  0  0  0  0  0  0  0  0  0  0
    3.4205   -2.2025   -0.6037 C   0  0  0  0  0  0  0  0  0  0  0  0
    2.9572   -2.8453    0.5578 C   0  0  0  0  0  0  0  0  0  0  0  0
    3.8782   -3.4689    1.4926 C   0  0  0  0  0  0  0  0  0  0  0  0
    3.6091   -5.0863    2.0743 S   0  0  0  0  0  0  0  0  0  0  0  0
    5.0406   -5.0610    3.0484 C   0  0  0  0  0  0  0  0  0  0  0  0
    5.4023   -6.2201    3.9097 C   0  0  0  0  0  0  0  0  0  0  0  0
    4.4828   -6.3017    5.1302 C   0  0  0  0  0  0  0  0  0  0  0  0
    5.6723   -3.8602    2.9270 C   0  0  0  0  0  0  0  0  0  0  0  0
    5.0172   -2.9534    2.0494 C   0  0  0  0  0  0  0  0  0  0  0  0
    5.5846   -1.3472    1.8197 Cl  0  0  0  0  0  0  0  0  0  0  0  0
    7.1316   -3.4537    3.7335 Cl  0  0  0  0  0  0  0  0  0  0  0  0
    1.5913   -2.8073    0.7842 C   0  0  0  0  0  0  0  0  0  0  0  0
    0.7850   -3.4882    2.1652 S   0  0  0  0  0  0  0  0  0  0  0  0
    4.7554   -2.0960   -1.0483 C   0  0  0  0  0  0  0  0  0  0  0  0
    4.9083   -1.2779   -2.1310 C   0  0  0  0  0  0  0  0  0  0  0  0
    3.3756   -0.6728   -2.7170 S   0  0  0  0  0  0  0  0  0  0  0  0
    6.1632   -0.8592   -2.6677 C   0  0  0  0  0  0  0  0  0  0  0  0
    7.3678   -1.0329   -2.0482 C   0  0  0  0  0  0  0  0  0  0  0  0
    8.4459   -0.4242   -2.7262 C   0  0  0  0  0  0  0  0  0  0  0  0
    9.7803   -0.3335   -2.2956 C   0  0  0  0  0  0  0  0  0  0  0  0
   10.1603   -0.8279   -0.9824 C   0  0  0  0  0  0  0  0  0  0  0  0
   11.4657   -1.9511   -0.7516 S   0  0  0  0  0  0  0  0  0  0  0  0
   11.2102   -2.0157    0.9587 C   0  0  0  0  0  0  0  0  0  0  0  0
   12.0115   -2.9142    1.8349 C   0  0  0  0  0  0  0  0  0  0  0  0
   11.2931   -4.2492    2.0480 C   0  0  0  0  0  0  0  0  0  0  0  0
   10.1728   -1.2063    1.3157 C   0  0  0  0  0  0  0  0  0  0  0  0
    9.6231   -1.0116    2.9285 Cl  0  0  0  0  0  0  0  0  0  0  0  0
    9.5787   -0.5270    0.2197 C   0  0  0  0  0  0  0  0  0  0  0  0
    8.3096    0.6119    0.4233 Cl  0  0  0  0  0  0  0  0  0  0  0  0
   10.6722    0.2923   -3.1524 C   0  0  0  0  0  0  0  0  0  0  0  0
   10.2780    0.8664   -4.3868 C   0  0  0  0  0  0  0  0  0  0  0  0
    8.9320    0.8132   -4.7951 C   0  0  0  0  0  0  0  0  0  0  0  0
    8.4938    1.4300   -6.0361 C   0  0  0  0  0  0  0  0  0  0  0  0
    8.8426    3.0981   -6.3867 S   0  0  0  0  0  0  0  0  0  0  0  0
    8.0080    3.0375   -7.9008 C   0  0  0  0  0  0  0  0  0  0  0  0
    7.8735    4.2479   -8.7570 C   0  0  0  0  0  0  0  0  0  0  0  0
    6.6694    5.0893   -8.3268 C   0  0  0  0  0  0  0  0  0  0  0  0
    7.4901    1.7938   -8.1059 C   0  0  0  0  0  0  0  0  0  0  0  0
    7.7652    0.8791   -7.0538 C   0  0  0  0  0  0  0  0  0  0  0  0
    7.2953   -0.7670   -7.1253 Cl  0  0  0  0  0  0  0  0  0  0  0  0
    6.5979    1.3480   -9.5018 Cl  0  0  0  0  0  0  0  0  0  0  0  0
    8.0398    0.1685   -3.9472 C   0  0  0  0  0  0  0  0  0  0  0  0
    6.3164    0.0306   -4.1648 S   0  0  0  0  0  0  0  0  0  0  0  0
   11.3747    1.4585   -5.0606 C   0  0  0  0  0  0  0  0  0  0  0  0
   12.5498    1.3669   -4.3756 C   0  0  0  0  0  0  0  0  0  0  0  0
   12.3684    0.5274   -2.8481 S   0  0  0  0  0  0  0  0  0  0  0  0
   13.8244    1.8838   -4.7504 C   0  0  0  0  0  0  0  0  0  0  0  0
   14.9985    1.7614   -4.0700 C   0  0  0  0  0  0  0  0  0  0  0  0
   16.0824    2.4362   -4.6848 C   0  0  0  0  0  0  0  0  0  0  0  0
   17.4167    2.5100   -4.2523 C   0  0  0  0  0  0  0  0  0  0  0  0
   17.8301    1.9240   -2.9887 C   0  0  0  0  0  0  0  0  0  0  0  0
   19.1775    0.8309   -2.8883 S   0  0  0  0  0  0  0  0  0  0  0  0
   18.9899    0.6336   -1.1802 C   0  0  0  0  0  0  0  0  0  0  0  0
   19.9299   -0.2085   -0.3904 C   0  0  0  0  0  0  0  0  0  0  0  0
   21.1277    0.6162    0.0877 C   0  0  0  0  0  0  0  0  0  0  0  0
   17.9495    1.3887   -0.7266 C   0  0  0  0  0  0  0  0  0  0  0  0
   17.4659    1.4596    0.9183 Cl  0  0  0  0  0  0  0  0  0  0  0  0
   17.2856    2.1176   -1.7487 C   0  0  0  0  0  0  0  0  0  0  0  0
   15.9866    3.1913   -1.4205 Cl  0  0  0  0  0  0  0  0  0  0  0  0
   18.3085    3.1893   -5.0733 C   0  0  0  0  0  0  0  0  0  0  0  0
   17.9209    3.8156   -6.2811 C   0  0  0  0  0  0  0  0  0  0  0  0
   16.5872    3.7405   -6.7138 C   0  0  0  0  0  0  0  0  0  0  0  0
   16.1656    4.3367   -7.9711 C   0  0  0  0  0  0  0  0  0  0  0  0
   14.8299    5.4454   -8.0508 S   0  0  0  0  0  0  0  0  0  0  0  0
   14.9945    5.6408   -9.7622 C   0  0  0  0  0  0  0  0  0  0  0  0
   14.1222    6.5809  -10.5186 C   0  0  0  0  0  0  0  0  0  0  0  0
   14.6912    8.0014  -10.4844 C   0  0  0  0  0  0  0  0  0  0  0  0
   16.0297    4.8869  -10.2290 C   0  0  0  0  0  0  0  0  0  0  0  0
   16.6934    4.1426   -9.2173 C   0  0  0  0  0  0  0  0  0  0  0  0
   17.9761    3.0544   -9.5604 Cl  0  0  0  0  0  0  0  0  0  0  0  0
   16.4971    4.8190  -11.8789 Cl  0  0  0  0  0  0  0  0  0  0  0  0
   15.6946    3.0634   -5.8936 C   0  0  0  0  0  0  0  0  0  0  0  0
   14.0004    2.8251   -6.2186 S   0  0  0  0  0  0  0  0  0  0  0  0
   19.0097    4.5115   -6.8836 C   0  0  0  0  0  0  0  0  0  0  0  0
   20.1550    4.3991   -6.1812 C   0  0  0  0  0  0  0  0  0  0  0  0
   19.9970    3.4542   -4.7408 S   0  0  0  0  0  0  0  0  0  0  0  0
  -21.4261    2.2855    4.0003 H   0  0  0  0  0  0  0  0  0  0  0  0
  -20.1617    0.9145    5.8163 H   0  0  0  0  0  0  0  0  0  0  0  0
  -17.7434   -2.3857   10.5897 H   0  0  0  0  0  0  0  0  0  0  0  0
  -17.0536   -3.4508    9.3491 H   0  0  0  0  0  0  0  0  0  0  0  0
  -19.3474   -3.9076    8.4753 H   0  0  0  0  0  0  0  0  0  0  0  0
  -19.2142   -4.3505   10.1810 H   0  0  0  0  0  0  0  0  0  0  0  0
  -20.0305   -2.8541    9.7183 H   0  0  0  0  0  0  0  0  0  0  0  0
  -14.6625    1.7330   -2.4579 H   0  0  0  0  0  0  0  0  0  0  0  0
  -15.0348    3.4513   -2.7071 H   0  0  0  0  0  0  0  0  0  0  0  0
  -17.4112    2.8616   -3.1805 H   0  0  0  0  0  0  0  0  0  0  0  0
  -16.3195    2.0239   -4.2881 H   0  0  0  0  0  0  0  0  0  0  0  0
  -17.0417    1.1525   -2.9306 H   0  0  0  0  0  0  0  0  0  0  0  0
  -14.0495    0.8944    2.1044 H   0  0  0  0  0  0  0  0  0  0  0  0
  -11.6893    0.4926    2.1823 H   0  0  0  0  0  0  0  0  0  0  0  0
  -10.9889    1.8224   -2.2692 H   0  0  0  0  0  0  0  0  0  0  0  0
   -9.6439    2.9749   -2.3779 H   0  0  0  0  0  0  0  0  0  0  0  0
   -8.1868    1.1788   -3.3115 H   0  0  0  0  0  0  0  0  0  0  0  0
   -9.6299    1.3999   -4.3060 H   0  0  0  0  0  0  0  0  0  0  0  0
   -9.5222    0.0286   -3.1960 H   0  0  0  0  0  0  0  0  0  0  0  0
   -7.3079   -5.9067    8.8013 H   0  0  0  0  0  0  0  0  0  0  0  0
   -8.9613   -6.0954    9.3968 H   0  0  0  0  0  0  0  0  0  0  0  0
   -7.2761   -3.5457    9.6008 H   0  0  0  0  0  0  0  0  0  0  0  0
   -8.9200   -3.7313   10.2177 H   0  0  0  0  0  0  0  0  0  0  0  0
   -7.6020   -4.6697   10.9245 H   0  0  0  0  0  0  0  0  0  0  0  0
   -6.5772   -3.8054    4.6476 H   0  0  0  0  0  0  0  0  0  0  0  0
   -4.8918   -3.7113    5.7060 H   0  0  0  0  0  0  0  0  0  0  0  0
   -5.2563   -5.3056    7.3661 H   0  0  0  0  0  0  0  0  0  0  0  0
   -4.7444   -3.7271    8.0194 H   0  0  0  0  0  0  0  0  0  0  0  0
   -4.4380   -5.2166    8.9493 H   0  0  0  0  0  0  0  0  0  0  0  0
    0.9435   -6.2147    6.9598 H   0  0  0  0  0  0  0  0  0  0  0  0
    0.5301   -6.3016    5.2275 H   0  0  0  0  0  0  0  0  0  0  0  0
    1.0409   -4.7506    5.9478 H   0  0  0  0  0  0  0  0  0  0  0  0
   -0.2695   -4.4604    4.0630 H   0  0  0  0  0  0  0  0  0  0  0  0
   -1.4965   -1.8153   -0.0969 H   0  0  0  0  0  0  0  0  0  0  0  0
   -3.0975    1.6454   -4.1142 H   0  0  0  0  0  0  0  0  0  0  0  0
   -3.3066    1.7380   -2.3545 H   0  0  0  0  0  0  0  0  0  0  0  0
   -2.7802    3.9741   -3.2891 H   0  0  0  0  0  0  0  0  0  0  0  0
   -1.2799    3.3488   -3.9820 H   0  0  0  0  0  0  0  0  0  0  0  0
   -1.4765    3.4290   -2.2281 H   0  0  0  0  0  0  0  0  0  0  0  0
    5.3185   -7.1434    3.3328 H   0  0  0  0  0  0  0  0  0  0  0  0
    6.4378   -6.1031    4.2330 H   0  0  0  0  0  0  0  0  0  0  0  0
    4.5616   -5.3941    5.7234 H   0  0  0  0  0  0  0  0  0  0  0  0
    3.4487   -6.4216    4.8152 H   0  0  0  0  0  0  0  0  0  0  0  0
    4.7605   -7.1489    5.7511 H   0  0  0  0  0  0  0  0  0  0  0  0
    5.5720   -2.6141   -0.5840 H   0  0  0  0  0  0  0  0  0  0  0  0
    7.4822   -1.5658   -1.1240 H   0  0  0  0  0  0  0  0  0  0  0  0
   12.1586   -2.4248    2.8000 H   0  0  0  0  0  0  0  0  0  0  0  0
   12.9863   -3.0899    1.3782 H   0  0  0  0  0  0  0  0  0  0  0  0
   11.8858   -4.8935    2.6918 H   0  0  0  0  0  0  0  0  0  0  0  0
   11.1393   -4.7518    1.0960 H   0  0  0  0  0  0  0  0  0  0  0  0
   10.3253   -4.0852    2.5151 H   0  0  0  0  0  0  0  0  0  0  0  0
    8.7822    4.8475   -8.6815 H   0  0  0  0  0  0  0  0  0  0  0  0
    7.7462    3.9308   -9.7937 H   0  0  0  0  0  0  0  0  0  0  0  0
    5.7551    4.5072   -8.4086 H   0  0  0  0  0  0  0  0  0  0  0  0
    6.7847    5.4124   -7.2949 H   0  0  0  0  0  0  0  0  0  0  0  0
    6.5817    5.9676   -8.9606 H   0  0  0  0  0  0  0  0  0  0  0  0
   11.3038    1.9384   -6.0200 H   0  0  0  0  0  0  0  0  0  0  0  0
   15.0824    1.1938   -3.1613 H   0  0  0  0  0  0  0  0  0  0  0  0
   20.2808   -1.0363   -1.0083 H   0  0  0  0  0  0  0  0  0  0  0  0
   19.3988   -0.6142    0.4728 H   0  0  0  0  0  0  0  0  0  0  0  0
   21.6612    1.0338   -0.7628 H   0  0  0  0  0  0  0  0  0  0  0  0
   20.7931    1.4322    0.7230 H   0  0  0  0  0  0  0  0  0  0  0  0
   21.8097   -0.0109    0.6554 H   0  0  0  0  0  0  0  0  0  0  0  0
   13.1231    6.5787  -10.0800 H   0  0  0  0  0  0  0  0  0  0  0  0
   14.0529    6.2400  -11.5532 H   0  0  0  0  0  0  0  0  0  0  0  0
   14.7711    8.3504   -9.4576 H   0  0  0  0  0  0  0  0  0  0  0  0
   14.0418    8.6774  -11.0339 H   0  0  0  0  0  0  0  0  0  0  0  0
   15.6792    8.0223  -10.9371 H   0  0  0  0  0  0  0  0  0  0  0  0
   18.9213    5.0773   -7.7923 H   0  0  0  0  0  0  0  0  0  0  0  0
   21.1132    4.8215   -6.4127 H   0  0  0  0  0  0  0  0  0  0  0  0
  1  2  2  0  0  0  0
  2  3  1  0  0  0  0
  3  4  2  0  0  0  0
  4  5  1  0  0  0  0
  5  6  1  0  0  0  0
  6  7  1  0  0  0  0
  7  8  1  0  0  0  0
  8  9  1  0  0  0  0
  7 10  2  0  0  0  0
 10 11  1  0  0  0  0
 10 12  1  0  0  0  0
 12 13  1  0  0  0  0
  4 14  1  0  0  0  0
 14 15  2  0  0  0  0
 15 16  1  0  0  0  0
 16 17  1  0  0  0  0
 17 18  1  0  0  0  0
 18 19  1  0  0  0  0
 19 20  1  0  0  0  0
 20 21  1  0  0  0  0
 19 22  2  0  0  0  0
 22 23  1  0  0  0  0
 23 24  1  0  0  0  0
 22 25  1  0  0  0  0
 16 26  2  0  0  0  0
 26 27  1  0  0  0  0
 15 28  1  0  0  0  0
 28 29  2  0  0  0  0
 29 30  1  0  0  0  0
 29 31  1  0  0  0  0
 31 32  2  0  0  0  0
 32 33  1  0  0  0  0
 33 34  2  0  0  0  0
 34 35  1  0  0  0  0
 35 36  1  0  0  0  0
 36 37  1  0  0  0  0
 37 38  1  0  0  0  0
 38 39  1  0  0  0  0
 37 40  2  0  0  0  0
 40 41  1  0  0  0  0
 40 42  1  0  0  0  0
 42 43  1  0  0  0  0
 34 44  1  0  0  0  0
 44 45  2  0  0  0  0
 45 46  1  0  0  0  0
 46 47  1  0  0  0  0
 47 48  1  0  0  0  0
 48 49  1  0  0  0  0
 49 50  1  0  0  0  0
 50 51  1  0  0  0  0
 49 52  2  0  0  0  0
 52 53  1  0  0  0  0
 53 54  1  0  0  0  0
 52 55  1  0  0  0  0
 46 56  2  0  0  0  0
 56 57  1  0  0  0  0
 45 58  1  0  0  0  0
 58 59  2  0  0  0  0
 59 60  1  0  0  0  0
 59 61  1  0  0  0  0
 61 62  1  0  0  0  0
 62 63  1  0  0  0  0
 63 64  2  0  0  0  0
 64 65  1  0  0  0  0
 65 66  1  0  0  0  0
 66 67  2  0  0  0  0
 67 68  1  0  0  0  0
 68 69  1  0  0  0  0
 67 70  1  0  0  0  0
 70 71  1  0  0  0  0
 71 72  1  0  0  0  0
 70 73  2  0  0  0  0
 63 74  1  0  0  0  0
 74 75  2  0  0  0  0
 75 76  1  0  0  0  0
 76 77  2  0  0  0  0
 77 78  1  0  0  0  0
 78 79  1  0  0  0  0
 79 80  1  0  0  0  0
 80 81  1  0  0  0  0
 81 82  1  0  0  0  0
 80 83  2  0  0  0  0
 83 84  1  0  0  0  0
 83 85  1  0  0  0  0
 85 86  1  0  0  0  0
 77 87  1  0  0  0  0
 87 88  2  0  0  0  0
 88 89  1  0  0  0  0
 89 90  1  0  0  0  0
 90 91  1  0  0  0  0
 91 92  1  0  0  0  0
 92 93  1  0  0  0  0
 93 94  1  0  0  0  0
 92 95  2  0  0  0  0
 95 96  1  0  0  0  0
 96 97  1  0  0  0  0
 95 98  1  0  0  0  0
 89 99  2  0  0  0  0
 99100  1  0  0  0  0
 88101  1  0  0  0  0
101102  2  0  0  0  0
102103  1  0  0  0  0
102104  1  0  0  0  0
104105  2  0  0  0  0
105106  1  0  0  0  0
106107  2  0  0  0  0
107108  1  0  0  0  0
108109  1  0  0  0  0
109110  1  0  0  0  0
110111  1  0  0  0  0
111112  1  0  0  0  0
110113  2  0  0  0  0
113114  1  0  0  0  0
113115  1  0  0  0  0
115116  1  0  0  0  0
107117  1  0  0  0  0
117118  2  0  0  0  0
118119  1  0  0  0  0
119120  1  0  0  0  0
120121  1  0  0  0  0
121122  1  0  0  0  0
122123  1  0  0  0  0
123124  1  0  0  0  0
122125  2  0  0  0  0
125126  1  0  0  0  0
126127  1  0  0  0  0
125128  1  0  0  0  0
119129  2  0  0  0  0
129130  1  0  0  0  0
118131  1  0  0  0  0
131132  2  0  0  0  0
132133  1  0  0  0  0
132134  1  0  0  0  0
134135  2  0  0  0  0
135136  1  0  0  0  0
136137  2  0  0  0  0
137138  1  0  0  0  0
138139  1  0  0  0  0
139140  1  0  0  0  0
140141  1  0  0  0  0
141142  1  0  0  0  0
140143  2  0  0  0  0
143144  1  0  0  0  0
143145  1  0  0  0  0
145146  1  0  0  0  0
137147  1  0  0  0  0
147148  2  0  0  0  0
148149  1  0  0  0  0
149150  1  0  0  0  0
150151  1  0  0  0  0
151152  1  0  0  0  0
152153  1  0  0  0  0
153154  1  0  0  0  0
152155  2  0  0  0  0
155156  1  0  0  0  0
156157  1  0  0  0  0
155158  1  0  0  0  0
149159  2  0  0  0  0
159160  1  0  0  0  0
148161  1  0  0  0  0
161162  2  0  0  0  0
162163  1  0  0  0  0
 27  1  1  0  0  0  0
 57 31  1  0  0  0  0
 65 61  2  0  0  0  0
100 74  1  0  0  0  0
130104  1  0  0  0  0
160134  1  0  0  0  0
 26  3  1  0  0  0  0
 56 33  1  0  0  0  0
 73 64  1  0  0  0  0
 99 76  1  0  0  0  0
129106  1  0  0  0  0
159136  1  0  0  0  0
 12  5  2  0  0  0  0
 30 14  1  0  0  0  0
 42 35  2  0  0  0  0
 60 44  1  0  0  0  0
 85 78  2  0  0  0  0
103 87  1  0  0  0  0
115108  2  0  0  0  0
133117  1  0  0  0  0
145138  2  0  0  0  0
163147  1  0  0  0  0
 23 17  2  0  0  0  0
 53 47  2  0  0  0  0
 96 90  2  0  0  0  0
126120  2  0  0  0  0
156150  2  0  0  0  0
  1164  1  0  0  0  0
  2165  1  0  0  0  0
  8166  1  0  0  0  0
  8167  1  0  0  0  0
  9168  1  0  0  0  0
  9169  1  0  0  0  0
  9170  1  0  0  0  0
 20171  1  0  0  0  0
 20172  1  0  0  0  0
 21173  1  0  0  0  0
 21174  1  0  0  0  0
 21175  1  0  0  0  0
 28176  1  0  0  0  0
 32177  1  0  0  0  0
 38178  1  0  0  0  0
 38179  1  0  0  0  0
 39180  1  0  0  0  0
 39181  1  0  0  0  0
 39182  1  0  0  0  0
 50183  1  0  0  0  0
 50184  1  0  0  0  0
 51185  1  0  0  0  0
 51186  1  0  0  0  0
 51187  1  0  0  0  0
 58188  1  0  0  0  0
 66189  1  0  0  0  0
 69190  1  0  0  0  0
 69191  1  0  0  0  0
 69192  1  0  0  0  0
 72193  1  0  0  0  0
 72194  1  0  0  0  0
 72195  1  0  0  0  0
 73196  1  0  0  0  0
 75197  1  0  0  0  0
 81198  1  0  0  0  0
 81199  1  0  0  0  0
 82200  1  0  0  0  0
 82201  1  0  0  0  0
 82202  1  0  0  0  0
 93203  1  0  0  0  0
 93204  1  0  0  0  0
 94205  1  0  0  0  0
 94206  1  0  0  0  0
 94207  1  0  0  0  0
101208  1  0  0  0  0
105209  1  0  0  0  0
111210  1  0  0  0  0
111211  1  0  0  0  0
112212  1  0  0  0  0
112213  1  0  0  0  0
112214  1  0  0  0  0
123215  1  0  0  0  0
123216  1  0  0  0  0
124217  1  0  0  0  0
124218  1  0  0  0  0
124219  1  0  0  0  0
131220  1  0  0  0  0
135221  1  0  0  0  0
141222  1  0  0  0  0
141223  1  0  0  0  0
142224  1  0  0  0  0
142225  1  0  0  0  0
142226  1  0  0  0  0
153227  1  0  0  0  0
153228  1  0  0  0  0
154229  1  0  0  0  0
154230  1  0  0  0  0
154231  1  0  0  0  0
161232  1  0  0  0  0
162233  1  0  0  0  0
M  END
