
  xtb     03022223033D
 energy: -274.341503725260 gnorm: 0.000246877337 xtb: 6.4.1 (unknown)
193199  0     0  0            999 V2000
    8.0617   -4.2391   -2.6232 C   0  0  0  0  0  0  0  0  0  0  0  0
    7.3220   -4.8012   -1.5876 C   0  0  0  0  0  0  0  0  0  0  0  0
    6.8160   -6.0740   -1.6220 O   0  0  0  0  0  0  0  0  0  0  0  0
    6.5760   -6.6934   -2.8676 C   0  0  0  0  0  0  0  0  0  0  0  0
    5.4629   -6.0071   -3.6612 C   0  0  0  0  0  0  0  0  0  0  0  0
    5.1897   -6.7278   -4.9739 C   0  0  0  0  0  0  0  0  0  0  0  0
    7.0723   -4.0332   -0.4349 C   0  0  0  0  0  0  0  0  0  0  0  0
    7.5599   -2.7247   -0.3768 C   0  0  0  0  0  0  0  0  0  0  0  0
    8.3000   -2.1740   -1.4097 C   0  0  0  0  0  0  0  0  0  0  0  0
    8.5509   -2.9525   -2.5385 C   0  0  0  0  0  0  0  0  0  0  0  0
    8.8102   -0.9104   -1.4274 O   0  0  0  0  0  0  0  0  0  0  0  0
    8.5479   -0.0575   -0.3329 C   0  0  0  0  0  0  0  0  0  0  0  0
    9.1756    1.3006   -0.6329 C   0  0  0  0  0  0  0  0  0  0  0  0
    8.4817    1.9952   -1.7978 C   0  0  0  0  0  0  0  0  0  0  0  0
    6.2716   -4.4992    0.6826 C   0  0  0  0  0  0  0  0  0  0  0  0
    6.0505   -5.7678    1.0475 C   0  0  0  0  0  0  0  0  0  0  0  0
    5.1781   -6.1511    2.1528 C   0  0  0  0  0  0  0  0  0  0  0  0
    3.9963   -5.4631    2.4429 C   0  0  0  0  0  0  0  0  0  0  0  0
    3.5853   -4.3806    1.6853 O   0  0  0  0  0  0  0  0  0  0  0  0
    3.0522   -4.7138    0.4136 C   0  0  0  0  0  0  0  0  0  0  0  0
    2.6374   -3.4183   -0.2718 C   0  0  0  0  0  0  0  0  0  0  0  0
    2.0922   -3.6727   -1.6699 C   0  0  0  0  0  0  0  0  0  0  0  0
    3.2051   -5.8413    3.5415 C   0  0  0  0  0  0  0  0  0  0  0  0
    3.6065   -6.9155    4.3242 C   0  0  0  0  0  0  0  0  0  0  0  0
    4.7577   -7.6380    4.0195 C   0  0  0  0  0  0  0  0  0  0  0  0
    5.5301   -7.2545    2.9331 C   0  0  0  0  0  0  0  0  0  0  0  0
    5.0317   -8.6782    4.8608 O   0  0  0  0  0  0  0  0  0  0  0  0
    6.0980   -9.5542    4.5672 C   0  0  0  0  0  0  0  0  0  0  0  0
    5.7691  -10.5298    3.4345 C   0  0  0  0  0  0  0  0  0  0  0  0
    6.9183  -11.4972    3.1864 C   0  0  0  0  0  0  0  0  0  0  0  0
    1.9947   -5.0776    3.7993 C   0  0  0  0  0  0  0  0  0  0  0  0
    1.4124   -4.9074    4.9909 C   0  0  0  0  0  0  0  0  0  0  0  0
    0.2418   -4.0828    5.2514 C   0  0  0  0  0  0  0  0  0  0  0  0
   -0.2014   -3.0541    4.4031 C   0  0  0  0  0  0  0  0  0  0  0  0
    0.4656   -2.7535    3.2319 O   0  0  0  0  0  0  0  0  0  0  0  0
    1.2322   -1.5591    3.2434 C   0  0  0  0  0  0  0  0  0  0  0  0
    2.6330   -1.7674    3.8189 C   0  0  0  0  0  0  0  0  0  0  0  0
    3.4383   -0.4759    3.7724 C   0  0  0  0  0  0  0  0  0  0  0  0
   -1.3536   -2.3152    4.7293 C   0  0  0  0  0  0  0  0  0  0  0  0
   -2.0347   -2.5790    5.9200 C   0  0  0  0  0  0  0  0  0  0  0  0
   -1.5892   -3.5704    6.7789 C   0  0  0  0  0  0  0  0  0  0  0  0
   -0.4624   -4.3100    6.4321 C   0  0  0  0  0  0  0  0  0  0  0  0
   -2.1556   -3.8993    7.9771 O   0  0  0  0  0  0  0  0  0  0  0  0
   -3.3491   -3.2675    8.3839 C   0  0  0  0  0  0  0  0  0  0  0  0
   -4.5879   -3.8169    7.6716 C   0  0  0  0  0  0  0  0  0  0  0  0
   -5.8573   -3.1419    8.1731 C   0  0  0  0  0  0  0  0  0  0  0  0
   -1.8180   -1.3265    3.7830 C   0  0  0  0  0  0  0  0  0  0  0  0
   -2.6991   -0.3282    3.9897 C   0  0  0  0  0  0  0  0  0  0  0  0
   -3.0599    0.6064    2.9804 C   0  0  0  0  0  0  0  0  0  0  0  0
   -2.2728    0.5932    1.4321 S   0  0  0  0  0  0  0  0  0  0  0  0
   -3.1728    1.9543    0.8575 C   0  0  0  0  0  0  0  0  0  0  0  0
   -4.0785    2.3860    1.8181 C   0  0  0  0  0  0  0  0  0  0  0  0
   -4.0064    1.6296    3.0300 C   0  0  0  0  0  0  0  0  0  0  0  0
   -4.8580    1.9639    4.1076 C   0  0  0  0  0  0  0  0  0  0  0  0
   -5.7407    2.9975    3.9850 C   0  0  0  0  0  0  0  0  0  0  0  0
   -6.6017    3.4186    4.9498 O   0  0  0  0  0  0  0  0  0  0  0  0
   -6.5938    2.7510    6.1847 C   0  0  0  0  0  0  0  0  0  0  0  0
   -5.8277    3.7429    2.7538 C   0  0  0  0  0  0  0  0  0  0  0  0
   -6.7572    4.7357    2.7736 O   0  0  0  0  0  0  0  0  0  0  0  0
   -6.9025    5.5218    1.6187 C   0  0  0  0  0  0  0  0  0  0  0  0
   -5.0250    3.4321    1.6967 C   0  0  0  0  0  0  0  0  0  0  0  0
   -2.9328    2.4337   -0.4930 C   0  0  0  0  0  0  0  0  0  0  0  0
   -2.8328    3.7948   -0.8275 C   0  0  0  0  0  0  0  0  0  0  0  0
   -2.9001    4.8165    0.0972 O   0  0  0  0  0  0  0  0  0  0  0  0
   -1.9697    4.8097    1.1654 C   0  0  0  0  0  0  0  0  0  0  0  0
   -0.5291    5.1201    0.7435 C   0  0  0  0  0  0  0  0  0  0  0  0
    0.1902    3.9274    0.1228 C   0  0  0  0  0  0  0  0  0  0  0  0
   -2.7062    4.1619   -2.1740 C   0  0  0  0  0  0  0  0  0  0  0  0
   -2.5645    3.1899   -3.1606 C   0  0  0  0  0  0  0  0  0  0  0  0
   -2.5586    1.8448   -2.8245 C   0  0  0  0  0  0  0  0  0  0  0  0
   -2.7638    1.4848   -1.4972 C   0  0  0  0  0  0  0  0  0  0  0  0
   -2.3460    0.8070   -3.6837 O   0  0  0  0  0  0  0  0  0  0  0  0
   -2.2575    1.0566   -5.0697 C   0  0  0  0  0  0  0  0  0  0  0  0
   -3.6248    1.3167   -5.7024 C   0  0  0  0  0  0  0  0  0  0  0  0
   -3.5136    1.5623   -7.1994 C   0  0  0  0  0  0  0  0  0  0  0  0
   -2.6436    5.5780   -2.5145 C   0  0  0  0  0  0  0  0  0  0  0  0
   -3.1263    6.1634   -3.6123 C   0  0  0  0  0  0  0  0  0  0  0  0
   -3.9488    5.5641   -4.6643 C   0  0  0  0  0  0  0  0  0  0  0  0
   -5.0313    4.7155   -4.3690 C   0  0  0  0  0  0  0  0  0  0  0  0
   -5.2761    4.3934   -3.0528 O   0  0  0  0  0  0  0  0  0  0  0  0
   -6.4660    4.8944   -2.4749 C   0  0  0  0  0  0  0  0  0  0  0  0
   -6.3716    6.3734   -2.0821 C   0  0  0  0  0  0  0  0  0  0  0  0
   -6.6609    7.3201   -3.2417 C   0  0  0  0  0  0  0  0  0  0  0  0
   -5.8158    4.2113   -5.4134 C   0  0  0  0  0  0  0  0  0  0  0  0
   -5.5637    4.6159   -6.7264 C   0  0  0  0  0  0  0  0  0  0  0  0
   -4.5155    5.4724   -7.0232 C   0  0  0  0  0  0  0  0  0  0  0  0
   -3.7107    5.9283   -5.9819 C   0  0  0  0  0  0  0  0  0  0  0  0
   -4.1916    5.9493   -8.2585 O   0  0  0  0  0  0  0  0  0  0  0  0
   -4.9660    5.5914   -9.3832 C   0  0  0  0  0  0  0  0  0  0  0  0
   -4.5964    4.2195   -9.9513 C   0  0  0  0  0  0  0  0  0  0  0  0
   -5.3964    3.9091  -11.2089 C   0  0  0  0  0  0  0  0  0  0  0  0
   -6.8899    3.2351   -5.2114 C   0  0  0  0  0  0  0  0  0  0  0  0
   -6.9002    2.2800   -4.2909 C   0  0  0  0  0  0  0  0  0  0  0  0
    8.2701   -4.8079   -3.5159 H   0  0  0  0  0  0  0  0  0  0  0  0
    6.2720   -7.7114   -2.6061 H   0  0  0  0  0  0  0  0  0  0  0  0
    7.4932   -6.7580   -3.4670 H   0  0  0  0  0  0  0  0  0  0  0  0
    4.5599   -5.9934   -3.0468 H   0  0  0  0  0  0  0  0  0  0  0  0
    5.7482   -4.9710   -3.8569 H   0  0  0  0  0  0  0  0  0  0  0  0
    4.3908   -6.2310   -5.5183 H   0  0  0  0  0  0  0  0  0  0  0  0
    6.0794   -6.7344   -5.5999 H   0  0  0  0  0  0  0  0  0  0  0  0
    4.8925   -7.7579   -4.7903 H   0  0  0  0  0  0  0  0  0  0  0  0
    7.3437   -2.1530    0.5124 H   0  0  0  0  0  0  0  0  0  0  0  0
    9.1262   -2.5282   -3.3458 H   0  0  0  0  0  0  0  0  0  0  0  0
    7.4639    0.0545   -0.1898 H   0  0  0  0  0  0  0  0  0  0  0  0
    8.9823   -0.4781    0.5855 H   0  0  0  0  0  0  0  0  0  0  0  0
   10.2288    1.1471   -0.8720 H   0  0  0  0  0  0  0  0  0  0  0  0
    9.1122    1.9173    0.2655 H   0  0  0  0  0  0  0  0  0  0  0  0
    8.9755    2.9356   -2.0294 H   0  0  0  0  0  0  0  0  0  0  0  0
    8.5129    1.3584   -2.6777 H   0  0  0  0  0  0  0  0  0  0  0  0
    7.4412    2.2008   -1.5553 H   0  0  0  0  0  0  0  0  0  0  0  0
    5.8188   -3.7103    1.2693 H   0  0  0  0  0  0  0  0  0  0  0  0
    6.5575   -6.5766    0.5427 H   0  0  0  0  0  0  0  0  0  0  0  0
    3.8049   -5.2422   -0.1880 H   0  0  0  0  0  0  0  0  0  0  0  0
    2.1823   -5.3765    0.5359 H   0  0  0  0  0  0  0  0  0  0  0  0
    3.5085   -2.7627   -0.3234 H   0  0  0  0  0  0  0  0  0  0  0  0
    1.8812   -2.9290    0.3437 H   0  0  0  0  0  0  0  0  0  0  0  0
    1.7806   -2.7385   -2.1301 H   0  0  0  0  0  0  0  0  0  0  0  0
    2.8535   -4.1294   -2.2991 H   0  0  0  0  0  0  0  0  0  0  0  0
    1.2332   -4.3389   -1.6298 H   0  0  0  0  0  0  0  0  0  0  0  0
    3.0137   -7.2324    5.1668 H   0  0  0  0  0  0  0  0  0  0  0  0
    6.4387   -7.7768    2.6765 H   0  0  0  0  0  0  0  0  0  0  0  0
    6.2582  -10.1103    5.4958 H   0  0  0  0  0  0  0  0  0  0  0  0
    7.0153   -8.9951    4.3422 H   0  0  0  0  0  0  0  0  0  0  0  0
    5.5512   -9.9690    2.5235 H   0  0  0  0  0  0  0  0  0  0  0  0
    4.8671  -11.0815    3.7061 H   0  0  0  0  0  0  0  0  0  0  0  0
    7.1368  -12.0700    4.0849 H   0  0  0  0  0  0  0  0  0  0  0  0
    7.8182  -10.9582    2.8976 H   0  0  0  0  0  0  0  0  0  0  0  0
    6.6634  -12.1912    2.3895 H   0  0  0  0  0  0  0  0  0  0  0  0
    1.5904   -4.5640    2.9417 H   0  0  0  0  0  0  0  0  0  0  0  0
    1.8150   -5.4067    5.8636 H   0  0  0  0  0  0  0  0  0  0  0  0
    1.3032   -1.2475    2.1963 H   0  0  0  0  0  0  0  0  0  0  0  0
    0.7098   -0.7734    3.8061 H   0  0  0  0  0  0  0  0  0  0  0  0
    3.1365   -2.5443    3.2422 H   0  0  0  0  0  0  0  0  0  0  0  0
    2.5450   -2.1160    4.8505 H   0  0  0  0  0  0  0  0  0  0  0  0
    3.5466   -0.1320    2.7460 H   0  0  0  0  0  0  0  0  0  0  0  0
    4.4296   -0.6342    4.1893 H   0  0  0  0  0  0  0  0  0  0  0  0
    2.9449    0.3073    4.3453 H   0  0  0  0  0  0  0  0  0  0  0  0
   -2.9215   -2.0072    6.1368 H   0  0  0  0  0  0  0  0  0  0  0  0
   -0.1409   -5.0865    7.1089 H   0  0  0  0  0  0  0  0  0  0  0  0
   -3.2791   -2.1794    8.2551 H   0  0  0  0  0  0  0  0  0  0  0  0
   -3.4196   -3.4783    9.4554 H   0  0  0  0  0  0  0  0  0  0  0  0
   -4.6399   -4.8922    7.8513 H   0  0  0  0  0  0  0  0  0  0  0  0
   -4.4868   -3.6678    6.5948 H   0  0  0  0  0  0  0  0  0  0  0  0
   -5.8224   -2.0703    7.9864 H   0  0  0  0  0  0  0  0  0  0  0  0
   -6.7281   -3.5498    7.6666 H   0  0  0  0  0  0  0  0  0  0  0  0
   -5.9764   -3.2977    9.2430 H   0  0  0  0  0  0  0  0  0  0  0  0
   -1.3918   -1.4165    2.7915 H   0  0  0  0  0  0  0  0  0  0  0  0
   -3.1604   -0.1812    4.9562 H   0  0  0  0  0  0  0  0  0  0  0  0
   -4.7945    1.3896    5.0169 H   0  0  0  0  0  0  0  0  0  0  0  0
   -6.8604    1.6942    6.0732 H   0  0  0  0  0  0  0  0  0  0  0  0
   -5.6187    2.8280    6.6781 H   0  0  0  0  0  0  0  0  0  0  0  0
   -7.3458    3.2489    6.7946 H   0  0  0  0  0  0  0  0  0  0  0  0
   -5.9623    6.0085    1.3399 H   0  0  0  0  0  0  0  0  0  0  0  0
   -7.2608    4.9256    0.7724 H   0  0  0  0  0  0  0  0  0  0  0  0
   -7.6453    6.2779    1.8685 H   0  0  0  0  0  0  0  0  0  0  0  0
   -5.0781    3.9685    0.7650 H   0  0  0  0  0  0  0  0  0  0  0  0
   -1.9896    3.8578    1.7063 H   0  0  0  0  0  0  0  0  0  0  0  0
   -2.3355    5.5948    1.8335 H   0  0  0  0  0  0  0  0  0  0  0  0
   -0.5345    5.9565    0.0420 H   0  0  0  0  0  0  0  0  0  0  0  0
    0.0115    5.4377    1.6381 H   0  0  0  0  0  0  0  0  0  0  0  0
   -0.2727    3.6325   -0.8156 H   0  0  0  0  0  0  0  0  0  0  0  0
    1.2300    4.1800   -0.0733 H   0  0  0  0  0  0  0  0  0  0  0  0
    0.1658    3.0749    0.7989 H   0  0  0  0  0  0  0  0  0  0  0  0
   -2.4288    3.5200   -4.1771 H   0  0  0  0  0  0  0  0  0  0  0  0
   -2.8001    0.4347   -1.2518 H   0  0  0  0  0  0  0  0  0  0  0  0
   -1.5709    1.8872   -5.2772 H   0  0  0  0  0  0  0  0  0  0  0  0
   -1.8225    0.1422   -5.4848 H   0  0  0  0  0  0  0  0  0  0  0  0
   -4.2634    0.4519   -5.5121 H   0  0  0  0  0  0  0  0  0  0  0  0
   -4.0855    2.1815   -5.2235 H   0  0  0  0  0  0  0  0  0  0  0  0
   -2.9346    2.4619   -7.3979 H   0  0  0  0  0  0  0  0  0  0  0  0
   -4.5052    1.6880   -7.6262 H   0  0  0  0  0  0  0  0  0  0  0  0
   -3.0295    0.7232   -7.6944 H   0  0  0  0  0  0  0  0  0  0  0  0
   -2.1470    6.1979   -1.7789 H   0  0  0  0  0  0  0  0  0  0  0  0
   -2.9220    7.2170   -3.7642 H   0  0  0  0  0  0  0  0  0  0  0  0
   -6.6030    4.2806   -1.5797 H   0  0  0  0  0  0  0  0  0  0  0  0
   -7.3241    4.7378   -3.1406 H   0  0  0  0  0  0  0  0  0  0  0  0
   -7.0917    6.5602   -1.2823 H   0  0  0  0  0  0  0  0  0  0  0  0
   -5.3704    6.5566   -1.6882 H   0  0  0  0  0  0  0  0  0  0  0  0
   -5.9428    7.1870   -4.0462 H   0  0  0  0  0  0  0  0  0  0  0  0
   -7.6581    7.1383   -3.6388 H   0  0  0  0  0  0  0  0  0  0  0  0
   -6.6101    8.3525   -2.9035 H   0  0  0  0  0  0  0  0  0  0  0  0
   -6.2020    4.2238   -7.5030 H   0  0  0  0  0  0  0  0  0  0  0  0
   -2.8925    6.5902   -6.2206 H   0  0  0  0  0  0  0  0  0  0  0  0
   -4.7445    6.3646  -10.1255 H   0  0  0  0  0  0  0  0  0  0  0  0
   -6.0372    5.6387   -9.1502 H   0  0  0  0  0  0  0  0  0  0  0  0
   -3.5285    4.2155  -10.1771 H   0  0  0  0  0  0  0  0  0  0  0  0
   -4.7761    3.4511   -9.1982 H   0  0  0  0  0  0  0  0  0  0  0  0
   -6.4631    3.9048  -10.9944 H   0  0  0  0  0  0  0  0  0  0  0  0
   -5.1210    2.9330  -11.5996 H   0  0  0  0  0  0  0  0  0  0  0  0
   -5.2058    4.6543  -11.9778 H   0  0  0  0  0  0  0  0  0  0  0  0
   -7.6945    3.2882   -5.9365 H   0  0  0  0  0  0  0  0  0  0  0  0
   -6.1074    2.1721   -3.5705 H   0  0  0  0  0  0  0  0  0  0  0  0
   -7.7086    1.5709   -4.2288 H   0  0  0  0  0  0  0  0  0  0  0  0
  1  2  2  0  0  0  0
  2  3  1  0  0  0  0
  3  4  1  0  0  0  0
  4  5  1  0  0  0  0
  5  6  1  0  0  0  0
  2  7  1  0  0  0  0
  7  8  2  0  0  0  0
  8  9  1  0  0  0  0
  9 10  2  0  0  0  0
  9 11  1  0  0  0  0
 11 12  1  0  0  0  0
 12 13  1  0  0  0  0
 13 14  1  0  0  0  0
  7 15  1  0  0  0  0
 15 16  2  0  0  0  0
 16 17  1  0  0  0  0
 17 18  2  0  0  0  0
 18 19  1  0  0  0  0
 19 20  1  0  0  0  0
 20 21  1  0  0  0  0
 21 22  1  0  0  0  0
 18 23  1  0  0  0  0
 23 24  2  0  0  0  0
 24 25  1  0  0  0  0
 25 26  2  0  0  0  0
 25 27  1  0  0  0  0
 27 28  1  0  0  0  0
 28 29  1  0  0  0  0
 29 30  1  0  0  0  0
 23 31  1  0  0  0  0
 31 32  2  0  0  0  0
 32 33  1  0  0  0  0
 33 34  2  0  0  0  0
 34 35  1  0  0  0  0
 35 36  1  0  0  0  0
 36 37  1  0  0  0  0
 37 38  1  0  0  0  0
 34 39  1  0  0  0  0
 39 40  2  0  0  0  0
 40 41  1  0  0  0  0
 41 42  2  0  0  0  0
 41 43  1  0  0  0  0
 43 44  1  0  0  0  0
 44 45  1  0  0  0  0
 45 46  1  0  0  0  0
 39 47  1  0  0  0  0
 47 48  2  0  0  0  0
 48 49  1  0  0  0  0
 49 50  1  0  0  0  0
 50 51  1  0  0  0  0
 51 52  2  0  0  0  0
 52 53  1  0  0  0  0
 53 54  1  0  0  0  0
 54 55  2  0  0  0  0
 55 56  1  0  0  0  0
 56 57  1  0  0  0  0
 55 58  1  0  0  0  0
 58 59  1  0  0  0  0
 59 60  1  0  0  0  0
 58 61  2  0  0  0  0
 51 62  1  0  0  0  0
 62 63  2  0  0  0  0
 63 64  1  0  0  0  0
 64 65  1  0  0  0  0
 65 66  1  0  0  0  0
 66 67  1  0  0  0  0
 63 68  1  0  0  0  0
 68 69  2  0  0  0  0
 69 70  1  0  0  0  0
 70 71  2  0  0  0  0
 70 72  1  0  0  0  0
 72 73  1  0  0  0  0
 73 74  1  0  0  0  0
 74 75  1  0  0  0  0
 68 76  1  0  0  0  0
 76 77  2  0  0  0  0
 77 78  1  0  0  0  0
 78 79  2  0  0  0  0
 79 80  1  0  0  0  0
 80 81  1  0  0  0  0
 81 82  1  0  0  0  0
 82 83  1  0  0  0  0
 79 84  1  0  0  0  0
 84 85  2  0  0  0  0
 85 86  1  0  0  0  0
 86 87  2  0  0  0  0
 86 88  1  0  0  0  0
 88 89  1  0  0  0  0
 89 90  1  0  0  0  0
 90 91  1  0  0  0  0
 84 92  1  0  0  0  0
 92 93  2  0  0  0  0
 10  1  1  0  0  0  0
 26 17  1  0  0  0  0
 42 33  1  0  0  0  0
 53 49  2  0  0  0  0
 71 62  1  0  0  0  0
 87 78  1  0  0  0  0
 61 52  1  0  0  0  0
  1 94  1  0  0  0  0
  4 95  1  0  0  0  0
  4 96  1  0  0  0  0
  5 97  1  0  0  0  0
  5 98  1  0  0  0  0
  6 99  1  0  0  0  0
  6100  1  0  0  0  0
  6101  1  0  0  0  0
  8102  1  0  0  0  0
 10103  1  0  0  0  0
 12104  1  0  0  0  0
 12105  1  0  0  0  0
 13106  1  0  0  0  0
 13107  1  0  0  0  0
 14108  1  0  0  0  0
 14109  1  0  0  0  0
 14110  1  0  0  0  0
 15111  1  0  0  0  0
 16112  1  0  0  0  0
 20113  1  0  0  0  0
 20114  1  0  0  0  0
 21115  1  0  0  0  0
 21116  1  0  0  0  0
 22117  1  0  0  0  0
 22118  1  0  0  0  0
 22119  1  0  0  0  0
 24120  1  0  0  0  0
 26121  1  0  0  0  0
 28122  1  0  0  0  0
 28123  1  0  0  0  0
 29124  1  0  0  0  0
 29125  1  0  0  0  0
 30126  1  0  0  0  0
 30127  1  0  0  0  0
 30128  1  0  0  0  0
 31129  1  0  0  0  0
 32130  1  0  0  0  0
 36131  1  0  0  0  0
 36132  1  0  0  0  0
 37133  1  0  0  0  0
 37134  1  0  0  0  0
 38135  1  0  0  0  0
 38136  1  0  0  0  0
 38137  1  0  0  0  0
 40138  1  0  0  0  0
 42139  1  0  0  0  0
 44140  1  0  0  0  0
 44141  1  0  0  0  0
 45142  1  0  0  0  0
 45143  1  0  0  0  0
 46144  1  0  0  0  0
 46145  1  0  0  0  0
 46146  1  0  0  0  0
 47147  1  0  0  0  0
 48148  1  0  0  0  0
 54149  1  0  0  0  0
 57150  1  0  0  0  0
 57151  1  0  0  0  0
 57152  1  0  0  0  0
 60153  1  0  0  0  0
 60154  1  0  0  0  0
 60155  1  0  0  0  0
 61156  1  0  0  0  0
 65157  1  0  0  0  0
 65158  1  0  0  0  0
 66159  1  0  0  0  0
 66160  1  0  0  0  0
 67161  1  0  0  0  0
 67162  1  0  0  0  0
 67163  1  0  0  0  0
 69164  1  0  0  0  0
 71165  1  0  0  0  0
 73166  1  0  0  0  0
 73167  1  0  0  0  0
 74168  1  0  0  0  0
 74169  1  0  0  0  0
 75170  1  0  0  0  0
 75171  1  0  0  0  0
 75172  1  0  0  0  0
 76173  1  0  0  0  0
 77174  1  0  0  0  0
 81175  1  0  0  0  0
 81176  1  0  0  0  0
 82177  1  0  0  0  0
 82178  1  0  0  0  0
 83179  1  0  0  0  0
 83180  1  0  0  0  0
 83181  1  0  0  0  0
 85182  1  0  0  0  0
 87183  1  0  0  0  0
 89184  1  0  0  0  0
 89185  1  0  0  0  0
 90186  1  0  0  0  0
 90187  1  0  0  0  0
 91188  1  0  0  0  0
 91189  1  0  0  0  0
 91190  1  0  0  0  0
 92191  1  0  0  0  0
 93192  1  0  0  0  0
 93193  1  0  0  0  0
M  END
