170

C          6.94390       -5.73820       12.42200
S          5.55360       -5.24780       11.56440
C          6.40550       -5.22050       10.04650
C          7.73840       -5.58750       10.23170
C          8.03810       -5.88240       11.60150
C          9.34950       -6.26940       11.97600
C         10.32630       -6.35400       11.02960
O         11.61650       -6.70860       11.25170
C         12.00040       -7.02590       12.56590
C         10.02870       -6.04820        9.64950
O         11.08960       -6.16260        8.81470
C         10.89660       -5.88290        7.44970
C          8.76950       -5.67830        9.27140
C          5.69300       -4.84640        8.87580
C          4.41020       -4.37270        8.82520
C          3.95150       -4.07770        7.52130
C          2.69160       -3.58510        7.13140
C          1.61480       -3.44650        8.09480
S          0.70580       -1.97270        8.25040
C         -0.28970       -2.62740        9.50500
C         -1.33210       -1.80230       10.17500
C         -0.73620       -1.00500       11.33770
C          0.07560       -3.91160        9.77900
Cl        -0.68670       -4.89050       10.96480
C          1.15050       -4.38190        8.97940
Cl         1.72970       -5.99500        9.07330
C          2.53170       -3.25480        5.79200
C          3.54450       -3.46280        4.82460
C          4.76760       -4.05340        5.19530
C          5.77430       -4.37160        4.19900
S          7.43990       -3.91550        4.41120
C          7.90530       -4.59470        2.88790
C          9.32590       -4.57960        2.44270
C         10.13560       -5.66030        3.16300
C          6.82540       -5.14990        2.27040
C          5.61690       -5.02680        3.00740
Cl         4.14500       -5.72830        2.46410
Cl         6.88700       -5.92050        0.73840
C          4.95030       -4.31070        6.54520
S          6.39550       -4.95330        7.26920
C          3.15640       -3.00390        3.54610
C          1.88400       -2.51030        3.50430
S          1.10410       -2.56470        5.07030
C          1.21630       -2.01700        2.34470
C          1.64060       -2.16460        1.05490
C          0.77810       -1.57830        0.10280
C          0.94030       -1.53330       -1.29700
C          2.05360       -2.21040       -1.94050
S          2.39830       -3.88140       -1.58700
C          3.74490       -3.92130       -2.67140
C          4.53520       -5.16610       -2.87870
C          3.93400       -6.02060       -3.99680
C          3.89610       -2.71020       -3.27690
Cl         5.12430       -2.36450       -4.42520
C          2.94630       -1.73750       -2.86260
Cl         3.01180       -0.11460       -3.41120
C         -0.02180       -0.84080       -2.01340
C         -1.13230       -0.19830       -1.40540
C         -1.28660       -0.23850       -0.00580
C         -2.39690        0.42860        0.65020
S         -3.39950       -0.41700        1.79400
C         -4.38850        0.97440        2.07840
C         -5.55560        0.91480        3.00080
C         -6.74480        0.21390        2.34060
C         -3.95820        2.02140        1.32050
C         -2.82820        1.71970        0.51410
Cl        -2.05420        2.90880       -0.45460
Cl        -4.68290        3.57770        1.33840
C         -0.33180       -0.94650        0.71280
S         -0.28840       -1.12920        2.44500
C         -1.98520        0.39030       -2.35900
C         -1.56390        0.25150       -3.65920
S         -0.08440       -0.68960       -3.74510
C         -2.17370        0.83630       -4.79050
S         -3.45920        1.97520       -4.52170
C         -3.64900        2.33890       -6.21410
C         -2.75190        1.55060       -6.96410
C         -1.91290        0.72320       -6.15940
C         -0.94070       -0.09630       -6.76680
C         -0.79520       -0.10660       -8.12620
O          0.11580       -0.83820       -8.80950
C          1.01920       -1.62910       -8.07520
C         -1.66310        0.69470       -8.94330
O         -1.45110        0.57390      -10.27690
C         -2.24710        1.33430      -11.15220
C         -2.61400        1.49190       -8.36590
C         -4.53740        3.35060       -6.63480
S         -4.52820        3.92010       -8.28570
C         -5.71770        5.14400       -7.99050
C         -6.08800        5.14220       -6.64490
C         -5.45260        4.11620       -5.88450
C         -5.78530        3.99200       -4.51980
C         -6.63780        4.88050       -3.92160
O         -7.00840        4.84610       -2.62010
C         -6.42650        3.87600       -1.78280
C         -7.19440        5.97260       -4.67340
O         -7.97380        6.81990       -3.95350
C         -8.49780        7.95160       -4.60130
C         -6.92040        6.08850       -6.00550
C         -6.16340        5.98200       -9.04720
S         -5.04520        6.52900      -10.26430
C         -6.24220        7.46300      -11.04910
C         -7.46850        7.35720      -10.43590
C         -7.43760        6.48910       -9.29750
C         -8.64620        6.17800       -8.63240
C         -9.81030        6.77410       -9.02230
O        -11.02800        6.55980       -8.45970
C        -11.12460        5.62350       -7.41630
C         -9.82630        7.71470      -10.11900
O        -11.04900        8.24830      -10.36970
C        -11.17080        9.15410      -11.43710
C         -8.68520        7.97940      -10.81530
H          6.88740       -5.89420       13.48070
H          9.53890       -6.48690       13.01430
H         13.05800       -7.27790       12.51160
H         11.44150       -7.88540       12.95090
H         11.86420       -6.17440       13.24090
H         11.86690       -6.03470        6.97960
H         10.16350       -6.56150        7.00120
H         10.57240       -4.84870        7.29310
H          8.55030       -5.44680        8.24430
H          3.82270       -4.21430        9.71120
H         -2.11520       -2.46400       10.55000
H         -1.77010       -1.11540        9.44920
H         -0.30870       -1.67860       12.07600
H          0.04620       -0.34150       10.97740
H         -1.50830       -0.40830       11.81590
H          9.35660       -4.75170        1.36550
H          9.76220       -3.60140        2.65320
H         10.11100       -5.49550        4.23790
H          9.72290       -6.64360        2.95190
H         11.16930       -5.63740        2.82900
H          3.81000       -3.00680        2.69480
H          2.54330       -2.68390        0.79540
H          5.55920       -4.89160       -3.14020
H          4.55340       -5.73990       -1.95070
H          4.52300       -6.92360       -4.13320
H          3.92470       -5.46550       -4.93150
H          2.91350       -6.30310       -3.74910
H         -5.83450        1.93350        3.27590
H         -5.27380        0.37250        3.90540
H         -7.58670        0.18030        3.02680
H         -7.04740        0.74810        1.44330
H         -6.47610       -0.80340        2.06630
H         -2.89730        0.90070       -2.11020
H         -0.31720       -0.71120       -6.14250
H          0.50090       -2.40560       -7.50340
H          1.66790       -2.09610       -8.81420
H          1.62190       -1.02180       -7.39240
H         -3.30540        1.06540      -11.07000
H         -2.13330        2.40790      -10.97030
H         -1.89090        1.09600      -12.15290
H         -3.27450        2.06910       -8.98610
H         -5.36830        3.18680       -3.94460
H         -6.70170        2.86120       -2.08880
H         -6.82160        4.07260       -0.78780
H         -5.33590        3.96370       -1.76450
H         -9.16800        7.67680       -5.42340
H         -7.70270        8.59630       -4.98990
H         -9.06240        8.49030       -3.84230
H         -7.30160        6.90900       -6.58920
H         -5.98360        8.03610      -11.91660
H         -8.62550        5.45140       -7.83760
H        -10.82500        4.62280       -7.74430
H        -12.17450        5.61100       -7.12880
H        -10.51640        5.91280       -6.55210
H        -10.91230        8.68580      -12.39260
H        -10.54300       10.03880      -11.28690
H        -12.21760        9.45240      -11.45270
H         -8.67370        8.64810      -11.66020
