
  xtb     03042202423D
 energy: -192.310620871270 gnorm: 0.000247607467 xtb: 6.4.1 (unknown)
 96103  0     0  0            999 V2000
    4.8980    0.5719    2.2879 C   0  0  0  0  0  0  0  0  0  0  0  0
    4.9610    2.2466    1.9530 S   0  0  0  0  0  0  0  0  0  0  0  0
    5.2127    1.9694    0.2603 C   0  0  0  0  0  0  0  0  0  0  0  0
    5.2956    0.6121   -0.0087 C   0  0  0  0  0  0  0  0  0  0  0  0
    5.0845   -0.1917    1.1599 C   0  0  0  0  0  0  0  0  0  0  0  0
    5.0490   -1.6061    1.0458 C   0  0  0  0  0  0  0  0  0  0  0  0
    5.2199   -2.1905   -0.1741 C   0  0  0  0  0  0  0  0  0  0  0  0
    5.1733   -3.5166   -0.4325 O   0  0  0  0  0  0  0  0  0  0  0  0
    4.8960   -4.3965    0.6288 C   0  0  0  0  0  0  0  0  0  0  0  0
    5.4991   -1.3798   -1.3414 C   0  0  0  0  0  0  0  0  0  0  0  0
    5.6837   -2.0967   -2.4732 O   0  0  0  0  0  0  0  0  0  0  0  0
    5.9601   -1.4063   -3.6671 C   0  0  0  0  0  0  0  0  0  0  0  0
    5.5563   -0.0204   -1.2493 C   0  0  0  0  0  0  0  0  0  0  0  0
    5.2659    3.0872   -0.6503 C   0  0  0  0  0  0  0  0  0  0  0  0
    5.8988    4.2866   -0.4171 C   0  0  0  0  0  0  0  0  0  0  0  0
    5.8035    5.1088   -1.4592 O   0  0  0  0  0  0  0  0  0  0  0  0
    5.0995    4.4592   -2.4063 C   0  0  0  0  0  0  0  0  0  0  0  0
    4.8632    5.1262   -3.6227 N   0  0  0  0  0  4  0  0  0  0  0  0
    4.2495    4.5134   -4.4817 O   0  0  0  0  0  1  0  0  0  0  0  0
    5.2877    6.2565   -3.7400 O   0  0  0  0  0  0  0  0  0  0  0  0
    4.7074    3.1988   -1.9692 C   0  0  0  0  0  0  0  0  0  0  0  0
    3.9089    2.2484   -2.6976 C   0  0  0  0  0  0  0  0  0  0  0  0
    3.1321    1.3357   -2.0930 C   0  0  0  0  0  0  0  0  0  0  0  0
    2.4225    0.2754   -2.7540 C   0  0  0  0  0  0  0  0  0  0  0  0
    2.2792    0.0159   -4.0985 C   0  0  0  0  0  0  0  0  0  0  0  0
    1.5908   -1.1005   -4.3075 O   0  0  0  0  0  0  0  0  0  0  0  0
    1.2610   -1.6010   -3.0952 C   0  0  0  0  0  0  0  0  0  0  0  0
    0.6042   -2.8398   -3.0716 N   0  0  0  0  0  4  0  0  0  0  0  0
    0.3358   -3.3119   -1.9764 O   0  0  0  0  0  1  0  0  0  0  0  0
    0.3382   -3.3615   -4.1380 O   0  0  0  0  0  0  0  0  0  0  0  0
    1.7332   -0.7859   -2.0750 C   0  0  0  0  0  0  0  0  0  0  0  0
    1.6795   -0.9486   -0.6459 C   0  0  0  0  0  0  0  0  0  0  0  0
    0.6208   -1.2841    0.1203 C   0  0  0  0  0  0  0  0  0  0  0  0
   -0.7434   -1.4214   -0.2463 C   0  0  0  0  0  0  0  0  0  0  0  0
   -1.3888   -0.8590   -1.7544 S   0  0  0  0  0  0  0  0  0  0  0  0
   -3.0034   -1.2949   -1.3326 C   0  0  0  0  0  0  0  0  0  0  0  0
   -3.0513   -1.8801   -0.0733 C   0  0  0  0  0  0  0  0  0  0  0  0
   -1.7719   -1.9259    0.5592 C   0  0  0  0  0  0  0  0  0  0  0  0
   -1.6685   -2.4418    1.8678 C   0  0  0  0  0  0  0  0  0  0  0  0
   -2.7883   -2.8694    2.5276 C   0  0  0  0  0  0  0  0  0  0  0  0
   -2.8246   -3.3469    3.7889 O   0  0  0  0  0  0  0  0  0  0  0  0
   -1.6220   -3.4390    4.5139 C   0  0  0  0  0  0  0  0  0  0  0  0
   -4.0744   -2.8523    1.8720 C   0  0  0  0  0  0  0  0  0  0  0  0
   -5.0901   -3.3140    2.6346 O   0  0  0  0  0  0  0  0  0  0  0  0
   -6.3851   -3.3336    2.0844 C   0  0  0  0  0  0  0  0  0  0  0  0
   -4.1889   -2.3953    0.5915 C   0  0  0  0  0  0  0  0  0  0  0  0
   -4.0683   -1.0471   -2.2747 C   0  0  0  0  0  0  0  0  0  0  0  0
   -3.9948   -1.2830   -3.6298 C   0  0  0  0  0  0  0  0  0  0  0  0
   -5.1403   -1.0046   -4.2412 O   0  0  0  0  0  0  0  0  0  0  0  0
   -5.9968   -0.5730   -3.2962 C   0  0  0  0  0  0  0  0  0  0  0  0
   -7.2978   -0.2152   -3.7031 N   0  0  0  0  0  4  0  0  0  0  0  0
   -7.5654   -0.3053   -4.8815 O   0  0  0  0  0  1  0  0  0  0  0  0
   -8.0686    0.1565   -2.8331 O   0  0  0  0  0  0  0  0  0  0  0  0
   -5.3960   -0.5528   -2.0419 C   0  0  0  0  0  0  0  0  0  0  0  0
   -5.9988   -0.1073   -0.8142 C   0  0  0  0  0  0  0  0  0  0  0  0
   -5.2842    0.3272    0.2352 C   0  0  0  0  0  0  0  0  0  0  0  0
   -5.8350    0.6780    1.5166 C   0  0  0  0  0  0  0  0  0  0  0  0
   -7.1526    0.8866    1.8598 C   0  0  0  0  0  0  0  0  0  0  0  0
   -7.2778    1.1290    3.1566 O   0  0  0  0  0  0  0  0  0  0  0  0
   -6.0438    1.0657    3.7055 C   0  0  0  0  0  0  0  0  0  0  0  0
   -5.9874    1.3734    5.0866 N   0  0  0  0  0  4  0  0  0  0  0  0
   -4.9076    1.3243    5.6428 O   0  0  0  0  0  1  0  0  0  0  0  0
   -7.0321    1.6779    5.6208 O   0  0  0  0  0  0  0  0  0  0  0  0
   -5.0871    0.7937    2.7379 C   0  0  0  0  0  0  0  0  0  0  0  0
   -3.6508    0.6385    2.8222 C   0  0  0  0  0  0  0  0  0  0  0  0
   -2.9657    0.1626    3.8546 C   0  0  0  0  0  0  0  0  0  0  0  0
    4.7245    0.2382    3.2912 H   0  0  0  0  0  0  0  0  0  0  0  0
    4.8765   -2.1871    1.9366 H   0  0  0  0  0  0  0  0  0  0  0  0
    3.9148   -4.1922    1.0695 H   0  0  0  0  0  0  0  0  0  0  0  0
    4.8942   -5.3930    0.1912 H   0  0  0  0  0  0  0  0  0  0  0  0
    5.6648   -4.3420    1.4064 H   0  0  0  0  0  0  0  0  0  0  0  0
    6.0390   -2.1716   -4.4370 H   0  0  0  0  0  0  0  0  0  0  0  0
    6.9047   -0.8570   -3.6030 H   0  0  0  0  0  0  0  0  0  0  0  0
    5.1536   -0.7109   -3.9233 H   0  0  0  0  0  0  0  0  0  0  0  0
    5.8064    0.5889   -2.0999 H   0  0  0  0  0  0  0  0  0  0  0  0
    6.4390    4.6315    0.4432 H   0  0  0  0  0  0  0  0  0  0  0  0
    3.9572    2.3165   -3.7745 H   0  0  0  0  0  0  0  0  0  0  0  0
    3.0296    1.3516   -1.0185 H   0  0  0  0  0  0  0  0  0  0  0  0
    2.6070    0.5599   -4.9632 H   0  0  0  0  0  0  0  0  0  0  0  0
    2.6204   -0.7553   -0.1477 H   0  0  0  0  0  0  0  0  0  0  0  0
    0.8119   -1.4293    1.1753 H   0  0  0  0  0  0  0  0  0  0  0  0
   -0.7002   -2.4919    2.3357 H   0  0  0  0  0  0  0  0  0  0  0  0
   -0.9100   -4.1109    4.0244 H   0  0  0  0  0  0  0  0  0  0  0  0
   -1.8959   -3.8478    5.4846 H   0  0  0  0  0  0  0  0  0  0  0  0
   -1.1616   -2.4557    4.6522 H   0  0  0  0  0  0  0  0  0  0  0  0
   -7.0338   -3.7087    2.8738 H   0  0  0  0  0  0  0  0  0  0  0  0
   -6.4433   -4.0013    1.2194 H   0  0  0  0  0  0  0  0  0  0  0  0
   -6.7098   -2.3300    1.7892 H   0  0  0  0  0  0  0  0  0  0  0  0
   -5.1281   -2.4218    0.0678 H   0  0  0  0  0  0  0  0  0  0  0  0
   -3.1867   -1.6617   -4.2259 H   0  0  0  0  0  0  0  0  0  0  0  0
   -7.0782   -0.1286   -0.7847 H   0  0  0  0  0  0  0  0  0  0  0  0
   -4.2110    0.3956    0.1519 H   0  0  0  0  0  0  0  0  0  0  0  0
   -8.0445    0.9046    1.2639 H   0  0  0  0  0  0  0  0  0  0  0  0
   -3.1245    0.9084    1.9157 H   0  0  0  0  0  0  0  0  0  0  0  0
   -3.4323   -0.1421    4.7730 H   0  0  0  0  0  0  0  0  0  0  0  0
   -1.8938    0.0790    3.7997 H   0  0  0  0  0  0  0  0  0  0  0  0
  1  2  1  0  0  0  0
  2  3  1  0  0  0  0
  3  4  2  0  0  0  0
  4  5  1  0  0  0  0
  5  6  1  0  0  0  0
  6  7  2  0  0  0  0
  7  8  1  0  0  0  0
  8  9  1  0  0  0  0
  7 10  1  0  0  0  0
 10 11  1  0  0  0  0
 11 12  1  0  0  0  0
 10 13  2  0  0  0  0
  3 14  1  0  0  0  0
 14 15  2  0  0  0  0
 15 16  1  0  0  0  0
 16 17  1  0  0  0  0
 17 18  1  0  0  0  0
 18 19  1  0  0  0  0
 18 20  2  0  0  0  0
 17 21  2  0  0  0  0
 21 22  1  0  0  0  0
 22 23  2  0  0  0  0
 23 24  1  0  0  0  0
 24 25  2  0  0  0  0
 25 26  1  0  0  0  0
 26 27  1  0  0  0  0
 27 28  1  0  0  0  0
 28 29  1  0  0  0  0
 28 30  2  0  0  0  0
 27 31  2  0  0  0  0
 31 32  1  0  0  0  0
 32 33  2  0  0  0  0
 33 34  1  0  0  0  0
 34 35  1  0  0  0  0
 35 36  1  0  0  0  0
 36 37  2  0  0  0  0
 37 38  1  0  0  0  0
 38 39  1  0  0  0  0
 39 40  2  0  0  0  0
 40 41  1  0  0  0  0
 41 42  1  0  0  0  0
 40 43  1  0  0  0  0
 43 44  1  0  0  0  0
 44 45  1  0  0  0  0
 43 46  2  0  0  0  0
 36 47  1  0  0  0  0
 47 48  2  0  0  0  0
 48 49  1  0  0  0  0
 49 50  1  0  0  0  0
 50 51  1  0  0  0  0
 51 52  1  0  0  0  0
 51 53  2  0  0  0  0
 50 54  2  0  0  0  0
 54 55  1  0  0  0  0
 55 56  2  0  0  0  0
 56 57  1  0  0  0  0
 57 58  2  0  0  0  0
 58 59  1  0  0  0  0
 59 60  1  0  0  0  0
 60 61  1  0  0  0  0
 61 62  1  0  0  0  0
 61 63  2  0  0  0  0
 60 64  2  0  0  0  0
 64 65  1  0  0  0  0
 65 66  2  0  0  0  0
  5  1  2  0  0  0  0
 21 14  1  0  0  0  0
 31 24  1  0  0  0  0
 38 34  2  0  0  0  0
 54 47  1  0  0  0  0
 64 57  1  0  0  0  0
 13  4  1  0  0  0  0
 46 37  1  0  0  0  0
  1 67  1  0  0  0  0
  6 68  1  0  0  0  0
  9 69  1  0  0  0  0
  9 70  1  0  0  0  0
  9 71  1  0  0  0  0
 12 72  1  0  0  0  0
 12 73  1  0  0  0  0
 12 74  1  0  0  0  0
 13 75  1  0  0  0  0
 15 76  1  0  0  0  0
 22 77  1  0  0  0  0
 23 78  1  0  0  0  0
 25 79  1  0  0  0  0
 32 80  1  0  0  0  0
 33 81  1  0  0  0  0
 39 82  1  0  0  0  0
 42 83  1  0  0  0  0
 42 84  1  0  0  0  0
 42 85  1  0  0  0  0
 45 86  1  0  0  0  0
 45 87  1  0  0  0  0
 45 88  1  0  0  0  0
 46 89  1  0  0  0  0
 48 90  1  0  0  0  0
 55 91  1  0  0  0  0
 56 92  1  0  0  0  0
 58 93  1  0  0  0  0
 65 94  1  0  0  0  0
 66 95  1  0  0  0  0
 66 96  1  0  0  0  0
M  CHG  1  18   1
M  CHG  1  19  -1
M  CHG  1  28   1
M  CHG  1  29  -1
M  CHG  1  51   1
M  CHG  1  52  -1
M  CHG  1  61   1
M  CHG  1  62  -1
M  END
