
  xtb     03032203573D
 energy: -412.713557054307 gnorm: 0.000288470074 xtb: 6.4.1 (unknown)
212235  0     0  0            999 V2000
   -7.0933    3.9397   -7.7637 C   0  0  0  0  0  0  0  0  0  0  0  0
   -6.7875    5.0707   -7.0968 C   0  0  0  0  0  0  0  0  0  0  0  0
   -5.5262    4.9999   -6.4358 C   0  0  0  0  0  0  0  0  0  0  0  0
   -4.9159    5.9643   -5.6177 C   0  0  0  0  0  0  0  0  0  0  0  0
   -5.5076    7.2745   -5.4002 C   0  0  0  0  0  0  0  0  0  0  0  0
   -5.7559    7.8973   -3.7962 S   0  0  0  0  0  0  0  0  0  0  0  0
   -6.3987    9.3903   -4.3907 C   0  0  0  0  0  0  0  0  0  0  0  0
   -6.8826   10.4425   -3.4551 C   0  0  0  0  0  0  0  0  0  0  0  0
   -8.2619   10.0894   -2.8945 C   0  0  0  0  0  0  0  0  0  0  0  0
   -6.4189    9.3881   -5.7532 C   0  0  0  0  0  0  0  0  0  0  0  0
   -6.9852   10.6977   -6.7074 Cl  0  0  0  0  0  0  0  0  0  0  0  0
   -5.9098    8.1926   -6.3294 C   0  0  0  0  0  0  0  0  0  0  0  0
   -5.7471    7.9819   -8.0252 Cl  0  0  0  0  0  0  0  0  0  0  0  0
   -3.7114    5.6141   -5.0226 C   0  0  0  0  0  0  0  0  0  0  0  0
   -3.0791    4.3658   -5.2362 C   0  0  0  0  0  0  0  0  0  0  0  0
   -3.7039    3.3886   -6.0293 C   0  0  0  0  0  0  0  0  0  0  0  0
   -3.1320    2.0593   -6.1600 C   0  0  0  0  0  0  0  0  0  0  0  0
   -2.8920    1.3051   -7.7075 S   0  0  0  0  0  0  0  0  0  0  0  0
   -2.2240   -0.1228   -6.9964 C   0  0  0  0  0  0  0  0  0  0  0  0
   -1.8189   -1.2912   -7.8257 C   0  0  0  0  0  0  0  0  0  0  0  0
   -2.9884   -2.2632   -8.0038 C   0  0  0  0  0  0  0  0  0  0  0  0
   -2.2081   -0.0127   -5.6376 C   0  0  0  0  0  0  0  0  0  0  0  0
   -2.7212    1.2211   -5.1581 C   0  0  0  0  0  0  0  0  0  0  0  0
   -2.8780    1.5630   -3.4824 Cl  0  0  0  0  0  0  0  0  0  0  0  0
   -1.6042   -1.2333   -4.5889 Cl  0  0  0  0  0  0  0  0  0  0  0  0
   -4.9074    3.7418   -6.6287 C   0  0  0  0  0  0  0  0  0  0  0  0
   -5.8865    2.7072   -7.6303 S   0  0  0  0  0  0  0  0  0  0  0  0
   -1.8305    4.2882   -4.5713 C   0  0  0  0  0  0  0  0  0  0  0  0
   -1.5391    5.3947   -3.8314 C   0  0  0  0  0  0  0  0  0  0  0  0
   -2.7747    6.6291   -3.9624 S   0  0  0  0  0  0  0  0  0  0  0  0
   -0.4418    5.5674   -2.9387 C   0  0  0  0  0  0  0  0  0  0  0  0
   -0.2993    6.5200   -1.9740 C   0  0  0  0  0  0  0  0  0  0  0  0
    0.8097    6.2990   -1.1213 C   0  0  0  0  0  0  0  0  0  0  0  0
    1.1748    7.0117    0.0375 C   0  0  0  0  0  0  0  0  0  0  0  0
    0.4118    8.1604    0.4926 C   0  0  0  0  0  0  0  0  0  0  0  0
   -1.3197    8.0971    0.6496 S   0  0  0  0  0  0  0  0  0  0  0  0
   -1.4117    9.7328    1.2083 C   0  0  0  0  0  0  0  0  0  0  0  0
   -2.7280   10.3663    1.4959 C   0  0  0  0  0  0  0  0  0  0  0  0
   -3.5305   10.5795    0.2104 C   0  0  0  0  0  0  0  0  0  0  0  0
   -0.1658   10.2809    1.2676 C   0  0  0  0  0  0  0  0  0  0  0  0
    0.1525   11.8917    1.7665 Cl  0  0  0  0  0  0  0  0  0  0  0  0
    0.8704    9.3913    0.8728 C   0  0  0  0  0  0  0  0  0  0  0  0
    2.5139    9.8701    0.8046 Cl  0  0  0  0  0  0  0  0  0  0  0  0
    2.2473    6.5164    0.7681 C   0  0  0  0  0  0  0  0  0  0  0  0
    3.0127    5.3996    0.3495 C   0  0  0  0  0  0  0  0  0  0  0  0
    2.6761    4.7139   -0.8317 C   0  0  0  0  0  0  0  0  0  0  0  0
    3.4060    3.5283   -1.2410 C   0  0  0  0  0  0  0  0  0  0  0  0
    2.5723    2.0463   -1.6050 S   0  0  0  0  0  0  0  0  0  0  0  0
    4.0469    1.1976   -1.9054 C   0  0  0  0  0  0  0  0  0  0  0  0
    4.0635   -0.2399   -2.3015 C   0  0  0  0  0  0  0  0  0  0  0  0
    2.6886   -0.8875   -2.2148 C   0  0  0  0  0  0  0  0  0  0  0  0
    5.1159    2.0289   -1.7351 C   0  0  0  0  0  0  0  0  0  0  0  0
    4.7572    3.3476   -1.3557 C   0  0  0  0  0  0  0  0  0  0  0  0
    5.9160    4.5971   -1.1478 Cl  0  0  0  0  0  0  0  0  0  0  0  0
    6.7469    1.5353   -1.9526 Cl  0  0  0  0  0  0  0  0  0  0  0  0
    1.5514    5.1582   -1.5126 C   0  0  0  0  0  0  0  0  0  0  0  0
    0.8455    4.3813   -2.9003 S   0  0  0  0  0  0  0  0  0  0  0  0
    3.9339    4.9873    1.3391 C   0  0  0  0  0  0  0  0  0  0  0  0
    3.8498    5.7052    2.4982 C   0  0  0  0  0  0  0  0  0  0  0  0
    2.6958    7.0162    2.3776 S   0  0  0  0  0  0  0  0  0  0  0  0
    4.4100    5.2742    3.7389 C   0  0  0  0  0  0  0  0  0  0  0  0
    3.3550    5.0990    5.1022 S   0  0  0  0  0  0  0  0  0  0  0  0
    4.3983    3.9253    5.8575 C   0  0  0  0  0  0  0  0  0  0  0  0
    5.6217    3.8516    5.1732 C   0  0  0  0  0  0  0  0  0  0  0  0
    5.6028    4.5852    3.9461 C   0  0  0  0  0  0  0  0  0  0  0  0
    6.7051    4.5287    3.0657 C   0  0  0  0  0  0  0  0  0  0  0  0
    7.7959    3.7723    3.3892 C   0  0  0  0  0  0  0  0  0  0  0  0
    8.9007    3.6174    2.6256 O   0  0  0  0  0  0  0  0  0  0  0  0
    8.9267    4.2309    1.3587 C   0  0  0  0  0  0  0  0  0  0  0  0
    7.8370    3.0637    4.6452 C   0  0  0  0  0  0  0  0  0  0  0  0
    8.9868    2.3884    4.8593 O   0  0  0  0  0  0  0  0  0  0  0  0
    9.0977    1.5987    6.0189 C   0  0  0  0  0  0  0  0  0  0  0  0
    6.7758    3.1158    5.5093 C   0  0  0  0  0  0  0  0  0  0  0  0
    3.7696    2.9280    6.6517 C   0  0  0  0  0  0  0  0  0  0  0  0
    4.2239    1.6723    6.9656 C   0  0  0  0  0  0  0  0  0  0  0  0
    3.1887    0.7180    7.1090 C   0  0  0  0  0  0  0  0  0  0  0  0
    3.3175   -0.6826    7.1268 C   0  0  0  0  0  0  0  0  0  0  0  0
    4.6126   -1.3386    7.2502 C   0  0  0  0  0  0  0  0  0  0  0  0
    4.9230   -2.4323    8.5645 S   0  0  0  0  0  0  0  0  0  0  0  0
    6.5328   -2.7567    8.0186 C   0  0  0  0  0  0  0  0  0  0  0  0
    7.4061   -3.7315    8.7284 C   0  0  0  0  0  0  0  0  0  0  0  0
    7.0737   -5.1654    8.3089 C   0  0  0  0  0  0  0  0  0  0  0  0
    6.7928   -2.0611    6.8764 C   0  0  0  0  0  0  0  0  0  0  0  0
    8.2865   -2.1318    6.0307 Cl  0  0  0  0  0  0  0  0  0  0  0  0
    5.7071   -1.2552    6.4373 C   0  0  0  0  0  0  0  0  0  0  0  0
    5.7681   -0.3385    4.9801 Cl  0  0  0  0  0  0  0  0  0  0  0  0
    2.1666   -1.4190    6.8787 C   0  0  0  0  0  0  0  0  0  0  0  0
    0.8992   -0.8209    6.6966 C   0  0  0  0  0  0  0  0  0  0  0  0
    0.7362    0.5668    6.8865 C   0  0  0  0  0  0  0  0  0  0  0  0
   -0.5813    1.1654    6.8228 C   0  0  0  0  0  0  0  0  0  0  0  0
   -0.9104    2.6109    5.9142 S   0  0  0  0  0  0  0  0  0  0  0  0
   -2.5860    2.5941    6.3457 C   0  0  0  0  0  0  0  0  0  0  0  0
   -3.5034    3.6758    5.8939 C   0  0  0  0  0  0  0  0  0  0  0  0
   -3.3254    4.9333    6.7478 C   0  0  0  0  0  0  0  0  0  0  0  0
   -2.8574    1.5342    7.1590 C   0  0  0  0  0  0  0  0  0  0  0  0
   -1.7277    0.7167    7.4243 C   0  0  0  0  0  0  0  0  0  0  0  0
   -1.8037   -0.6464    8.4638 Cl  0  0  0  0  0  0  0  0  0  0  0  0
   -4.4098    1.1967    7.8092 Cl  0  0  0  0  0  0  0  0  0  0  0  0
    1.9011    1.3056    7.0154 C   0  0  0  0  0  0  0  0  0  0  0  0
    2.0183    3.0348    6.8576 S   0  0  0  0  0  0  0  0  0  0  0  0
   -0.0167   -1.7065    6.0807 C   0  0  0  0  0  0  0  0  0  0  0  0
    0.5065   -2.9351    5.8114 C   0  0  0  0  0  0  0  0  0  0  0  0
    2.1373   -3.1096    6.4408 S   0  0  0  0  0  0  0  0  0  0  0  0
   -0.0212   -3.8874    4.8833 C   0  0  0  0  0  0  0  0  0  0  0  0
    0.2290   -5.2159    4.7305 C   0  0  0  0  0  0  0  0  0  0  0  0
   -0.3191   -5.7606    3.5385 C   0  0  0  0  0  0  0  0  0  0  0  0
   -0.2620   -7.0859    3.0710 C   0  0  0  0  0  0  0  0  0  0  0  0
    0.2839   -8.1494    3.8958 C   0  0  0  0  0  0  0  0  0  0  0  0
    1.4835   -9.2510    3.2895 S   0  0  0  0  0  0  0  0  0  0  0  0
    1.5507  -10.1224    4.7828 C   0  0  0  0  0  0  0  0  0  0  0  0
    2.4190  -11.3221    4.9336 C   0  0  0  0  0  0  0  0  0  0  0  0
    1.7491  -12.5569    4.3263 C   0  0  0  0  0  0  0  0  0  0  0  0
    0.6798   -9.5868    5.6841 C   0  0  0  0  0  0  0  0  0  0  0  0
    0.4536  -10.1919    7.2743 Cl  0  0  0  0  0  0  0  0  0  0  0  0
   -0.0355   -8.4643    5.1881 C   0  0  0  0  0  0  0  0  0  0  0  0
   -1.2370   -7.6560    6.1102 Cl  0  0  0  0  0  0  0  0  0  0  0  0
   -0.7631   -7.3305    1.7989 C   0  0  0  0  0  0  0  0  0  0  0  0
   -1.3221   -6.3194    0.9805 C   0  0  0  0  0  0  0  0  0  0  0  0
   -1.3910   -4.9974    1.4501 C   0  0  0  0  0  0  0  0  0  0  0  0
   -1.8266   -3.9028    0.5943 C   0  0  0  0  0  0  0  0  0  0  0  0
   -3.3843   -3.8625   -0.1763 S   0  0  0  0  0  0  0  0  0  0  0  0
   -3.0489   -2.3552   -0.9618 C   0  0  0  0  0  0  0  0  0  0  0  0
   -4.0726   -1.6767   -1.8029 C   0  0  0  0  0  0  0  0  0  0  0  0
   -4.9122   -0.7069   -0.9684 C   0  0  0  0  0  0  0  0  0  0  0  0
   -1.8008   -1.9184   -0.6323 C   0  0  0  0  0  0  0  0  0  0  0  0
   -1.1049   -2.7958    0.2419 C   0  0  0  0  0  0  0  0  0  0  0  0
    0.5140   -2.5082    0.7252 Cl  0  0  0  0  0  0  0  0  0  0  0  0
   -1.1060   -0.4603   -1.2118 Cl  0  0  0  0  0  0  0  0  0  0  0  0
   -0.9240   -4.7627    2.7355 C   0  0  0  0  0  0  0  0  0  0  0  0
   -0.9592   -3.2296    3.5508 S   0  0  0  0  0  0  0  0  0  0  0  0
   -1.7329   -6.8145   -0.2788 C   0  0  0  0  0  0  0  0  0  0  0  0
   -1.5112   -8.1516   -0.4464 C   0  0  0  0  0  0  0  0  0  0  0  0
   -0.7875   -8.8702    0.9868 S   0  0  0  0  0  0  0  0  0  0  0  0
   -1.7955   -8.9679   -1.5777 C   0  0  0  0  0  0  0  0  0  0  0  0
   -1.9582  -10.6847   -1.3781 S   0  0  0  0  0  0  0  0  0  0  0  0
   -2.3246  -10.9171   -3.0267 C   0  0  0  0  0  0  0  0  0  0  0  0
   -2.3151   -9.7367   -3.7337 C   0  0  0  0  0  0  0  0  0  0  0  0
   -2.0002   -8.6073   -2.9101 C   0  0  0  0  0  0  0  0  0  0  0  0
   -1.8922   -7.3333   -3.5126 C   0  0  0  0  0  0  0  0  0  0  0  0
   -2.1391   -7.1814   -4.8472 C   0  0  0  0  0  0  0  0  0  0  0  0
   -2.0711   -6.0104   -5.5268 O   0  0  0  0  0  0  0  0  0  0  0  0
   -1.7336   -4.8428   -4.8200 C   0  0  0  0  0  0  0  0  0  0  0  0
   -2.5018   -8.3153   -5.6651 C   0  0  0  0  0  0  0  0  0  0  0  0
   -2.7306   -8.0077   -6.9666 O   0  0  0  0  0  0  0  0  0  0  0  0
   -3.0742   -9.0511   -7.8435 C   0  0  0  0  0  0  0  0  0  0  0  0
   -2.5715   -9.5607   -5.1168 C   0  0  0  0  0  0  0  0  0  0  0  0
   -7.9733    3.7330   -8.3407 H   0  0  0  0  0  0  0  0  0  0  0  0
   -7.4304    5.9301   -7.0555 H   0  0  0  0  0  0  0  0  0  0  0  0
   -6.1733   10.5472   -2.6317 H   0  0  0  0  0  0  0  0  0  0  0  0
   -6.9358   11.3899   -3.9940 H   0  0  0  0  0  0  0  0  0  0  0  0
   -8.5984   10.8665   -2.2136 H   0  0  0  0  0  0  0  0  0  0  0  0
   -8.2186    9.1460   -2.3556 H   0  0  0  0  0  0  0  0  0  0  0  0
   -8.9847    9.9967   -3.7011 H   0  0  0  0  0  0  0  0  0  0  0  0
   -1.4824   -0.9434   -8.8032 H   0  0  0  0  0  0  0  0  0  0  0  0
   -0.9898   -1.8025   -7.3320 H   0  0  0  0  0  0  0  0  0  0  0  0
   -3.3483   -2.6044   -7.0364 H   0  0  0  0  0  0  0  0  0  0  0  0
   -3.8077   -1.7741   -8.5249 H   0  0  0  0  0  0  0  0  0  0  0  0
   -2.6718   -3.1276   -8.5809 H   0  0  0  0  0  0  0  0  0  0  0  0
   -1.1689    3.4432   -4.6289 H   0  0  0  0  0  0  0  0  0  0  0  0
   -0.9963    7.3303   -1.8624 H   0  0  0  0  0  0  0  0  0  0  0  0
   -3.2988    9.7275    2.1736 H   0  0  0  0  0  0  0  0  0  0  0  0
   -2.5515   11.3242    1.9874 H   0  0  0  0  0  0  0  0  0  0  0  0
   -4.4853   11.0447    0.4406 H   0  0  0  0  0  0  0  0  0  0  0  0
   -2.9841   11.2250   -0.4729 H   0  0  0  0  0  0  0  0  0  0  0  0
   -3.7139    9.6271   -0.2821 H   0  0  0  0  0  0  0  0  0  0  0  0
    4.4460   -0.3165   -3.3247 H   0  0  0  0  0  0  0  0  0  0  0  0
    4.7699   -0.7699   -1.6555 H   0  0  0  0  0  0  0  0  0  0  0  0
    2.7445   -1.9312   -2.5134 H   0  0  0  0  0  0  0  0  0  0  0  0
    1.9841   -0.3773   -2.8682 H   0  0  0  0  0  0  0  0  0  0  0  0
    2.3072   -0.8398   -1.1978 H   0  0  0  0  0  0  0  0  0  0  0  0
    4.5470    4.1099    1.2525 H   0  0  0  0  0  0  0  0  0  0  0  0
    6.6599    5.0969    2.1516 H   0  0  0  0  0  0  0  0  0  0  0  0
    9.8773    3.9444    0.9126 H   0  0  0  0  0  0  0  0  0  0  0  0
    8.8775    5.3215    1.4388 H   0  0  0  0  0  0  0  0  0  0  0  0
    8.1069    3.8777    0.7259 H   0  0  0  0  0  0  0  0  0  0  0  0
    9.0616    2.2088    6.9274 H   0  0  0  0  0  0  0  0  0  0  0  0
   10.0687    1.1114    5.9510 H   0  0  0  0  0  0  0  0  0  0  0  0
    8.3128    0.8378    6.0584 H   0  0  0  0  0  0  0  0  0  0  0  0
    6.8239    2.6248    6.4651 H   0  0  0  0  0  0  0  0  0  0  0  0
    5.2580    1.3944    6.9627 H   0  0  0  0  0  0  0  0  0  0  0  0
    7.2657   -3.6275    9.8057 H   0  0  0  0  0  0  0  0  0  0  0  0
    8.4473   -3.5097    8.4875 H   0  0  0  0  0  0  0  0  0  0  0  0
    7.7173   -5.8665    8.8332 H   0  0  0  0  0  0  0  0  0  0  0  0
    6.0377   -5.3961    8.5453 H   0  0  0  0  0  0  0  0  0  0  0  0
    7.2210   -5.2890    7.2390 H   0  0  0  0  0  0  0  0  0  0  0  0
   -3.2944    3.9158    4.8497 H   0  0  0  0  0  0  0  0  0  0  0  0
   -4.5316    3.3186    5.9730 H   0  0  0  0  0  0  0  0  0  0  0  0
   -3.5418    4.7147    7.7905 H   0  0  0  0  0  0  0  0  0  0  0  0
   -4.0004    5.7142    6.4080 H   0  0  0  0  0  0  0  0  0  0  0  0
   -2.3031    5.2963    6.6731 H   0  0  0  0  0  0  0  0  0  0  0  0
   -1.0011   -1.4152    5.7605 H   0  0  0  0  0  0  0  0  0  0  0  0
    0.8110   -5.7821    5.4349 H   0  0  0  0  0  0  0  0  0  0  0  0
    3.3731  -11.1447    4.4340 H   0  0  0  0  0  0  0  0  0  0  0  0
    2.6049  -11.4891    5.9960 H   0  0  0  0  0  0  0  0  0  0  0  0
    2.3945  -13.4242    4.4363 H   0  0  0  0  0  0  0  0  0  0  0  0
    0.8056  -12.7583    4.8271 H   0  0  0  0  0  0  0  0  0  0  0  0
    1.5535  -12.3966    3.2686 H   0  0  0  0  0  0  0  0  0  0  0  0
   -4.7230   -2.4252   -2.2585 H   0  0  0  0  0  0  0  0  0  0  0  0
   -3.5655   -1.1228   -2.5944 H   0  0  0  0  0  0  0  0  0  0  0  0
   -5.4288   -1.2389   -0.1729 H   0  0  0  0  0  0  0  0  0  0  0  0
   -4.2751    0.0527   -0.5224 H   0  0  0  0  0  0  0  0  0  0  0  0
   -5.6492   -0.2162   -1.5985 H   0  0  0  0  0  0  0  0  0  0  0  0
   -2.2279   -6.1999   -1.0051 H   0  0  0  0  0  0  0  0  0  0  0  0
   -2.5313  -11.9028   -3.3927 H   0  0  0  0  0  0  0  0  0  0  0  0
   -1.5852   -6.4946   -2.9142 H   0  0  0  0  0  0  0  0  0  0  0  0
   -0.7355   -4.9126   -4.3754 H   0  0  0  0  0  0  0  0  0  0  0  0
   -2.4627   -4.6210   -4.0333 H   0  0  0  0  0  0  0  0  0  0  0  0
   -1.7437   -4.0411   -5.5558 H   0  0  0  0  0  0  0  0  0  0  0  0
   -2.2753   -9.7969   -7.9125 H   0  0  0  0  0  0  0  0  0  0  0  0
   -3.2170   -8.5839   -8.8163 H   0  0  0  0  0  0  0  0  0  0  0  0
   -4.0029   -9.5437   -7.5371 H   0  0  0  0  0  0  0  0  0  0  0  0
   -2.8158  -10.4308   -5.7037 H   0  0  0  0  0  0  0  0  0  0  0  0
  1  2  2  0  0  0  0
  2  3  1  0  0  0  0
  3  4  2  0  0  0  0
  4  5  1  0  0  0  0
  5  6  1  0  0  0  0
  6  7  1  0  0  0  0
  7  8  1  0  0  0  0
  8  9  1  0  0  0  0
  7 10  2  0  0  0  0
 10 11  1  0  0  0  0
 10 12  1  0  0  0  0
 12 13  1  0  0  0  0
  4 14  1  0  0  0  0
 14 15  2  0  0  0  0
 15 16  1  0  0  0  0
 16 17  1  0  0  0  0
 17 18  1  0  0  0  0
 18 19  1  0  0  0  0
 19 20  1  0  0  0  0
 20 21  1  0  0  0  0
 19 22  2  0  0  0  0
 22 23  1  0  0  0  0
 23 24  1  0  0  0  0
 22 25  1  0  0  0  0
 16 26  2  0  0  0  0
 26 27  1  0  0  0  0
 15 28  1  0  0  0  0
 28 29  2  0  0  0  0
 29 30  1  0  0  0  0
 29 31  1  0  0  0  0
 31 32  2  0  0  0  0
 32 33  1  0  0  0  0
 33 34  2  0  0  0  0
 34 35  1  0  0  0  0
 35 36  1  0  0  0  0
 36 37  1  0  0  0  0
 37 38  1  0  0  0  0
 38 39  1  0  0  0  0
 37 40  2  0  0  0  0
 40 41  1  0  0  0  0
 40 42  1  0  0  0  0
 42 43  1  0  0  0  0
 34 44  1  0  0  0  0
 44 45  2  0  0  0  0
 45 46  1  0  0  0  0
 46 47  1  0  0  0  0
 47 48  1  0  0  0  0
 48 49  1  0  0  0  0
 49 50  1  0  0  0  0
 50 51  1  0  0  0  0
 49 52  2  0  0  0  0
 52 53  1  0  0  0  0
 53 54  1  0  0  0  0
 52 55  1  0  0  0  0
 46 56  2  0  0  0  0
 56 57  1  0  0  0  0
 45 58  1  0  0  0  0
 58 59  2  0  0  0  0
 59 60  1  0  0  0  0
 59 61  1  0  0  0  0
 61 62  1  0  0  0  0
 62 63  1  0  0  0  0
 63 64  2  0  0  0  0
 64 65  1  0  0  0  0
 65 66  1  0  0  0  0
 66 67  2  0  0  0  0
 67 68  1  0  0  0  0
 68 69  1  0  0  0  0
 67 70  1  0  0  0  0
 70 71  1  0  0  0  0
 71 72  1  0  0  0  0
 70 73  2  0  0  0  0
 63 74  1  0  0  0  0
 74 75  2  0  0  0  0
 75 76  1  0  0  0  0
 76 77  2  0  0  0  0
 77 78  1  0  0  0  0
 78 79  1  0  0  0  0
 79 80  1  0  0  0  0
 80 81  1  0  0  0  0
 81 82  1  0  0  0  0
 80 83  2  0  0  0  0
 83 84  1  0  0  0  0
 83 85  1  0  0  0  0
 85 86  1  0  0  0  0
 77 87  1  0  0  0  0
 87 88  2  0  0  0  0
 88 89  1  0  0  0  0
 89 90  1  0  0  0  0
 90 91  1  0  0  0  0
 91 92  1  0  0  0  0
 92 93  1  0  0  0  0
 93 94  1  0  0  0  0
 92 95  2  0  0  0  0
 95 96  1  0  0  0  0
 96 97  1  0  0  0  0
 95 98  1  0  0  0  0
 89 99  2  0  0  0  0
 99100  1  0  0  0  0
 88101  1  0  0  0  0
101102  2  0  0  0  0
102103  1  0  0  0  0
102104  1  0  0  0  0
104105  2  0  0  0  0
105106  1  0  0  0  0
106107  2  0  0  0  0
107108  1  0  0  0  0
108109  1  0  0  0  0
109110  1  0  0  0  0
110111  1  0  0  0  0
111112  1  0  0  0  0
110113  2  0  0  0  0
113114  1  0  0  0  0
113115  1  0  0  0  0
115116  1  0  0  0  0
107117  1  0  0  0  0
117118  2  0  0  0  0
118119  1  0  0  0  0
119120  1  0  0  0  0
120121  1  0  0  0  0
121122  1  0  0  0  0
122123  1  0  0  0  0
123124  1  0  0  0  0
122125  2  0  0  0  0
125126  1  0  0  0  0
126127  1  0  0  0  0
125128  1  0  0  0  0
119129  2  0  0  0  0
129130  1  0  0  0  0
118131  1  0  0  0  0
131132  2  0  0  0  0
132133  1  0  0  0  0
132134  1  0  0  0  0
134135  1  0  0  0  0
135136  1  0  0  0  0
136137  2  0  0  0  0
137138  1  0  0  0  0
138139  1  0  0  0  0
139140  2  0  0  0  0
140141  1  0  0  0  0
141142  1  0  0  0  0
140143  1  0  0  0  0
143144  1  0  0  0  0
144145  1  0  0  0  0
143146  2  0  0  0  0
 27  1  1  0  0  0  0
 57 31  1  0  0  0  0
 65 61  2  0  0  0  0
100 74  1  0  0  0  0
130104  1  0  0  0  0
138134  2  0  0  0  0
 26  3  1  0  0  0  0
 56 33  1  0  0  0  0
 73 64  1  0  0  0  0
 99 76  1  0  0  0  0
129106  1  0  0  0  0
146137  1  0  0  0  0
 12  5  2  0  0  0  0
 30 14  1  0  0  0  0
 42 35  2  0  0  0  0
 60 44  1  0  0  0  0
 85 78  2  0  0  0  0
103 87  1  0  0  0  0
115108  2  0  0  0  0
133117  1  0  0  0  0
 23 17  2  0  0  0  0
 53 47  2  0  0  0  0
 96 90  2  0  0  0  0
126120  2  0  0  0  0
  1147  1  0  0  0  0
  2148  1  0  0  0  0
  8149  1  0  0  0  0
  8150  1  0  0  0  0
  9151  1  0  0  0  0
  9152  1  0  0  0  0
  9153  1  0  0  0  0
 20154  1  0  0  0  0
 20155  1  0  0  0  0
 21156  1  0  0  0  0
 21157  1  0  0  0  0
 21158  1  0  0  0  0
 28159  1  0  0  0  0
 32160  1  0  0  0  0
 38161  1  0  0  0  0
 38162  1  0  0  0  0
 39163  1  0  0  0  0
 39164  1  0  0  0  0
 39165  1  0  0  0  0
 50166  1  0  0  0  0
 50167  1  0  0  0  0
 51168  1  0  0  0  0
 51169  1  0  0  0  0
 51170  1  0  0  0  0
 58171  1  0  0  0  0
 66172  1  0  0  0  0
 69173  1  0  0  0  0
 69174  1  0  0  0  0
 69175  1  0  0  0  0
 72176  1  0  0  0  0
 72177  1  0  0  0  0
 72178  1  0  0  0  0
 73179  1  0  0  0  0
 75180  1  0  0  0  0
 81181  1  0  0  0  0
 81182  1  0  0  0  0
 82183  1  0  0  0  0
 82184  1  0  0  0  0
 82185  1  0  0  0  0
 93186  1  0  0  0  0
 93187  1  0  0  0  0
 94188  1  0  0  0  0
 94189  1  0  0  0  0
 94190  1  0  0  0  0
101191  1  0  0  0  0
105192  1  0  0  0  0
111193  1  0  0  0  0
111194  1  0  0  0  0
112195  1  0  0  0  0
112196  1  0  0  0  0
112197  1  0  0  0  0
123198  1  0  0  0  0
123199  1  0  0  0  0
124200  1  0  0  0  0
124201  1  0  0  0  0
124202  1  0  0  0  0
131203  1  0  0  0  0
136204  1  0  0  0  0
139205  1  0  0  0  0
142206  1  0  0  0  0
142207  1  0  0  0  0
142208  1  0  0  0  0
145209  1  0  0  0  0
145210  1  0  0  0  0
145211  1  0  0  0  0
146212  1  0  0  0  0
M  END
