
  xtb     03032205143D
 energy: -365.138432419410 gnorm: 0.000540824275 xtb: 6.4.1 (unknown)
191211  0     0  0            999 V2000
   -4.4032   -5.2751  -14.0075 C   0  0  0  0  0  0  0  0  0  0  0  0
   -2.7128   -5.1415  -13.8117 S   0  0  0  0  0  0  0  0  0  0  0  0
   -2.8606   -4.4344  -12.2238 C   0  0  0  0  0  0  0  0  0  0  0  0
   -4.2159   -4.3146  -11.8875 C   0  0  0  0  0  0  0  0  0  0  0  0
   -5.0880   -4.7980  -12.9155 C   0  0  0  0  0  0  0  0  0  0  0  0
   -6.4942   -4.7538  -12.7415 C   0  0  0  0  0  0  0  0  0  0  0  0
   -7.0188   -4.2420  -11.5928 C   0  0  0  0  0  0  0  0  0  0  0  0
   -8.3390   -4.1459  -11.2967 O   0  0  0  0  0  0  0  0  0  0  0  0
   -9.2673   -4.6143  -12.2421 C   0  0  0  0  0  0  0  0  0  0  0  0
   -6.1448   -3.7282  -10.5658 C   0  0  0  0  0  0  0  0  0  0  0  0
   -6.7919   -3.2291   -9.4849 O   0  0  0  0  0  0  0  0  0  0  0  0
   -6.0237   -2.7271   -8.4183 C   0  0  0  0  0  0  0  0  0  0  0  0
   -4.7874   -3.7636  -10.7206 C   0  0  0  0  0  0  0  0  0  0  0  0
   -1.7155   -4.1263  -11.4479 C   0  0  0  0  0  0  0  0  0  0  0  0
   -1.8423   -3.9846   -9.7218 S   0  0  0  0  0  0  0  0  0  0  0  0
   -0.1440   -3.7043   -9.5102 C   0  0  0  0  0  0  0  0  0  0  0  0
    0.5053   -3.6970  -10.7488 C   0  0  0  0  0  0  0  0  0  0  0  0
   -0.3798   -3.9447  -11.8419 C   0  0  0  0  0  0  0  0  0  0  0  0
    0.1338   -3.9335  -13.1566 C   0  0  0  0  0  0  0  0  0  0  0  0
    1.4625   -3.7044  -13.3816 C   0  0  0  0  0  0  0  0  0  0  0  0
    2.0572   -3.6761  -14.5999 O   0  0  0  0  0  0  0  0  0  0  0  0
    1.2621   -3.9089  -15.7359 C   0  0  0  0  0  0  0  0  0  0  0  0
    2.3497   -3.4423  -12.2804 C   0  0  0  0  0  0  0  0  0  0  0  0
    3.6349   -3.2084  -12.6348 O   0  0  0  0  0  0  0  0  0  0  0  0
    4.5704   -2.9444  -11.6173 C   0  0  0  0  0  0  0  0  0  0  0  0
    1.8672   -3.4295  -11.0013 C   0  0  0  0  0  0  0  0  0  0  0  0
    0.3469   -3.4857   -8.2000 C   0  0  0  0  0  0  0  0  0  0  0  0
    1.6234   -3.5622   -7.7100 C   0  0  0  0  0  0  0  0  0  0  0  0
    1.7372   -3.2094   -6.3474 C   0  0  0  0  0  0  0  0  0  0  0  0
    2.9061   -3.1548   -5.5617 C   0  0  0  0  0  0  0  0  0  0  0  0
    4.2151   -3.3619   -6.1544 C   0  0  0  0  0  0  0  0  0  0  0  0
    5.3743   -4.4620   -5.4682 S   0  0  0  0  0  0  0  0  0  0  0  0
    6.5515   -4.1091   -6.6871 C   0  0  0  0  0  0  0  0  0  0  0  0
    7.8679   -4.8039   -6.7225 C   0  0  0  0  0  0  0  0  0  0  0  0
    7.7942   -6.0746   -7.5726 C   0  0  0  0  0  0  0  0  0  0  0  0
    6.0589   -3.1955   -7.5705 C   0  0  0  0  0  0  0  0  0  0  0  0
    6.9379   -2.5983   -8.9206 Cl  0  0  0  0  0  0  0  0  0  0  0  0
    4.7413   -2.7632   -7.2667 C   0  0  0  0  0  0  0  0  0  0  0  0
    3.9495   -1.5304   -8.1641 Cl  0  0  0  0  0  0  0  0  0  0  0  0
    2.7477   -2.8444   -4.2192 C   0  0  0  0  0  0  0  0  0  0  0  0
    1.4911   -2.5504   -3.6394 C   0  0  0  0  0  0  0  0  0  0  0  0
    0.3204   -2.6120   -4.4218 C   0  0  0  0  0  0  0  0  0  0  0  0
   -0.9804   -2.3734   -3.8233 C   0  0  0  0  0  0  0  0  0  0  0  0
   -2.1141   -1.2471   -4.5089 S   0  0  0  0  0  0  0  0  0  0  0  0
   -3.2757   -1.5350   -3.2595 C   0  0  0  0  0  0  0  0  0  0  0  0
   -4.5619   -0.7870   -3.2023 C   0  0  0  0  0  0  0  0  0  0  0  0
   -4.4233    0.4703   -2.3399 C   0  0  0  0  0  0  0  0  0  0  0  0
   -2.7991   -2.4518   -2.3707 C   0  0  0  0  0  0  0  0  0  0  0  0
   -1.5033   -2.9358   -2.6902 C   0  0  0  0  0  0  0  0  0  0  0  0
   -0.7336   -4.1686   -1.7759 Cl  0  0  0  0  0  0  0  0  0  0  0  0
   -3.6704   -2.9861   -0.9924 Cl  0  0  0  0  0  0  0  0  0  0  0  0
    0.4794   -2.9143   -5.7642 C   0  0  0  0  0  0  0  0  0  0  0  0
   -0.7976   -3.0313   -6.9388 S   0  0  0  0  0  0  0  0  0  0  0  0
    1.6118   -2.1518   -2.2932 C   0  0  0  0  0  0  0  0  0  0  0  0
    2.8948   -2.1669   -1.8125 C   0  0  0  0  0  0  0  0  0  0  0  0
    4.0311   -2.6733   -3.0525 S   0  0  0  0  0  0  0  0  0  0  0  0
    3.2706   -1.7914   -0.4982 C   0  0  0  0  0  0  0  0  0  0  0  0
    2.0305   -1.1599    0.5376 S   0  0  0  0  0  0  0  0  0  0  0  0
    3.1354   -0.8766    1.8394 C   0  0  0  0  0  0  0  0  0  0  0  0
    4.4219   -1.3007    1.4986 C   0  0  0  0  0  0  0  0  0  0  0  0
    4.5001   -1.8132    0.1668 C   0  0  0  0  0  0  0  0  0  0  0  0
    5.7356   -2.2842   -0.3252 C   0  0  0  0  0  0  0  0  0  0  0  0
    6.8469   -2.2583    0.4702 C   0  0  0  0  0  0  0  0  0  0  0  0
    8.0797   -2.6824    0.1046 O   0  0  0  0  0  0  0  0  0  0  0  0
    8.2472   -3.2016   -1.1925 C   0  0  0  0  0  0  0  0  0  0  0  0
    6.7613   -1.7691    1.8226 C   0  0  0  0  0  0  0  0  0  0  0  0
    7.9266   -1.8206    2.5119 O   0  0  0  0  0  0  0  0  0  0  0  0
    7.9428   -1.3377    3.8328 C   0  0  0  0  0  0  0  0  0  0  0  0
    5.5725   -1.3099    2.3164 C   0  0  0  0  0  0  0  0  0  0  0  0
    2.6404   -0.2566    3.0171 C   0  0  0  0  0  0  0  0  0  0  0  0
    3.3012    0.4526    3.9815 C   0  0  0  0  0  0  0  0  0  0  0  0
    2.4537    0.9741    4.9871 C   0  0  0  0  0  0  0  0  0  0  0  0
    2.8177    1.7352    6.1144 C   0  0  0  0  0  0  0  0  0  0  0  0
    4.2144    2.0047    6.4096 C   0  0  0  0  0  0  0  0  0  0  0  0
    5.3785    0.7085    6.4679 S   0  0  0  0  0  0  0  0  0  0  0  0
    6.6777    1.7805    6.8659 C   0  0  0  0  0  0  0  0  0  0  0  0
    8.0531    1.2711    7.1231 C   0  0  0  0  0  0  0  0  0  0  0  0
    8.2286    0.8923    8.5957 C   0  0  0  0  0  0  0  0  0  0  0  0
    6.2202    3.0607    6.9522 C   0  0  0  0  0  0  0  0  0  0  0  0
    7.2173    4.4061    7.3247 Cl  0  0  0  0  0  0  0  0  0  0  0  0
    4.8293    3.1935    6.6888 C   0  0  0  0  0  0  0  0  0  0  0  0
    4.0550    4.7210    6.6387 Cl  0  0  0  0  0  0  0  0  0  0  0  0
    1.7857    2.1846    6.9299 C   0  0  0  0  0  0  0  0  0  0  0  0
    0.4221    1.9031    6.6626 C   0  0  0  0  0  0  0  0  0  0  0  0
    0.0613    1.1011    5.5654 C   0  0  0  0  0  0  0  0  0  0  0  0
   -1.3218    0.7359    5.3138 C   0  0  0  0  0  0  0  0  0  0  0  0
   -2.0124    0.9117    3.7268 S   0  0  0  0  0  0  0  0  0  0  0  0
   -3.5498    0.3011    4.2378 C   0  0  0  0  0  0  0  0  0  0  0  0
   -4.6726    0.1578    3.2702 C   0  0  0  0  0  0  0  0  0  0  0  0
   -4.2991   -0.7745    2.1173 C   0  0  0  0  0  0  0  0  0  0  0  0
   -3.5132   -0.0162    5.5625 C   0  0  0  0  0  0  0  0  0  0  0  0
   -2.2534    0.2245    6.1761 C   0  0  0  0  0  0  0  0  0  0  0  0
   -1.9499   -0.1936    7.8153 Cl  0  0  0  0  0  0  0  0  0  0  0  0
   -4.8483   -0.6404    6.4435 Cl  0  0  0  0  0  0  0  0  0  0  0  0
    1.0917    0.6727    4.7420 C   0  0  0  0  0  0  0  0  0  0  0  0
    0.9091   -0.3007    3.3143 S   0  0  0  0  0  0  0  0  0  0  0  0
   -0.4371    2.5040    7.6092 C   0  0  0  0  0  0  0  0  0  0  0  0
    0.2223    3.1582    8.6087 C   0  0  0  0  0  0  0  0  0  0  0  0
    1.9568    3.1071    8.3966 S   0  0  0  0  0  0  0  0  0  0  0  0
   -0.3889    3.7836    9.7374 C   0  0  0  0  0  0  0  0  0  0  0  0
   -1.6816    3.6054   10.1338 C   0  0  0  0  0  0  0  0  0  0  0  0
   -2.0137    4.3098   11.3145 C   0  0  0  0  0  0  0  0  0  0  0  0
   -3.2493    4.3301   11.9826 C   0  0  0  0  0  0  0  0  0  0  0  0
   -4.3398    3.4859   11.5243 C   0  0  0  0  0  0  0  0  0  0  0  0
   -5.9115    4.1276   11.1522 S   0  0  0  0  0  0  0  0  0  0  0  0
   -6.5108    2.5819   10.6571 C   0  0  0  0  0  0  0  0  0  0  0  0
   -7.8870    2.4164   10.1132 C   0  0  0  0  0  0  0  0  0  0  0  0
   -7.8801    2.4855    8.5838 C   0  0  0  0  0  0  0  0  0  0  0  0
   -5.5396    1.6330   10.7816 C   0  0  0  0  0  0  0  0  0  0  0  0
   -5.7607   -0.0201   10.3786 Cl  0  0  0  0  0  0  0  0  0  0  0  0
   -4.3097    2.1399   11.2773 C   0  0  0  0  0  0  0  0  0  0  0  0
   -2.9591    1.1279   11.5956 Cl  0  0  0  0  0  0  0  0  0  0  0  0
   -3.3513    5.1667   13.0856 C   0  0  0  0  0  0  0  0  0  0  0  0
   -2.2719    5.9524   13.5565 C   0  0  0  0  0  0  0  0  0  0  0  0
   -1.0352    5.9239   12.8915 C   0  0  0  0  0  0  0  0  0  0  0  0
    0.0754    6.7613   13.3140 C   0  0  0  0  0  0  0  0  0  0  0  0
    1.6543    6.0992   13.6106 S   0  0  0  0  0  0  0  0  0  0  0  0
    2.3178    7.6505   13.9937 C   0  0  0  0  0  0  0  0  0  0  0  0
    3.7633    7.8120   14.3108 C   0  0  0  0  0  0  0  0  0  0  0  0
    4.5924    7.8973   13.0269 C   0  0  0  0  0  0  0  0  0  0  0  0
    1.3623    8.6161   13.8822 C   0  0  0  0  0  0  0  0  0  0  0  0
    0.0884    8.1157   13.5018 C   0  0  0  0  0  0  0  0  0  0  0  0
   -1.2619    9.1400   13.2278 Cl  0  0  0  0  0  0  0  0  0  0  0  0
    1.6466   10.2837   14.1721 Cl  0  0  0  0  0  0  0  0  0  0  0  0
   -0.9277    5.0802   11.7932 C   0  0  0  0  0  0  0  0  0  0  0  0
    0.4862    4.8657   10.7982 S   0  0  0  0  0  0  0  0  0  0  0  0
   -2.6216    6.6618   14.7429 C   0  0  0  0  0  0  0  0  0  0  0  0
   -3.8937    6.4397   15.1304 C   0  0  0  0  0  0  0  0  0  0  0  0
   -4.7558    5.3518   14.0972 S   0  0  0  0  0  0  0  0  0  0  0  0
   -4.7996   -5.6919  -14.9113 H   0  0  0  0  0  0  0  0  0  0  0  0
   -7.1165   -5.1320  -13.5359 H   0  0  0  0  0  0  0  0  0  0  0  0
  -10.2480   -4.4448  -11.8010 H   0  0  0  0  0  0  0  0  0  0  0  0
   -9.1932   -4.0628  -13.1853 H   0  0  0  0  0  0  0  0  0  0  0  0
   -9.1368   -5.6838  -12.4375 H   0  0  0  0  0  0  0  0  0  0  0  0
   -6.7422   -2.4144   -7.6626 H   0  0  0  0  0  0  0  0  0  0  0  0
   -5.3649   -3.4948   -7.9999 H   0  0  0  0  0  0  0  0  0  0  0  0
   -5.4217   -1.8660   -8.7258 H   0  0  0  0  0  0  0  0  0  0  0  0
   -4.1457   -3.3582   -9.9592 H   0  0  0  0  0  0  0  0  0  0  0  0
   -0.5377   -4.0896  -13.9817 H   0  0  0  0  0  0  0  0  0  0  0  0
    0.7937   -4.8980  -15.7031 H   0  0  0  0  0  0  0  0  0  0  0  0
    0.4850   -3.1453  -15.8461 H   0  0  0  0  0  0  0  0  0  0  0  0
    1.9418   -3.8572  -16.5849 H   0  0  0  0  0  0  0  0  0  0  0  0
    5.5242   -2.8027  -12.1224 H   0  0  0  0  0  0  0  0  0  0  0  0
    4.3172   -2.0369  -11.0609 H   0  0  0  0  0  0  0  0  0  0  0  0
    4.6515   -3.7845  -10.9197 H   0  0  0  0  0  0  0  0  0  0  0  0
    2.5097   -3.1823  -10.1765 H   0  0  0  0  0  0  0  0  0  0  0  0
    2.4555   -3.9201   -8.2844 H   0  0  0  0  0  0  0  0  0  0  0  0
    8.1680   -5.0614   -5.7055 H   0  0  0  0  0  0  0  0  0  0  0  0
    8.6113   -4.1258   -7.1470 H   0  0  0  0  0  0  0  0  0  0  0  0
    8.7606   -6.5711   -7.5857 H   0  0  0  0  0  0  0  0  0  0  0  0
    7.0546   -6.7593   -7.1648 H   0  0  0  0  0  0  0  0  0  0  0  0
    7.5154   -5.8284   -8.5941 H   0  0  0  0  0  0  0  0  0  0  0  0
   -4.8627   -0.5074   -4.2130 H   0  0  0  0  0  0  0  0  0  0  0  0
   -5.3277   -1.4376   -2.7747 H   0  0  0  0  0  0  0  0  0  0  0  0
   -5.3703    1.0016   -2.2991 H   0  0  0  0  0  0  0  0  0  0  0  0
   -3.6686    1.1322   -2.7573 H   0  0  0  0  0  0  0  0  0  0  0  0
   -4.1291    0.2016   -1.3285 H   0  0  0  0  0  0  0  0  0  0  0  0
    0.7804   -1.8371   -1.6893 H   0  0  0  0  0  0  0  0  0  0  0  0
    5.7818   -2.6695   -1.3288 H   0  0  0  0  0  0  0  0  0  0  0  0
    9.2981   -3.4761   -1.2642 H   0  0  0  0  0  0  0  0  0  0  0  0
    7.6263   -4.0888   -1.3531 H   0  0  0  0  0  0  0  0  0  0  0  0
    8.0117   -2.4550   -1.9577 H   0  0  0  0  0  0  0  0  0  0  0  0
    7.6646   -0.2790    3.8754 H   0  0  0  0  0  0  0  0  0  0  0  0
    8.9698   -1.4572    4.1741 H   0  0  0  0  0  0  0  0  0  0  0  0
    7.2738   -1.9118    4.4822 H   0  0  0  0  0  0  0  0  0  0  0  0
    5.4872   -0.9820    3.3371 H   0  0  0  0  0  0  0  0  0  0  0  0
    4.3533    0.6582    3.9437 H   0  0  0  0  0  0  0  0  0  0  0  0
    8.7698    2.0514    6.8601 H   0  0  0  0  0  0  0  0  0  0  0  0
    8.2396    0.3961    6.4976 H   0  0  0  0  0  0  0  0  0  0  0  0
    7.5227    0.1127    8.8716 H   0  0  0  0  0  0  0  0  0  0  0  0
    8.0556    1.7580    9.2298 H   0  0  0  0  0  0  0  0  0  0  0  0
    9.2375    0.5283    8.7695 H   0  0  0  0  0  0  0  0  0  0  0  0
   -5.5404   -0.2334    3.8039 H   0  0  0  0  0  0  0  0  0  0  0  0
   -4.9316    1.1405    2.8667 H   0  0  0  0  0  0  0  0  0  0  0  0
   -4.0517   -1.7639    2.4936 H   0  0  0  0  0  0  0  0  0  0  0  0
   -5.1311   -0.8657    1.4240 H   0  0  0  0  0  0  0  0  0  0  0  0
   -3.4364   -0.3850    1.5817 H   0  0  0  0  0  0  0  0  0  0  0  0
   -1.5071    2.4730    7.5364 H   0  0  0  0  0  0  0  0  0  0  0  0
   -2.3770    2.9853    9.6015 H   0  0  0  0  0  0  0  0  0  0  0  0
   -8.2764    1.4464   10.4295 H   0  0  0  0  0  0  0  0  0  0  0  0
   -8.5306    3.2008   10.5136 H   0  0  0  0  0  0  0  0  0  0  0  0
   -7.5008    3.4486    8.2507 H   0  0  0  0  0  0  0  0  0  0  0  0
   -8.8883    2.3550    8.1999 H   0  0  0  0  0  0  0  0  0  0  0  0
   -7.2475    1.7022    8.1745 H   0  0  0  0  0  0  0  0  0  0  0  0
    3.8952    8.7245   14.8949 H   0  0  0  0  0  0  0  0  0  0  0  0
    4.1021    6.9620   14.9057 H   0  0  0  0  0  0  0  0  0  0  0  0
    5.6455    8.0119   13.2693 H   0  0  0  0  0  0  0  0  0  0  0  0
    4.4648    6.9940   12.4352 H   0  0  0  0  0  0  0  0  0  0  0  0
    4.2770    8.7500   12.4310 H   0  0  0  0  0  0  0  0  0  0  0  0
   -1.9377    7.2934   15.2788 H   0  0  0  0  0  0  0  0  0  0  0  0
   -4.4034    6.8485   15.9809 H   0  0  0  0  0  0  0  0  0  0  0  0
  1  2  1  0  0  0  0
  2  3  1  0  0  0  0
  3  4  2  0  0  0  0
  4  5  1  0  0  0  0
  5  6  1  0  0  0  0
  6  7  2  0  0  0  0
  7  8  1  0  0  0  0
  8  9  1  0  0  0  0
  7 10  1  0  0  0  0
 10 11  1  0  0  0  0
 11 12  1  0  0  0  0
 10 13  2  0  0  0  0
  3 14  1  0  0  0  0
 14 15  1  0  0  0  0
 15 16  1  0  0  0  0
 16 17  2  0  0  0  0
 17 18  1  0  0  0  0
 18 19  1  0  0  0  0
 19 20  2  0  0  0  0
 20 21  1  0  0  0  0
 21 22  1  0  0  0  0
 20 23  1  0  0  0  0
 23 24  1  0  0  0  0
 24 25  1  0  0  0  0
 23 26  2  0  0  0  0
 16 27  1  0  0  0  0
 27 28  2  0  0  0  0
 28 29  1  0  0  0  0
 29 30  2  0  0  0  0
 30 31  1  0  0  0  0
 31 32  1  0  0  0  0
 32 33  1  0  0  0  0
 33 34  1  0  0  0  0
 34 35  1  0  0  0  0
 33 36  2  0  0  0  0
 36 37  1  0  0  0  0
 36 38  1  0  0  0  0
 38 39  1  0  0  0  0
 30 40  1  0  0  0  0
 40 41  2  0  0  0  0
 41 42  1  0  0  0  0
 42 43  1  0  0  0  0
 43 44  1  0  0  0  0
 44 45  1  0  0  0  0
 45 46  1  0  0  0  0
 46 47  1  0  0  0  0
 45 48  2  0  0  0  0
 48 49  1  0  0  0  0
 49 50  1  0  0  0  0
 48 51  1  0  0  0  0
 42 52  2  0  0  0  0
 52 53  1  0  0  0  0
 41 54  1  0  0  0  0
 54 55  2  0  0  0  0
 55 56  1  0  0  0  0
 55 57  1  0  0  0  0
 57 58  1  0  0  0  0
 58 59  1  0  0  0  0
 59 60  2  0  0  0  0
 60 61  1  0  0  0  0
 61 62  1  0  0  0  0
 62 63  2  0  0  0  0
 63 64  1  0  0  0  0
 64 65  1  0  0  0  0
 63 66  1  0  0  0  0
 66 67  1  0  0  0  0
 67 68  1  0  0  0  0
 66 69  2  0  0  0  0
 59 70  1  0  0  0  0
 70 71  2  0  0  0  0
 71 72  1  0  0  0  0
 72 73  2  0  0  0  0
 73 74  1  0  0  0  0
 74 75  1  0  0  0  0
 75 76  1  0  0  0  0
 76 77  1  0  0  0  0
 77 78  1  0  0  0  0
 76 79  2  0  0  0  0
 79 80  1  0  0  0  0
 79 81  1  0  0  0  0
 81 82  1  0  0  0  0
 73 83  1  0  0  0  0
 83 84  2  0  0  0  0
 84 85  1  0  0  0  0
 85 86  1  0  0  0  0
 86 87  1  0  0  0  0
 87 88  1  0  0  0  0
 88 89  1  0  0  0  0
 89 90  1  0  0  0  0
 88 91  2  0  0  0  0
 91 92  1  0  0  0  0
 92 93  1  0  0  0  0
 91 94  1  0  0  0  0
 85 95  2  0  0  0  0
 95 96  1  0  0  0  0
 84 97  1  0  0  0  0
 97 98  2  0  0  0  0
 98 99  1  0  0  0  0
 98100  1  0  0  0  0
100101  2  0  0  0  0
101102  1  0  0  0  0
102103  2  0  0  0  0
103104  1  0  0  0  0
104105  1  0  0  0  0
105106  1  0  0  0  0
106107  1  0  0  0  0
107108  1  0  0  0  0
106109  2  0  0  0  0
109110  1  0  0  0  0
109111  1  0  0  0  0
111112  1  0  0  0  0
103113  1  0  0  0  0
113114  2  0  0  0  0
114115  1  0  0  0  0
115116  1  0  0  0  0
116117  1  0  0  0  0
117118  1  0  0  0  0
118119  1  0  0  0  0
119120  1  0  0  0  0
118121  2  0  0  0  0
121122  1  0  0  0  0
122123  1  0  0  0  0
121124  1  0  0  0  0
115125  2  0  0  0  0
125126  1  0  0  0  0
114127  1  0  0  0  0
127128  2  0  0  0  0
128129  1  0  0  0  0
  5  1  2  0  0  0  0
 18 14  2  0  0  0  0
 53 27  1  0  0  0  0
 61 57  2  0  0  0  0
 96 70  1  0  0  0  0
126100  1  0  0  0  0
 13  4  1  0  0  0  0
 26 17  1  0  0  0  0
 52 29  1  0  0  0  0
 69 60  1  0  0  0  0
 95 72  1  0  0  0  0
125102  1  0  0  0  0
 38 31  2  0  0  0  0
 56 40  1  0  0  0  0
 81 74  2  0  0  0  0
 99 83  1  0  0  0  0
111104  2  0  0  0  0
129113  1  0  0  0  0
 49 43  2  0  0  0  0
 92 86  2  0  0  0  0
122116  2  0  0  0  0
  1130  1  0  0  0  0
  6131  1  0  0  0  0
  9132  1  0  0  0  0
  9133  1  0  0  0  0
  9134  1  0  0  0  0
 12135  1  0  0  0  0
 12136  1  0  0  0  0
 12137  1  0  0  0  0
 13138  1  0  0  0  0
 19139  1  0  0  0  0
 22140  1  0  0  0  0
 22141  1  0  0  0  0
 22142  1  0  0  0  0
 25143  1  0  0  0  0
 25144  1  0  0  0  0
 25145  1  0  0  0  0
 26146  1  0  0  0  0
 28147  1  0  0  0  0
 34148  1  0  0  0  0
 34149  1  0  0  0  0
 35150  1  0  0  0  0
 35151  1  0  0  0  0
 35152  1  0  0  0  0
 46153  1  0  0  0  0
 46154  1  0  0  0  0
 47155  1  0  0  0  0
 47156  1  0  0  0  0
 47157  1  0  0  0  0
 54158  1  0  0  0  0
 62159  1  0  0  0  0
 65160  1  0  0  0  0
 65161  1  0  0  0  0
 65162  1  0  0  0  0
 68163  1  0  0  0  0
 68164  1  0  0  0  0
 68165  1  0  0  0  0
 69166  1  0  0  0  0
 71167  1  0  0  0  0
 77168  1  0  0  0  0
 77169  1  0  0  0  0
 78170  1  0  0  0  0
 78171  1  0  0  0  0
 78172  1  0  0  0  0
 89173  1  0  0  0  0
 89174  1  0  0  0  0
 90175  1  0  0  0  0
 90176  1  0  0  0  0
 90177  1  0  0  0  0
 97178  1  0  0  0  0
101179  1  0  0  0  0
107180  1  0  0  0  0
107181  1  0  0  0  0
108182  1  0  0  0  0
108183  1  0  0  0  0
108184  1  0  0  0  0
119185  1  0  0  0  0
119186  1  0  0  0  0
120187  1  0  0  0  0
120188  1  0  0  0  0
120189  1  0  0  0  0
127190  1  0  0  0  0
128191  1  0  0  0  0
M  END
