215

C         -1.69540       -8.16660       11.67030
S         -2.42390       -8.16450       10.12830
C         -1.88580       -6.54250        9.79170
C         -1.16050       -6.03820       10.87140
C         -1.05590       -6.98110       11.94600
C         -0.34870       -6.64110       13.12680
C          0.23150       -5.41350       13.23830
O          0.93490       -4.96260       14.30670
C          1.09750       -5.82330       15.40560
C          0.12680       -4.45980       12.15800
O          0.74660       -3.28100       12.39900
C          0.69840       -2.28340       11.40710
C         -0.55020       -4.77260       11.01350
C         -2.22340       -5.96380        8.53840
C         -2.91730       -6.56820        7.52500
C         -3.11600       -5.75270        6.38550
C         -3.71950       -6.09600        5.16200
C         -4.29480       -7.42660        4.93520
C         -3.93760       -8.17310        3.81680
C         -4.46920       -9.42820        3.59270
C         -5.39280       -9.97670        4.47460
S         -6.13860      -11.56570        4.32490
C         -5.71370      -12.10740        2.63400
C         -6.47760      -11.34100        1.57070
C         -5.74360       -9.21560        5.59170
F         -6.63760       -9.71620        6.46910
C         -5.21280       -7.96900        5.83260
C         -3.72960       -5.11930        4.17730
C         -3.17390       -3.83140        4.36320
C         -2.51220       -3.50820        5.55870
C         -1.74110       -2.26630        5.69340
C         -0.77640       -1.95420        4.73430
C          0.01040       -0.83330        4.86840
C         -0.13500        0.03690        5.95080
S          0.95610        1.42290        6.00180
C         -0.00650        2.73490        6.85190
C          0.62210        4.07790        6.53870
C         -1.08940       -0.29840        6.90730
C         -1.88270       -1.42340        6.78850
F         -1.26570        0.46690        8.00940
C         -2.52960       -4.47270        6.55020
S         -1.77190       -4.32150        8.11140
C         -3.38420       -2.99440        3.24170
C         -4.02450       -3.61140        2.20980
S         -4.42850       -5.27620        2.58130
C         -4.25780       -3.03900        0.92050
C         -4.24010       -3.64440       -0.29880
C         -4.22080       -2.73100       -1.38630
C         -4.01750       -3.00720       -2.75160
C         -3.86620       -4.36670       -3.28210
C         -4.57520       -4.74850       -4.41790
C         -4.41970       -6.00350       -4.97160
C         -3.53330       -6.91990       -4.41760
S         -3.24180       -8.54470       -5.03770
C         -3.76320       -8.43690       -6.78500
C         -2.88470       -7.49910       -7.59100
C         -2.83720       -6.52880       -3.27340
F         -1.97360       -7.39310       -2.70250
C         -2.98740       -5.28220       -2.70780
C         -3.85900       -1.91240       -3.58670
C         -3.99980       -0.57730       -3.14440
C         -4.32110       -0.30050       -1.80460
C         -4.56840        1.08380       -1.39180
C         -5.45680        1.86960       -2.12860
C         -5.71860        3.17020       -1.76100
C         -5.08750        3.75580       -0.66350
S         -5.46310        5.45090       -0.33560
C         -5.40810        5.60230        1.48830
C         -6.37910        4.65850        2.16850
C         -4.17810        2.97160        0.03830
C         -3.93530        1.65390       -0.29500
F         -3.48090        3.48340        1.07660
C         -4.33340       -1.38680       -0.94510
S         -4.40110       -1.29580        0.79410
C         -3.53890        0.35440       -4.09930
C         -2.99350       -0.21750       -5.21690
S         -3.23740       -1.96320       -5.22410
C         -2.08210        0.43560       -6.08460
S         -1.40320        1.93190       -5.51050
C         -0.10060        1.88990       -6.65810
C         -0.23680        0.79040       -7.51180
C         -1.36910       -0.02270       -7.19250
C         -1.62840       -1.19130       -7.93940
C         -0.77000       -1.57350       -8.93120
O         -0.91010       -2.67380       -9.70920
C         -2.00390       -3.52320       -9.46530
C          0.41210       -0.79630       -9.20470
O          1.20620       -1.31470      -10.17530
C          2.41460       -0.66110      -10.47040
C          0.66230        0.35390       -8.51000
C          0.98220        2.77870       -6.42910
S          1.34090        3.15490       -4.76850
C          2.79430        4.01110       -5.17640
C          2.96450        4.04550       -6.56360
C          1.91980        3.37420       -7.27260
C          1.88080        3.43240       -8.68370
C          2.88810        4.04980       -9.36980
O          2.95650        4.18120      -10.71850
C          1.88000        3.71240      -11.48990
C          3.99400        4.64080       -8.65930
O          4.94650        5.17800       -9.45650
C          6.06830        5.77280       -8.84860
C          4.00800        4.65560       -7.29240
C          3.59540        4.48870       -4.10570
C          3.25360        4.46730       -2.77920
C          4.27470        4.90920       -1.90440
C          4.24120        5.01290       -0.50240
C          3.08550        4.58050        0.29220
C          2.50040        3.33200        0.09800
C          1.44730        2.90030        0.88220
C          0.93470        3.70540        1.89400
S         -0.38540        3.28230        2.97300
C         -0.97120        1.67740        2.32560
C         -2.20150        1.25580        3.10620
C          1.52910        4.95650        2.07510
F          1.05570        5.76510        3.04720
C          2.57720        5.39760        1.30240
C          5.38490        5.51480        0.10780
C          6.54600        5.89720       -0.60480
C          6.57700        5.79810       -2.00440
C          7.75550        6.19720       -2.78360
C          8.34510        7.44510       -2.60730
C          9.44760        7.82830       -3.34740
C          9.99810        6.97600       -4.29760
S         11.41410        7.31370       -5.29110
C         11.71880        9.09830       -5.05630
C         10.68680        9.95710       -5.76260
C          9.39590        5.72750       -4.46340
C          8.30010        5.33280       -3.73130
F          9.90640        4.87170       -5.37320
C          5.43830        5.29800       -2.61400
S          5.22450        5.10130       -4.33500
C          7.59780        6.29410        0.27330
C          7.24920        6.22590        1.57390
S          5.62810        5.67950        1.82940
H         -1.77400       -9.03520       12.29300
H         -0.28960       -7.37530       13.91340
H          1.68560       -5.26560       16.13230
H          0.13390       -6.09480       15.84940
H          1.63590       -6.73480       15.12510
H         -0.33040       -1.97510       11.19600
H          1.17190       -2.61660       10.47810
H          1.25270       -1.43930       11.81330
H         -0.62340       -4.06020       10.21130
H         -3.25710       -7.58620        7.59180
H         -3.21370       -7.77840        3.12030
H         -4.14700       -9.97830        2.72400
H         -4.63430      -12.03670        2.50600
H         -5.99410      -13.16080        2.62800
H         -6.24280      -10.27940        1.60680
H         -6.21910      -11.72070        0.58400
H         -7.54810      -11.45980        1.72060
H         -5.53570       -7.41790        6.70190
H         -0.63360       -2.61270        3.89090
H          0.76940       -0.60650        4.13580
H         -1.02640        2.68150        6.47360
H          0.00610        2.53200        7.92180
H          0.07650        4.86410        7.05560
H          1.65930        4.10060        6.86550
H          0.58900        4.27760        5.47070
H         -2.60900       -1.62820        7.55950
H         -3.06090       -1.96960        3.20150
H         -4.19210       -4.71250       -0.40940
H         -5.27180       -4.05640       -4.86650
H         -5.00210       -6.26620       -5.83990
H         -3.66630       -9.46250       -7.14070
H         -4.81510       -8.15600       -6.82260
H         -3.20400       -7.49560       -8.63150
H         -2.94330       -6.48280       -7.20610
H         -1.84800       -7.82420       -7.54540
H         -2.38970       -5.02150       -1.84870
H         -5.96280        1.44120       -2.98030
H         -6.42040        3.76670       -2.32280
H         -5.68970        6.64210        1.65580
H         -4.38550        5.45460        1.82810
H         -7.38880        4.81330        1.79360
H         -6.37230        4.83920        3.24140
H         -6.10200        3.62040        1.99430
H         -3.22170        1.09300        0.28610
H         -3.49180        1.41270       -3.91270
H         -2.50850       -1.76610       -7.70510
H         -1.98820       -3.91260       -8.44190
H         -1.89900       -4.34690      -10.16930
H         -2.95620       -3.01230       -9.64200
H          3.06850       -0.60610       -9.59410
H          2.24400        0.35090      -10.85420
H          2.89300       -1.26090      -11.24250
H          1.55690        0.92650       -8.68330
H          1.02570        3.01590       -9.18950
H          2.13260        3.94780      -12.52220
H          1.74940        2.62910      -11.38860
H          0.94390        4.21230      -11.22060
H          6.61620        5.05710       -8.22780
H          6.70440        6.10330       -9.66760
H          5.78350        6.63540       -8.23780
H          4.80520        5.13840       -6.75510
H          2.28150        4.15280       -2.44350
H          2.89500        2.67090       -0.65880
H          1.03460        1.92090        0.70340
H         -1.20530        1.82040        1.27100
H         -0.16840        0.94940        2.44090
H         -2.59400        0.32270        2.70600
H         -1.95700        1.10490        4.15460
H         -2.97340        2.01730        3.03600
H          2.97920        6.38190        1.48180
H          7.92380        8.13590       -1.89240
H          9.87640        8.80150       -3.17190
H         12.70760        9.24600       -5.49060
H         11.77660        9.30560       -3.98860
H         10.68340        9.73680       -6.82750
H          9.68860        9.77120       -5.37200
H         10.92440       11.01030       -5.62540
H          7.88930        4.34880       -3.89190
H          8.57160        6.59310       -0.06950
H          7.84830        6.46560        2.43060
