
  xtb     03022219433D
 energy: -186.135736311371 gnorm: 0.000177661482 xtb: 6.4.1 (unknown)
108119  0     0  0            999 V2000
    6.5605    5.4587   -4.1873 C   0  0  0  0  0  0  0  0  0  0  0  0
    4.9137    5.7196   -4.5509 S   0  0  0  0  0  0  0  0  0  0  0  0
    4.3793    4.4511   -3.4865 C   0  0  0  0  0  0  0  0  0  0  0  0
    5.4895    3.8525   -2.8674 C   0  0  0  0  0  0  0  0  0  0  0  0
    6.7343    4.4411   -3.2737 C   0  0  0  0  0  0  0  0  0  0  0  0
    7.9503    3.9749   -2.7347 C   0  0  0  0  0  0  0  0  0  0  0  0
    7.9422    2.9673   -1.8036 C   0  0  0  0  0  0  0  0  0  0  0  0
    9.1589    2.5733   -1.3267 O   0  0  0  0  0  0  0  0  0  0  0  0
    9.2151    1.5668   -0.3462 C   0  0  0  0  0  0  0  0  0  0  0  0
    6.7119    2.4055   -1.3812 C   0  0  0  0  0  0  0  0  0  0  0  0
    5.5222    2.8334   -1.8981 C   0  0  0  0  0  0  0  0  0  0  0  0
    3.0096    4.1202   -3.3750 C   0  0  0  0  0  0  0  0  0  0  0  0
    2.5265    2.5222   -2.8847 S   0  0  0  0  0  0  0  0  0  0  0  0
    0.8325    2.8619   -3.0476 C   0  0  0  0  0  0  0  0  0  0  0  0
    0.6434    4.2033   -3.4140 C   0  0  0  0  0  0  0  0  0  0  0  0
    1.8708    4.9059   -3.6330 C   0  0  0  0  0  0  0  0  0  0  0  0
    1.8264    6.2639   -3.9839 C   0  0  0  0  0  0  0  0  0  0  0  0
    0.6195    6.9186   -4.0896 C   0  0  0  0  0  0  0  0  0  0  0  0
    0.6856    8.2348   -4.4402 O   0  0  0  0  0  0  0  0  0  0  0  0
   -0.5052    8.9747   -4.5430 C   0  0  0  0  0  0  0  0  0  0  0  0
   -0.5846    6.2367   -3.8070 C   0  0  0  0  0  0  0  0  0  0  0  0
   -0.5696    4.9136   -3.4662 C   0  0  0  0  0  0  0  0  0  0  0  0
   -0.1092    1.8509   -2.7583 C   0  0  0  0  0  0  0  0  0  0  0  0
    0.2696    0.6566   -1.5486 S   0  0  0  0  0  0  0  0  0  0  0  0
   -1.2989   -0.0845   -1.6563 C   0  0  0  0  0  0  0  0  0  0  0  0
   -2.0531    0.5154   -2.6737 C   0  0  0  0  0  0  0  0  0  0  0  0
   -1.3770    1.6034   -3.3057 C   0  0  0  0  0  0  0  0  0  0  0  0
   -1.9451    2.2252   -4.4364 C   0  0  0  0  0  0  0  0  0  0  0  0
   -3.1714    1.8109   -4.8892 C   0  0  0  0  0  0  0  0  0  0  0  0
   -3.8288    2.3386   -5.9590 O   0  0  0  0  0  0  0  0  0  0  0  0
   -3.2228    3.3980   -6.6571 C   0  0  0  0  0  0  0  0  0  0  0  0
   -3.8440    0.7338   -4.2557 C   0  0  0  0  0  0  0  0  0  0  0  0
   -3.2944    0.0871   -3.1917 C   0  0  0  0  0  0  0  0  0  0  0  0
   -1.6334   -1.1309   -0.7676 C   0  0  0  0  0  0  0  0  0  0  0  0
   -0.4144   -2.2733   -0.2837 S   0  0  0  0  0  0  0  0  0  0  0  0
   -1.4957   -3.1335    0.7812 C   0  0  0  0  0  0  0  0  0  0  0  0
   -2.7642   -2.5275    0.7580 C   0  0  0  0  0  0  0  0  0  0  0  0
   -2.8363   -1.3959   -0.1040 C   0  0  0  0  0  0  0  0  0  0  0  0
   -4.0130   -0.6174   -0.1423 C   0  0  0  0  0  0  0  0  0  0  0  0
   -5.1091   -0.9952    0.5814 C   0  0  0  0  0  0  0  0  0  0  0  0
   -6.2911   -0.3285    0.6205 O   0  0  0  0  0  0  0  0  0  0  0  0
   -6.4177    0.8422   -0.1468 C   0  0  0  0  0  0  0  0  0  0  0  0
   -5.0688   -2.1896    1.3799 C   0  0  0  0  0  0  0  0  0  0  0  0
   -6.2302   -2.4785    2.0193 O   0  0  0  0  0  0  0  0  0  0  0  0
   -6.2606   -3.5980    2.8700 C   0  0  0  0  0  0  0  0  0  0  0  0
   -3.9178   -2.9238    1.4655 C   0  0  0  0  0  0  0  0  0  0  0  0
   -1.0286   -4.1949    1.5819 C   0  0  0  0  0  0  0  0  0  0  0  0
   -1.8072   -4.5802    3.0916 S   0  0  0  0  0  0  0  0  0  0  0  0
   -0.6296   -5.7810    3.5306 C   0  0  0  0  0  0  0  0  0  0  0  0
    0.3334   -5.8946    2.5134 C   0  0  0  0  0  0  0  0  0  0  0  0
    0.1085   -5.0066    1.4178 C   0  0  0  0  0  0  0  0  0  0  0  0
    0.9611   -5.0378    0.2984 C   0  0  0  0  0  0  0  0  0  0  0  0
    2.0401   -5.8853    0.2884 C   0  0  0  0  0  0  0  0  0  0  0  0
    2.9270   -6.0094   -0.7348 O   0  0  0  0  0  0  0  0  0  0  0  0
    2.7367   -5.2194   -1.8836 C   0  0  0  0  0  0  0  0  0  0  0  0
    2.3030   -6.7139    1.4073 C   0  0  0  0  0  0  0  0  0  0  0  0
    1.4725   -6.7261    2.4856 C   0  0  0  0  0  0  0  0  0  0  0  0
   -0.7674   -6.5062    4.7351 C   0  0  0  0  0  0  0  0  0  0  0  0
   -0.0304   -8.0735    4.9344 S   0  0  0  0  0  0  0  0  0  0  0  0
   -0.6760   -8.2832    6.4976 C   0  0  0  0  0  0  0  0  0  0  0  0
   -1.4346   -7.2031    6.8917 C   0  0  0  0  0  0  0  0  0  0  0  0
   -1.4985   -6.1759    5.8906 C   0  0  0  0  0  0  0  0  0  0  0  0
   -2.2014   -4.9964    6.1791 C   0  0  0  0  0  0  0  0  0  0  0  0
   -2.8371   -4.8432    7.3906 C   0  0  0  0  0  0  0  0  0  0  0  0
   -3.4859   -3.6565    7.5712 O   0  0  0  0  0  0  0  0  0  0  0  0
   -4.1190   -3.4012    8.8003 C   0  0  0  0  0  0  0  0  0  0  0  0
   -2.7944   -5.8731    8.3623 C   0  0  0  0  0  0  0  0  0  0  0  0
   -2.1052   -7.0231    8.1218 C   0  0  0  0  0  0  0  0  0  0  0  0
    7.3098    6.0661   -4.6527 H   0  0  0  0  0  0  0  0  0  0  0  0
    8.8851    4.4134   -3.0440 H   0  0  0  0  0  0  0  0  0  0  0  0
    8.8043    0.6200   -0.7120 H   0  0  0  0  0  0  0  0  0  0  0  0
   10.2732    1.4348   -0.1243 H   0  0  0  0  0  0  0  0  0  0  0  0
    8.6911    1.8626    0.5688 H   0  0  0  0  0  0  0  0  0  0  0  0
    6.7030    1.6278   -0.6346 H   0  0  0  0  0  0  0  0  0  0  0  0
    4.6047    2.3915   -1.5439 H   0  0  0  0  0  0  0  0  0  0  0  0
    2.7274    6.8284   -4.1511 H   0  0  0  0  0  0  0  0  0  0  0  0
   -0.2014    9.9769   -4.8420 H   0  0  0  0  0  0  0  0  0  0  0  0
   -1.0320    9.0309   -3.5845 H   0  0  0  0  0  0  0  0  0  0  0  0
   -1.1755    8.5611   -5.3040 H   0  0  0  0  0  0  0  0  0  0  0  0
   -1.5262    6.7622   -3.8320 H   0  0  0  0  0  0  0  0  0  0  0  0
   -1.4883    4.4146   -3.2003 H   0  0  0  0  0  0  0  0  0  0  0  0
   -1.3788    2.9862   -4.9461 H   0  0  0  0  0  0  0  0  0  0  0  0
   -3.9267    3.6780   -7.4392 H   0  0  0  0  0  0  0  0  0  0  0  0
   -3.0422    4.2585   -6.0042 H   0  0  0  0  0  0  0  0  0  0  0  0
   -2.2771    3.0892   -7.1142 H   0  0  0  0  0  0  0  0  0  0  0  0
   -4.7875    0.4232   -4.6757 H   0  0  0  0  0  0  0  0  0  0  0  0
   -3.7810   -0.7738   -2.7607 H   0  0  0  0  0  0  0  0  0  0  0  0
   -4.0144    0.2836   -0.7314 H   0  0  0  0  0  0  0  0  0  0  0  0
   -5.7109    1.6138    0.1765 H   0  0  0  0  0  0  0  0  0  0  0  0
   -6.2693    0.6437   -1.2136 H   0  0  0  0  0  0  0  0  0  0  0  0
   -7.4351    1.1930    0.0181 H   0  0  0  0  0  0  0  0  0  0  0  0
   -5.5279   -3.5089    3.6788 H   0  0  0  0  0  0  0  0  0  0  0  0
   -7.2646   -3.6189    3.2905 H   0  0  0  0  0  0  0  0  0  0  0  0
   -6.0788   -4.5270    2.3196 H   0  0  0  0  0  0  0  0  0  0  0  0
   -3.8820   -3.8145    2.0674 H   0  0  0  0  0  0  0  0  0  0  0  0
    0.7436   -4.4023   -0.5421 H   0  0  0  0  0  0  0  0  0  0  0  0
    1.7817   -5.4434   -2.3698 H   0  0  0  0  0  0  0  0  0  0  0  0
    2.7802   -4.1512   -1.6482 H   0  0  0  0  0  0  0  0  0  0  0  0
    3.5530   -5.4759   -2.5568 H   0  0  0  0  0  0  0  0  0  0  0  0
    3.1788   -7.3416    1.3687 H   0  0  0  0  0  0  0  0  0  0  0  0
    1.6936   -7.3669    3.3230 H   0  0  0  0  0  0  0  0  0  0  0  0
   -0.4607   -9.1772    7.0474 H   0  0  0  0  0  0  0  0  0  0  0  0
   -2.2458   -4.1812    5.4774 H   0  0  0  0  0  0  0  0  0  0  0  0
   -3.4096   -3.4249    9.6341 H   0  0  0  0  0  0  0  0  0  0  0  0
   -4.5326   -2.3976    8.7122 H   0  0  0  0  0  0  0  0  0  0  0  0
   -4.9326   -4.1085    8.9928 H   0  0  0  0  0  0  0  0  0  0  0  0
   -3.3006   -5.7471    9.3062 H   0  0  0  0  0  0  0  0  0  0  0  0
   -2.0572   -7.8048    8.8648 H   0  0  0  0  0  0  0  0  0  0  0  0
  1  2  1  0  0  0  0
  2  3  1  0  0  0  0
  3  4  2  0  0  0  0
  4  5  1  0  0  0  0
  5  6  1  0  0  0  0
  6  7  2  0  0  0  0
  7  8  1  0  0  0  0
  8  9  1  0  0  0  0
  7 10  1  0  0  0  0
 10 11  2  0  0  0  0
  3 12  1  0  0  0  0
 12 13  1  0  0  0  0
 13 14  1  0  0  0  0
 14 15  2  0  0  0  0
 15 16  1  0  0  0  0
 16 17  1  0  0  0  0
 17 18  2  0  0  0  0
 18 19  1  0  0  0  0
 19 20  1  0  0  0  0
 18 21  1  0  0  0  0
 21 22  2  0  0  0  0
 14 23  1  0  0  0  0
 23 24  1  0  0  0  0
 24 25  1  0  0  0  0
 25 26  2  0  0  0  0
 26 27  1  0  0  0  0
 27 28  1  0  0  0  0
 28 29  2  0  0  0  0
 29 30  1  0  0  0  0
 30 31  1  0  0  0  0
 29 32  1  0  0  0  0
 32 33  2  0  0  0  0
 25 34  1  0  0  0  0
 34 35  1  0  0  0  0
 35 36  1  0  0  0  0
 36 37  2  0  0  0  0
 37 38  1  0  0  0  0
 38 39  1  0  0  0  0
 39 40  2  0  0  0  0
 40 41  1  0  0  0  0
 41 42  1  0  0  0  0
 40 43  1  0  0  0  0
 43 44  1  0  0  0  0
 44 45  1  0  0  0  0
 43 46  2  0  0  0  0
 36 47  1  0  0  0  0
 47 48  1  0  0  0  0
 48 49  1  0  0  0  0
 49 50  2  0  0  0  0
 50 51  1  0  0  0  0
 51 52  1  0  0  0  0
 52 53  2  0  0  0  0
 53 54  1  0  0  0  0
 54 55  1  0  0  0  0
 53 56  1  0  0  0  0
 56 57  2  0  0  0  0
 49 58  1  0  0  0  0
 58 59  1  0  0  0  0
 59 60  1  0  0  0  0
 60 61  2  0  0  0  0
 61 62  1  0  0  0  0
 62 63  1  0  0  0  0
 63 64  2  0  0  0  0
 64 65  1  0  0  0  0
 65 66  1  0  0  0  0
 64 67  1  0  0  0  0
 67 68  2  0  0  0  0
  5  1  2  0  0  0  0
 16 12  2  0  0  0  0
 27 23  2  0  0  0  0
 38 34  2  0  0  0  0
 51 47  2  0  0  0  0
 62 58  2  0  0  0  0
 11  4  1  0  0  0  0
 22 15  1  0  0  0  0
 33 26  1  0  0  0  0
 46 37  1  0  0  0  0
 57 50  1  0  0  0  0
 68 61  1  0  0  0  0
  1 69  1  0  0  0  0
  6 70  1  0  0  0  0
  9 71  1  0  0  0  0
  9 72  1  0  0  0  0
  9 73  1  0  0  0  0
 10 74  1  0  0  0  0
 11 75  1  0  0  0  0
 17 76  1  0  0  0  0
 20 77  1  0  0  0  0
 20 78  1  0  0  0  0
 20 79  1  0  0  0  0
 21 80  1  0  0  0  0
 22 81  1  0  0  0  0
 28 82  1  0  0  0  0
 31 83  1  0  0  0  0
 31 84  1  0  0  0  0
 31 85  1  0  0  0  0
 32 86  1  0  0  0  0
 33 87  1  0  0  0  0
 39 88  1  0  0  0  0
 42 89  1  0  0  0  0
 42 90  1  0  0  0  0
 42 91  1  0  0  0  0
 45 92  1  0  0  0  0
 45 93  1  0  0  0  0
 45 94  1  0  0  0  0
 46 95  1  0  0  0  0
 52 96  1  0  0  0  0
 55 97  1  0  0  0  0
 55 98  1  0  0  0  0
 55 99  1  0  0  0  0
 56100  1  0  0  0  0
 57101  1  0  0  0  0
 60102  1  0  0  0  0
 63103  1  0  0  0  0
 66104  1  0  0  0  0
 66105  1  0  0  0  0
 66106  1  0  0  0  0
 67107  1  0  0  0  0
 68108  1  0  0  0  0
M  END
