
  xtb     03012223053D
 energy: -218.610111794374 gnorm: 0.000584452803 xtb: 6.4.1 (unknown)
128139  0     0  0            999 V2000
    7.5806    2.4041   -7.2180 C   0  0  0  0  0  0  0  0  0  0  0  0
    5.9473    1.9081   -7.0051 S   0  0  0  0  0  0  0  0  0  0  0  0
    6.0770    1.9220   -5.2777 C   0  0  0  0  0  0  0  0  0  0  0  0
    7.3677    2.2974   -4.9000 C   0  0  0  0  0  0  0  0  0  0  0  0
    8.2243    2.5752   -6.0148 C   0  0  0  0  0  0  0  0  0  0  0  0
    9.5081    2.9566   -5.8023 N   0  0  0  0  0  0  0  0  0  0  0  0
    9.9070    3.0307   -4.5602 C   0  0  0  0  0  0  0  0  0  0  0  0
   11.3360    3.4605   -4.3319 C   0  0  0  0  0  0  0  0  0  0  0  0
   12.0777    3.7816   -5.5320 N   0  0  0  0  0  0  0  0  0  0  0  0
    9.0499    2.7187   -3.4542 C   0  0  0  0  0  0  0  0  0  0  0  0
    9.5118    2.7664   -2.0202 C   0  0  0  0  0  0  0  0  0  0  0  0
    8.5061    2.3083   -1.0795 N   0  0  0  0  0  0  0  0  0  0  0  0
    7.7991    2.3693   -3.6355 N   0  0  0  0  0  0  0  0  0  0  0  0
    5.0355    1.5810   -4.4125 C   0  0  0  0  0  0  0  0  0  0  0  0
    5.2067    1.6780   -2.6783 S   0  0  0  0  0  0  0  0  0  0  0  0
    3.5879    1.0892   -2.3861 C   0  0  0  0  0  0  0  0  0  0  0  0
    2.9595    0.8340   -3.6197 C   0  0  0  0  0  0  0  0  0  0  0  0
    3.7639    1.1112   -4.7538 C   0  0  0  0  0  0  0  0  0  0  0  0
    3.3012    0.9035   -5.9969 N   0  0  0  0  0  0  0  0  0  0  0  0
    2.0794    0.4374   -6.1120 C   0  0  0  0  0  0  0  0  0  0  0  0
    1.5853    0.1678   -7.5034 C   0  0  0  0  0  0  0  0  0  0  0  0
    2.3538    0.8912   -8.4967 N   0  0  0  0  0  0  0  0  0  0  0  0
    1.2678    0.1565   -4.9686 C   0  0  0  0  0  0  0  0  0  0  0  0
   -0.1268   -0.4097   -5.0706 C   0  0  0  0  0  0  0  0  0  0  0  0
   -0.8471   -0.4692   -3.8146 N   0  0  0  0  0  0  0  0  0  0  0  0
    1.7175    0.3615   -3.7514 N   0  0  0  0  0  0  0  0  0  0  0  0
    2.9590    0.8411   -1.1685 C   0  0  0  0  0  0  0  0  0  0  0  0
    1.3728    0.1227   -1.2314 S   0  0  0  0  0  0  0  0  0  0  0  0
    1.2309    0.0838    0.5068 C   0  0  0  0  0  0  0  0  0  0  0  0
    2.3917    0.6052    1.1144 C   0  0  0  0  0  0  0  0  0  0  0  0
    3.3613    1.0410    0.1692 C   0  0  0  0  0  0  0  0  0  0  0  0
    4.5700    1.6044    0.6143 C   0  0  0  0  0  0  0  0  0  0  0  0
    4.8320    1.6849    1.9607 C   0  0  0  0  0  0  0  0  0  0  0  0
    5.9313    2.2276    2.5231 O   0  0  0  0  0  0  0  0  0  0  0  0
    6.8614    2.8982    1.7035 C   0  0  0  0  0  0  0  0  0  0  0  0
    3.8923    1.1574    2.9107 C   0  0  0  0  0  0  0  0  0  0  0  0
    4.3140    1.2197    4.1950 O   0  0  0  0  0  0  0  0  0  0  0  0
    3.4934    0.6840    5.2059 C   0  0  0  0  0  0  0  0  0  0  0  0
    2.6912    0.6493    2.4872 C   0  0  0  0  0  0  0  0  0  0  0  0
    0.0519   -0.4470    1.0411 C   0  0  0  0  0  0  0  0  0  0  0  0
   -0.9543   -1.4607    0.0140 S   0  0  0  0  0  0  0  0  0  0  0  0
   -2.1747   -1.6607    1.2273 C   0  0  0  0  0  0  0  0  0  0  0  0
   -1.8133   -0.9699    2.3938 C   0  0  0  0  0  0  0  0  0  0  0  0
   -0.5770   -0.2688    2.2878 C   0  0  0  0  0  0  0  0  0  0  0  0
   -0.1975    0.5466    3.2833 N   0  0  0  0  0  0  0  0  0  0  0  0
   -0.9467    0.5950    4.3611 C   0  0  0  0  0  0  0  0  0  0  0  0
   -0.5136    1.5940    5.4109 C   0  0  0  0  0  0  0  0  0  0  0  0
    0.2998    2.6815    4.9005 N   0  0  0  0  0  0  0  0  0  0  0  0
   -2.0908   -0.2388    4.5188 C   0  0  0  0  0  0  0  0  0  0  0  0
   -2.8700   -0.2999    5.8011 C   0  0  0  0  0  0  0  0  0  0  0  0
   -3.4872   -1.6013    5.9633 N   0  0  0  0  0  0  0  0  0  0  0  0
   -2.5291   -0.9730    3.5224 N   0  0  0  0  0  0  0  0  0  0  0  0
   -3.3299   -2.4116    1.0487 C   0  0  0  0  0  0  0  0  0  0  0  0
   -4.5726   -2.4996    2.2682 S   0  0  0  0  0  0  0  0  0  0  0  0
   -5.5445   -3.5727    1.3061 C   0  0  0  0  0  0  0  0  0  0  0  0
   -4.9181   -3.8516    0.0856 C   0  0  0  0  0  0  0  0  0  0  0  0
   -3.6715   -3.1889   -0.0701 C   0  0  0  0  0  0  0  0  0  0  0  0
   -2.9344   -3.3409   -1.1801 N   0  0  0  0  0  0  0  0  0  0  0  0
   -3.4231   -4.1278   -2.1111 C   0  0  0  0  0  0  0  0  0  0  0  0
   -2.5860   -4.3279   -3.3501 C   0  0  0  0  0  0  0  0  0  0  0  0
   -1.3762   -3.5410   -3.4204 N   0  0  0  0  0  0  0  0  0  0  0  0
   -4.6790   -4.7957   -1.9533 C   0  0  0  0  0  0  0  0  0  0  0  0
   -5.2378   -5.7046   -3.0198 C   0  0  0  0  0  0  0  0  0  0  0  0
   -6.5013   -6.3275   -2.6883 N   0  0  0  0  0  0  0  0  0  0  0  0
   -5.4075   -4.6553   -0.8717 N   0  0  0  0  0  0  0  0  0  0  0  0
   -6.7795   -4.0708    1.7283 C   0  0  0  0  0  0  0  0  0  0  0  0
   -7.6839   -5.2272    0.8057 S   0  0  0  0  0  0  0  0  0  0  0  0
   -8.9542   -5.2819    1.9587 C   0  0  0  0  0  0  0  0  0  0  0  0
   -8.7166   -4.4402    3.0206 C   0  0  0  0  0  0  0  0  0  0  0  0
   -7.4746   -3.7348    2.8930 C   0  0  0  0  0  0  0  0  0  0  0  0
   -7.0777   -2.8309    3.7987 N   0  0  0  0  0  0  0  0  0  0  0  0
   -7.8725   -2.6249    4.8206 C   0  0  0  0  0  0  0  0  0  0  0  0
   -7.4321   -1.5939    5.8198 C   0  0  0  0  0  0  0  0  0  0  0  0
   -6.6318   -0.5660    5.1836 N   0  0  0  0  0  0  0  0  0  0  0  0
   -9.0870   -3.3711    4.9879 C   0  0  0  0  0  0  0  0  0  0  0  0
   -9.9660   -3.1886    6.2037 C   0  0  0  0  0  0  0  0  0  0  0  0
  -11.1047   -4.0792    6.2702 N   0  0  0  0  0  0  0  0  0  0  0  0
   -9.4981   -4.2458    4.1095 N   0  0  0  0  0  0  0  0  0  0  0  0
    7.9753    2.5419   -8.2033 H   0  0  0  0  0  0  0  0  0  0  0  0
   11.8662    2.6580   -3.8058 H   0  0  0  0  0  0  0  0  0  0  0  0
   11.3418    4.3381   -3.6756 H   0  0  0  0  0  0  0  0  0  0  0  0
   11.6071    4.5318   -6.0284 H   0  0  0  0  0  0  0  0  0  0  0  0
   12.0706    2.9801   -6.1550 H   0  0  0  0  0  0  0  0  0  0  0  0
   10.4127    2.1567   -1.8996 H   0  0  0  0  0  0  0  0  0  0  0  0
    9.7775    3.7980   -1.7613 H   0  0  0  0  0  0  0  0  0  0  0  0
    7.6450    2.8120   -1.2754 H   0  0  0  0  0  0  0  0  0  0  0  0
    8.3008    1.3312   -1.2704 H   0  0  0  0  0  0  0  0  0  0  0  0
    1.6097   -0.9296   -7.6385 H   0  0  0  0  0  0  0  0  0  0  0  0
    0.5356    0.4738   -7.5886 H   0  0  0  0  0  0  0  0  0  0  0  0
    2.3581    0.4021   -9.3832 H   0  0  0  0  0  0  0  0  0  0  0  0
    3.3095    0.9954   -8.1715 H   0  0  0  0  0  0  0  0  0  0  0  0
   -0.7140    0.1794   -5.7821 H   0  0  0  0  0  0  0  0  0  0  0  0
   -0.0564   -1.4314   -5.4645 H   0  0  0  0  0  0  0  0  0  0  0  0
   -0.2551   -0.9126   -3.1184 H   0  0  0  0  0  0  0  0  0  0  0  0
   -1.0216    0.4714   -3.4742 H   0  0  0  0  0  0  0  0  0  0  0  0
    5.2826    1.9598   -0.1113 H   0  0  0  0  0  0  0  0  0  0  0  0
    6.3761    3.6793    1.1109 H   0  0  0  0  0  0  0  0  0  0  0  0
    7.5730    3.3558    2.3882 H   0  0  0  0  0  0  0  0  0  0  0  0
    7.3943    2.2156    1.0364 H   0  0  0  0  0  0  0  0  0  0  0  0
    4.0796    0.7504    6.1210 H   0  0  0  0  0  0  0  0  0  0  0  0
    3.2445   -0.3635    5.0082 H   0  0  0  0  0  0  0  0  0  0  0  0
    2.5743    1.2642    5.3241 H   0  0  0  0  0  0  0  0  0  0  0  0
    1.9568    0.2834    3.1829 H   0  0  0  0  0  0  0  0  0  0  0  0
    0.0730    1.0601    6.1711 H   0  0  0  0  0  0  0  0  0  0  0  0
   -1.3901    2.0171    5.9071 H   0  0  0  0  0  0  0  0  0  0  0  0
   -0.2762    3.3141    4.3543 H   0  0  0  0  0  0  0  0  0  0  0  0
    0.9932    2.3059    4.2592 H   0  0  0  0  0  0  0  0  0  0  0  0
   -2.2015   -0.1272    6.6515 H   0  0  0  0  0  0  0  0  0  0  0  0
   -3.5962    0.5367    5.7755 H   0  0  0  0  0  0  0  0  0  0  0  0
   -3.8402   -1.9236    5.0680 H   0  0  0  0  0  0  0  0  0  0  0  0
   -4.2511   -1.5625    6.6270 H   0  0  0  0  0  0  0  0  0  0  0  0
   -3.1947   -4.1129   -4.2344 H   0  0  0  0  0  0  0  0  0  0  0  0
   -2.3091   -5.3902   -3.3997 H   0  0  0  0  0  0  0  0  0  0  0  0
   -0.8705   -3.6288   -2.5439 H   0  0  0  0  0  0  0  0  0  0  0  0
   -1.6059   -2.5556   -3.5225 H   0  0  0  0  0  0  0  0  0  0  0  0
   -4.5084   -6.4944   -3.2327 H   0  0  0  0  0  0  0  0  0  0  0  0
   -5.3705   -5.1284   -3.9429 H   0  0  0  0  0  0  0  0  0  0  0  0
   -7.1886   -5.6091   -2.4821 H   0  0  0  0  0  0  0  0  0  0  0  0
   -6.3982   -6.8712   -1.8370 H   0  0  0  0  0  0  0  0  0  0  0  0
   -9.7996   -5.9196    1.8014 H   0  0  0  0  0  0  0  0  0  0  0  0
   -6.8980   -2.1370    6.6246 H   0  0  0  0  0  0  0  0  0  0  0  0
   -8.3044   -1.1159    6.2779 H   0  0  0  0  0  0  0  0  0  0  0  0
   -6.0348   -0.9887    4.4798 H   0  0  0  0  0  0  0  0  0  0  0  0
   -6.0600   -0.0781    5.8622 H   0  0  0  0  0  0  0  0  0  0  0  0
   -9.3614   -3.3335    7.1060 H   0  0  0  0  0  0  0  0  0  0  0  0
  -10.3408   -2.1587    6.2180 H   0  0  0  0  0  0  0  0  0  0  0  0
  -10.7818   -5.0418    6.2514 H   0  0  0  0  0  0  0  0  0  0  0  0
  -11.6751   -3.9549    5.4395 H   0  0  0  0  0  0  0  0  0  0  0  0
  1  2  1  0  0  0  0
  2  3  1  0  0  0  0
  3  4  2  0  0  0  0
  4  5  1  0  0  0  0
  5  6  1  0  0  0  0
  6  7  2  0  0  0  0
  7  8  1  0  0  0  0
  8  9  1  0  0  0  0
  7 10  1  0  0  0  0
 10 11  1  0  0  0  0
 11 12  1  0  0  0  0
 10 13  2  0  0  0  0
  3 14  1  0  0  0  0
 14 15  1  0  0  0  0
 15 16  1  0  0  0  0
 16 17  2  0  0  0  0
 17 18  1  0  0  0  0
 18 19  1  0  0  0  0
 19 20  2  0  0  0  0
 20 21  1  0  0  0  0
 21 22  1  0  0  0  0
 20 23  1  0  0  0  0
 23 24  1  0  0  0  0
 24 25  1  0  0  0  0
 23 26  2  0  0  0  0
 16 27  1  0  0  0  0
 27 28  1  0  0  0  0
 28 29  1  0  0  0  0
 29 30  2  0  0  0  0
 30 31  1  0  0  0  0
 31 32  1  0  0  0  0
 32 33  2  0  0  0  0
 33 34  1  0  0  0  0
 34 35  1  0  0  0  0
 33 36  1  0  0  0  0
 36 37  1  0  0  0  0
 37 38  1  0  0  0  0
 36 39  2  0  0  0  0
 29 40  1  0  0  0  0
 40 41  1  0  0  0  0
 41 42  1  0  0  0  0
 42 43  2  0  0  0  0
 43 44  1  0  0  0  0
 44 45  1  0  0  0  0
 45 46  2  0  0  0  0
 46 47  1  0  0  0  0
 47 48  1  0  0  0  0
 46 49  1  0  0  0  0
 49 50  1  0  0  0  0
 50 51  1  0  0  0  0
 49 52  2  0  0  0  0
 42 53  1  0  0  0  0
 53 54  1  0  0  0  0
 54 55  1  0  0  0  0
 55 56  2  0  0  0  0
 56 57  1  0  0  0  0
 57 58  1  0  0  0  0
 58 59  2  0  0  0  0
 59 60  1  0  0  0  0
 60 61  1  0  0  0  0
 59 62  1  0  0  0  0
 62 63  1  0  0  0  0
 63 64  1  0  0  0  0
 62 65  2  0  0  0  0
 55 66  1  0  0  0  0
 66 67  1  0  0  0  0
 67 68  1  0  0  0  0
 68 69  2  0  0  0  0
 69 70  1  0  0  0  0
 70 71  1  0  0  0  0
 71 72  2  0  0  0  0
 72 73  1  0  0  0  0
 73 74  1  0  0  0  0
 72 75  1  0  0  0  0
 75 76  1  0  0  0  0
 76 77  1  0  0  0  0
 75 78  2  0  0  0  0
  5  1  2  0  0  0  0
 18 14  2  0  0  0  0
 31 27  2  0  0  0  0
 44 40  2  0  0  0  0
 57 53  2  0  0  0  0
 70 66  2  0  0  0  0
 13  4  1  0  0  0  0
 26 17  1  0  0  0  0
 39 30  1  0  0  0  0
 52 43  1  0  0  0  0
 65 56  1  0  0  0  0
 78 69  1  0  0  0  0
  1 79  1  0  0  0  0
  8 80  1  0  0  0  0
  8 81  1  0  0  0  0
  9 82  1  0  0  0  0
  9 83  1  0  0  0  0
 11 84  1  0  0  0  0
 11 85  1  0  0  0  0
 12 86  1  0  0  0  0
 12 87  1  0  0  0  0
 21 88  1  0  0  0  0
 21 89  1  0  0  0  0
 22 90  1  0  0  0  0
 22 91  1  0  0  0  0
 24 92  1  0  0  0  0
 24 93  1  0  0  0  0
 25 94  1  0  0  0  0
 25 95  1  0  0  0  0
 32 96  1  0  0  0  0
 35 97  1  0  0  0  0
 35 98  1  0  0  0  0
 35 99  1  0  0  0  0
 38100  1  0  0  0  0
 38101  1  0  0  0  0
 38102  1  0  0  0  0
 39103  1  0  0  0  0
 47104  1  0  0  0  0
 47105  1  0  0  0  0
 48106  1  0  0  0  0
 48107  1  0  0  0  0
 50108  1  0  0  0  0
 50109  1  0  0  0  0
 51110  1  0  0  0  0
 51111  1  0  0  0  0
 60112  1  0  0  0  0
 60113  1  0  0  0  0
 61114  1  0  0  0  0
 61115  1  0  0  0  0
 63116  1  0  0  0  0
 63117  1  0  0  0  0
 64118  1  0  0  0  0
 64119  1  0  0  0  0
 68120  1  0  0  0  0
 73121  1  0  0  0  0
 73122  1  0  0  0  0
 74123  1  0  0  0  0
 74124  1  0  0  0  0
 76125  1  0  0  0  0
 76126  1  0  0  0  0
 77127  1  0  0  0  0
 77128  1  0  0  0  0
M  END
