
  xtb     03072214493D
 energy: -160.826202898521 gnorm: 0.000766656063 xtb: 6.4.1 (unknown)
 88 94  0     0  0            999 V2000
   -0.4446   -3.3352    5.7846 S   0  0  0  0  0  0  0  0  0  0  0  0
    0.9927   -3.3344    4.7691 C   0  0  0  0  0  0  0  0  0  0  0  0
    1.5326   -4.4661    4.2429 C   0  0  0  0  0  0  0  0  0  0  0  0
    2.9152   -4.1401    3.2771 S   0  0  0  0  0  0  0  0  0  0  0  0
    2.7932   -2.4647    3.6042 C   0  0  0  0  0  0  0  0  0  0  0  0
    1.7237   -2.1697    4.3921 C   0  0  0  0  0  0  0  0  0  0  0  0
    1.3102   -0.5353    4.9368 S   0  0  0  0  0  0  0  0  0  0  0  0
    1.3333    0.3247    3.4137 C   0  0  0  0  0  0  0  0  0  0  0  0
    0.9533    1.5929    3.3150 C   0  0  0  0  0  0  0  0  0  0  0  0
    1.0735    2.4366    1.7714 S   0  0  0  0  0  0  0  0  0  0  0  0
   -0.4696    3.2915    1.6850 C   0  0  0  0  0  0  0  0  0  0  0  0
   -0.5459    4.4903    1.0413 C   0  0  0  0  0  0  0  0  0  0  0  0
   -2.1431    5.1020    0.9511 S   0  0  0  0  0  0  0  0  0  0  0  0
   -2.7350    3.7390    1.8015 C   0  0  0  0  0  0  0  0  0  0  0  0
   -1.7527    2.8521    2.1292 C   0  0  0  0  0  0  0  0  0  0  0  0
   -2.1386    1.4556    3.1446 S   0  0  0  0  0  0  0  0  0  0  0  0
   -1.5196    0.1129    2.1952 C   0  0  0  0  0  0  0  0  0  0  0  0
   -1.4439   -1.1058    2.7171 C   0  0  0  0  0  0  0  0  0  0  0  0
   -0.7969   -2.4798    1.8403 S   0  0  0  0  0  0  0  0  0  0  0  0
   -1.7654   -3.7806    2.5299 C   0  0  0  0  0  0  0  0  0  0  0  0
   -2.9276   -3.6342    3.2205 C   0  0  0  0  0  0  0  0  0  0  0  0
   -3.5338   -5.1363    3.7997 S   0  0  0  0  0  0  0  0  0  0  0  0
   -2.2407   -5.9850    3.0571 C   0  0  0  0  0  0  0  0  0  0  0  0
   -1.3814   -5.1509    2.4147 C   0  0  0  0  0  0  0  0  0  0  0  0
    0.0484   -5.7217    1.5509 S   0  0  0  0  0  0  0  0  0  0  0  0
   -0.1826   -4.8497    0.0425 C   0  0  0  0  0  0  0  0  0  0  0  0
    0.8199   -4.5014   -0.7560 C   0  0  0  0  0  0  0  0  0  0  0  0
    2.5061   -4.8227   -0.3872 S   0  0  0  0  0  0  0  0  0  0  0  0
    3.2276   -3.7835   -1.6289 C   0  0  0  0  0  0  0  0  0  0  0  0
    3.3144   -4.1198   -2.9409 C   0  0  0  0  0  0  0  0  0  0  0  0
    4.0200   -2.8667   -3.8824 S   0  0  0  0  0  0  0  0  0  0  0  0
    4.2255   -1.8815   -2.4848 C   0  0  0  0  0  0  0  0  0  0  0  0
    3.7617   -2.4892   -1.3616 C   0  0  0  0  0  0  0  0  0  0  0  0
    3.8088   -1.8353    0.2708 S   0  0  0  0  0  0  0  0  0  0  0  0
    4.0527   -0.1156   -0.0577 C   0  0  0  0  0  0  0  0  0  0  0  0
    3.1127    0.6989   -0.5615 C   0  0  0  0  0  0  0  0  0  0  0  0
    1.7697    0.3892   -0.8974 C   0  0  0  0  0  0  0  0  0  0  0  0
    1.0848   -1.1956   -0.7072 S   0  0  0  0  0  0  0  0  0  0  0  0
   -0.4916   -0.6334   -1.0969 C   0  0  0  0  0  0  0  0  0  0  0  0
   -0.5216    0.7327   -1.3337 C   0  0  0  0  0  0  0  0  0  0  0  0
    0.7840    1.3056   -1.2788 C   0  0  0  0  0  0  0  0  0  0  0  0
    0.9430    2.6736   -1.5859 C   0  0  0  0  0  0  0  0  0  0  0  0
   -0.1478    3.4413   -1.8807 C   0  0  0  0  0  0  0  0  0  0  0  0
   -0.1187    4.7567   -2.2079 O   0  0  0  0  0  0  0  0  0  0  0  0
    1.1312    5.3856   -2.3426 C   0  0  0  0  0  0  0  0  0  0  0  0
   -1.4739    2.8768   -1.8435 C   0  0  0  0  0  0  0  0  0  0  0  0
   -2.4672    3.7695   -2.0771 O   0  0  0  0  0  0  0  0  0  0  0  0
   -3.7941    3.3076   -2.0471 C   0  0  0  0  0  0  0  0  0  0  0  0
   -1.6479    1.5494   -1.5853 C   0  0  0  0  0  0  0  0  0  0  0  0
   -1.8363   -1.7546   -1.1434 S   0  0  0  0  0  0  0  0  0  0  0  0
   -2.6148   -1.2337   -2.6474 C   0  0  0  0  0  0  0  0  0  0  0  0
   -3.9683   -1.1238   -2.7415 C   0  0  0  0  0  0  0  0  0  0  0  0
   -4.4797   -0.6100   -4.3005 S   0  0  0  0  0  0  0  0  0  0  0  0
   -2.8534   -0.5471   -4.8422 C   0  0  0  0  0  0  0  0  0  0  0  0
   -1.9668   -0.9117   -3.8784 C   0  0  0  0  0  0  0  0  0  0  0  0
   -0.2253   -0.9144   -4.1939 S   0  0  0  0  0  0  0  0  0  0  0  0
    0.1631   -2.6262   -4.1415 C   0  0  0  0  0  0  0  0  0  0  0  0
   -0.6720   -3.6361   -3.9719 C   0  0  0  0  0  0  0  0  0  0  0  0
   -0.4070   -2.0212    6.0154 H   0  0  0  0  0  0  0  0  0  0  0  0
    1.1799   -5.4709    4.3555 H   0  0  0  0  0  0  0  0  0  0  0  0
    3.5117   -1.7871    3.1885 H   0  0  0  0  0  0  0  0  0  0  0  0
    1.6762   -0.2500    2.5683 H   0  0  0  0  0  0  0  0  0  0  0  0
    0.6094    2.1804    4.1507 H   0  0  0  0  0  0  0  0  0  0  0  0
    0.2658    5.0456    0.6194 H   0  0  0  0  0  0  0  0  0  0  0  0
   -3.7761    3.6545    2.0408 H   0  0  0  0  0  0  0  0  0  0  0  0
   -1.2180    0.3577    1.1909 H   0  0  0  0  0  0  0  0  0  0  0  0
   -1.7395   -1.3118    3.7334 H   0  0  0  0  0  0  0  0  0  0  0  0
   -3.4669   -2.7359    3.4411 H   0  0  0  0  0  0  0  0  0  0  0  0
   -2.1737   -7.0507    3.1386 H   0  0  0  0  0  0  0  0  0  0  0  0
   -1.2090   -4.6482   -0.2176 H   0  0  0  0  0  0  0  0  0  0  0  0
    0.6436   -4.0069   -1.6974 H   0  0  0  0  0  0  0  0  0  0  0  0
    2.9920   -5.0295   -3.4068 H   0  0  0  0  0  0  0  0  0  0  0  0
    4.6649   -0.9096   -2.5815 H   0  0  0  0  0  0  0  0  0  0  0  0
    5.0179    0.2574    0.2428 H   0  0  0  0  0  0  0  0  0  0  0  0
    3.3875    1.7366   -0.7004 H   0  0  0  0  0  0  0  0  0  0  0  0
    1.9335    3.0958   -1.5857 H   0  0  0  0  0  0  0  0  0  0  0  0
    0.9136    6.4125   -2.6311 H   0  0  0  0  0  0  0  0  0  0  0  0
    1.6914    5.3850   -1.4010 H   0  0  0  0  0  0  0  0  0  0  0  0
    1.7373    4.9091   -3.1199 H   0  0  0  0  0  0  0  0  0  0  0  0
   -4.0530    2.8953   -1.0658 H   0  0  0  0  0  0  0  0  0  0  0  0
   -3.9744    2.5491   -2.8166 H   0  0  0  0  0  0  0  0  0  0  0  0
   -4.4136    4.1799   -2.2467 H   0  0  0  0  0  0  0  0  0  0  0  0
   -2.6292    1.1057   -1.5511 H   0  0  0  0  0  0  0  0  0  0  0  0
   -4.6892   -1.3180   -1.9734 H   0  0  0  0  0  0  0  0  0  0  0  0
   -2.6292   -0.2496   -5.8467 H   0  0  0  0  0  0  0  0  0  0  0  0
    1.2238   -2.7589   -4.2886 H   0  0  0  0  0  0  0  0  0  0  0  0
   -0.3152   -4.6511   -3.9709 H   0  0  0  0  0  0  0  0  0  0  0  0
   -1.7305   -3.4996   -3.8319 H   0  0  0  0  0  0  0  0  0  0  0  0
  1  2  1  0  0  0  0
  2  3  2  0  0  0  0
  3  4  1  0  0  0  0
  4  5  1  0  0  0  0
  5  6  2  0  0  0  0
  6  7  1  0  0  0  0
  7  8  1  0  0  0  0
  8  9  2  0  0  0  0
  9 10  1  0  0  0  0
 10 11  1  0  0  0  0
 11 12  2  0  0  0  0
 12 13  1  0  0  0  0
 13 14  1  0  0  0  0
 14 15  2  0  0  0  0
 15 16  1  0  0  0  0
 16 17  1  0  0  0  0
 17 18  2  0  0  0  0
 18 19  1  0  0  0  0
 19 20  1  0  0  0  0
 20 21  2  0  0  0  0
 21 22  1  0  0  0  0
 22 23  1  0  0  0  0
 23 24  2  0  0  0  0
 24 25  1  0  0  0  0
 25 26  1  0  0  0  0
 26 27  2  0  0  0  0
 27 28  1  0  0  0  0
 28 29  1  0  0  0  0
 29 30  2  0  0  0  0
 30 31  1  0  0  0  0
 31 32  1  0  0  0  0
 32 33  2  0  0  0  0
 33 34  1  0  0  0  0
 34 35  1  0  0  0  0
 35 36  2  0  0  0  0
 36 37  1  0  0  0  0
 37 38  1  0  0  0  0
 38 39  1  0  0  0  0
 39 40  2  0  0  0  0
 40 41  1  0  0  0  0
 41 42  1  0  0  0  0
 42 43  2  0  0  0  0
 43 44  1  0  0  0  0
 44 45  1  0  0  0  0
 43 46  1  0  0  0  0
 46 47  1  0  0  0  0
 47 48  1  0  0  0  0
 46 49  2  0  0  0  0
 39 50  1  0  0  0  0
 50 51  1  0  0  0  0
 51 52  2  0  0  0  0
 52 53  1  0  0  0  0
 53 54  1  0  0  0  0
 54 55  2  0  0  0  0
 55 56  1  0  0  0  0
 56 57  1  0  0  0  0
 57 58  2  0  0  0  0
  6  2  1  0  0  0  0
 15 11  1  0  0  0  0
 24 20  1  0  0  0  0
 33 29  1  0  0  0  0
 41 37  2  0  0  0  0
 55 51  1  0  0  0  0
 49 40  1  0  0  0  0
  1 59  1  0  0  0  0
  3 60  1  0  0  0  0
  5 61  1  0  0  0  0
  8 62  1  0  0  0  0
  9 63  1  0  0  0  0
 12 64  1  0  0  0  0
 14 65  1  0  0  0  0
 17 66  1  0  0  0  0
 18 67  1  0  0  0  0
 21 68  1  0  0  0  0
 23 69  1  0  0  0  0
 26 70  1  0  0  0  0
 27 71  1  0  0  0  0
 30 72  1  0  0  0  0
 32 73  1  0  0  0  0
 35 74  1  0  0  0  0
 36 75  1  0  0  0  0
 42 76  1  0  0  0  0
 45 77  1  0  0  0  0
 45 78  1  0  0  0  0
 45 79  1  0  0  0  0
 48 80  1  0  0  0  0
 48 81  1  0  0  0  0
 48 82  1  0  0  0  0
 49 83  1  0  0  0  0
 52 84  1  0  0  0  0
 54 85  1  0  0  0  0
 57 86  1  0  0  0  0
 58 87  1  0  0  0  0
 58 88  1  0  0  0  0
M  END
