157

C         12.02200       -5.29770        0.28830
S         11.23730       -4.01240        1.09440
C          9.69210       -4.38310        0.37140
C          9.82560       -5.48670       -0.48220
C         11.16120       -6.00180       -0.51920
C         11.47410       -7.12010       -1.33210
C         10.50250       -7.69670       -2.09390
O         10.66570       -8.76810       -2.91090
C         11.94330       -9.34640       -2.99800
C          9.16490       -7.15680       -2.08910
O          8.30490       -7.80230       -2.91750
C          6.98320       -7.33350       -3.00620
C          8.84640       -6.08420       -1.30460
C          8.52850       -3.65920        0.72290
S          6.95780       -4.38090        0.53000
C          6.10910       -3.01120        1.19520
C          7.04000       -2.02820        1.57340
C          8.39280       -2.38930        1.30310
C          9.42350       -1.46600        1.57960
C          9.13650       -0.25310        2.14040
O         10.04610        0.70810        2.43750
C         11.39990        0.45260        2.15730
C          7.77990        0.08520        2.47040
O          7.62480        1.29950        3.04990
C          6.32120        1.73060        3.35810
C          6.76670       -0.78920        2.18690
C          4.70080       -2.96380        1.17680
S          3.85350       -1.44970        1.30240
C          2.29890       -2.16630        1.00570
C          2.43040       -3.54810        0.81620
C          3.77680       -4.00100        0.94610
C          4.04970       -5.38200        0.86580
C          3.05160       -6.27480        0.58890
O          3.20630       -7.62020        0.49610
C          4.48150       -8.16150        0.73150
C          1.71350       -5.80810        0.35850
O          0.82240       -6.77820        0.03660
C         -0.51430       -6.40930       -0.19740
C          1.42200       -4.47830        0.48490
C          1.16460       -1.32090        0.96880
C         -0.16960       -1.62810        0.92370
C         -1.01930       -0.50650        0.80340
C         -2.42270       -0.50590        0.70130
C         -3.18120       -1.75920        0.63260
C         -2.82410       -2.76440       -0.26630
C         -3.55370       -3.93080       -0.34340
C         -4.65760       -4.14960        0.47830
S         -5.49640       -5.69960        0.31660
C         -7.26740       -5.25290        0.44970
C         -7.67130       -4.21010       -0.57300
C         -4.98740       -3.15010        1.38800
F         -6.01790       -3.31070        2.24710
C         -4.28130       -1.96640        1.45750
C         -3.04100        0.73030        0.62830
C         -2.32810        1.95350        0.65960
C         -0.92590        1.95390        0.79320
C         -0.19190        3.21540        0.93310
C         -0.62600        4.17710        1.84760
C          0.04730        5.36890        1.99060
C          1.18590        5.65540        1.23600
S          1.96070        7.21170        1.54190
C          2.79230        7.63520       -0.04080
C          3.02750        9.13240       -0.07950
C          1.62890        4.67360        0.35540
C          0.95400        3.47990        0.19250
F          2.74910        4.85500       -0.38140
C         -0.30370        0.71710        0.82390
S          1.41240        0.42590        0.93800
C         -3.17390        3.06890        0.46090
C         -4.49580        2.74870        0.30650
S         -4.74840        1.00740        0.40010
C         -5.60460        3.59260        0.04940
S         -7.03240        2.91340       -0.66160
C         -7.83890        4.44670       -0.79130
C         -7.01330        5.45830       -0.26620
C         -5.76190        4.97110        0.21960
C         -4.86450        5.86520        0.83380
C         -5.13340        7.20630        0.91320
O         -4.28740        8.10120        1.50890
C         -3.06980        7.63530        2.03620
C         -6.35010        7.71420        0.35050
O         -6.74400        9.01550        0.31100
C         -5.92540       10.06680        0.76990
C         -7.25520        6.83990       -0.20350
C         -9.14710        4.52790       -1.32460
S        -10.15500        5.91810       -1.02410
C        -11.47800        5.26000       -1.87420
C        -11.19190        4.01600       -2.39110
C         -9.86250        3.58530       -2.08090
C         -9.43740        2.33560       -2.56910
C        -10.27120        1.53150       -3.30270
O         -9.89670        0.29750       -3.75830
C         -8.61480       -0.18460       -3.43730
C        -11.60550        1.96670       -3.61550
O        -12.53410        1.26380       -4.32090
C        -12.18340        0.15870       -5.12340
C        -12.03220        3.18630       -3.16090
H         13.06880       -5.46080        0.44690
H         12.48820       -7.48450       -1.32620
H         12.27810       -9.72960       -2.02830
H         11.84530      -10.17370       -3.69890
H         12.68190       -8.63330       -3.37920
H          6.46960       -7.38890       -2.04030
H          6.48500       -7.99030       -3.71720
H          6.94440       -6.30280       -3.37350
H          7.85290       -5.67220       -1.32170
H         10.43600       -1.72480        1.32620
H         11.56670        0.29910        1.08590
H         11.93950        1.34030        2.48310
H         11.76690       -0.41980        2.70780
H          5.84900        1.08220        4.10330
H          5.68940        1.77270        2.46520
H          6.43360        2.73170        3.77060
H          5.75190       -0.54370        2.44280
H          5.05070       -5.72800        1.05090
H          5.22040       -7.77990        0.01850
H          4.82620       -7.95260        1.74950
H          4.37380       -9.23660        0.59920
H         -1.03880       -7.33410       -0.43100
H         -0.59740       -5.72060       -1.04490
H         -0.97020       -5.95110        0.68670
H          0.42190       -4.12760        0.31180
H         -0.55770       -2.62220        1.02630
H         -1.98920       -2.60900       -0.93300
H         -3.28520       -4.70080       -1.05030
H         -7.47440       -4.92750        1.46690
H         -7.77620       -6.19980        0.26900
H         -7.42700       -4.54640       -1.57870
H         -7.15940       -3.26700       -0.38990
H         -8.74350       -4.03550       -0.51180
H         -4.58180       -1.22520        2.18140
H         -1.49010        3.97310        2.46190
H         -0.29140        6.10900        2.69970
H          2.13390        7.31850       -0.84820
H          3.73200        7.08770       -0.09350
H          2.08360        9.67000       -0.02140
H          3.65190        9.44190        0.75560
H          3.52780        9.40100       -1.00730
H          1.33430        2.76690       -0.52170
H         -2.79110        4.06520        0.34770
H         -3.96670        5.46710        1.27080
H         -3.22980        6.92230        2.85120
H         -2.44530        7.17300        1.26480
H         -2.56560        8.51880        2.42510
H         -5.74030        9.99960        1.84390
H         -4.97100       10.10060        0.24010
H         -6.49040       10.97410        0.55560
H         -8.15930        7.26590       -0.60250
H        -12.38920        5.81690       -1.95580
H         -8.43460        2.00940       -2.36220
H         -7.82770        0.44080       -3.86980
H         -8.46910       -0.25360       -2.35490
H         -8.56340       -1.18090       -3.87420
H        -11.36440        0.39690       -5.80570
H        -13.08110       -0.06540       -5.70030
H        -11.91140       -0.71160       -4.52260
H        -13.03300        3.50690       -3.40080
