191

C          5.88080      -10.38540       12.43730
S          4.92180      -10.03510       11.07100
C          5.81420       -8.58150       10.72330
C          6.83210       -8.40050       11.66000
C          6.86090       -9.44260       12.64300
C          7.83030       -9.41820       13.67730
C          8.74170       -8.40620       13.72700
O          9.71570       -8.26070       14.65920
C          9.80920       -9.22340       15.67880
C          8.72860       -7.36630       12.72380
O          9.69870       -6.43530       12.87620
C          9.77370       -5.38920       11.93710
C          7.79590       -7.37140       11.72590
C          5.42680       -7.79300        9.60750
C          4.50710       -8.12790        8.65020
C          4.30430       -7.13070        7.67010
C          3.40580       -7.13700        6.58890
C          2.47080       -8.22870        6.37810
S          2.34150       -9.01530        4.83290
C          1.08020      -10.06440        5.38390
C          0.43090      -11.02930        4.45480
C         -0.50460      -10.30490        3.48400
C          0.78520       -9.80460        6.68870
Cl        -0.42150      -10.63430        7.58410
C          1.57410       -8.76850        7.25770
Cl         1.34020       -8.20910        8.86360
C          3.43100       -6.03750        5.74130
C          4.28790       -4.92730        5.93310
C          5.17110       -4.90790        7.02920
C          6.03320       -3.76620        7.28530
S          5.37520       -2.15630        7.36000
C          6.91390       -1.45440        7.72560
C          7.07220        0.01920        7.86660
C          7.14610        0.69240        6.49390
C          7.87180       -2.42160        7.77690
C          7.37770       -3.73150        7.53230
Cl         8.41670       -5.09270        7.46410
Cl         9.52730       -2.11540        8.11240
C          5.14930       -6.01000        7.87110
S          6.09920       -6.19960        9.31360
C          4.11160       -3.94470        4.92980
C          3.13900       -4.25790        4.02670
S          2.39930       -5.81170        4.35770
C          2.69340       -3.48730        2.91610
C          1.65560       -3.77130        2.07820
C          1.45840       -2.80040        1.06880
C          0.46830       -2.77700        0.06690
C         -0.43530       -3.89810       -0.11790
S         -2.15420       -3.67080       -0.25080
C         -2.44360       -5.36600       -0.43850
C         -3.82490       -5.90820       -0.55970
C         -4.40760       -6.23600        0.81720
C         -1.26830       -6.05490       -0.39470
Cl        -1.15510       -7.76070       -0.54180
C         -0.12700       -5.22770       -0.22210
Cl         1.47070       -5.85680       -0.24280
C          0.40970       -1.64460       -0.73110
C          1.32760       -0.57210       -0.61370
C          2.33840       -0.61080        0.36510
C          3.28880        0.48190        0.48890
S          5.00340        0.20130        0.40710
C          5.36540        1.88830        0.53560
C          6.76410        2.39300        0.45900
C          7.13530        2.75190       -0.98220
C          4.21540        2.61290        0.63600
C          3.03740        1.82020        0.61940
Cl         1.47010        2.49750        0.82260
Cl         4.17310        4.32510        0.76580
C          2.37950       -1.73050        1.18200
S          3.48560       -1.97870        2.50380
C          1.09750        0.43710       -1.57240
C          0.02740        0.19650       -2.39170
S         -0.72720       -1.35130       -2.01560
C         -0.54900        1.01340       -3.39500
S         -2.14690        0.62850       -3.94550
C         -2.25320        2.02700       -4.97330
C         -1.03890        2.74150       -4.92030
C         -0.08300        2.17340       -4.02590
C          1.17590        2.79120       -3.87320
C          1.47110        3.94910       -4.53820
O          2.63170        4.63830       -4.42940
C          3.58790        4.19680       -3.49620
C          0.51600        4.51300       -5.45050
O          0.92440        5.64320       -6.07560
C          0.04320        6.26240       -6.98100
C         -0.69310        3.90140       -5.64200
C         -3.46250        2.35840       -5.61980
S         -3.69510        3.94360       -6.29960
C         -5.35630        3.65000       -6.70930
C         -5.71950        2.35070       -6.34540
C         -4.65330        1.61630       -5.74420
C         -4.87970        0.27850       -5.36310
C         -6.11350       -0.29300       -5.52070
O         -6.43280       -1.56260       -5.17600
C         -5.44000       -2.36660       -4.58510
C         -7.19450        0.46250       -6.09310
O         -8.36940       -0.20370       -6.18180
C         -9.48070        0.47770       -6.71190
C         -6.98410        1.74850       -6.50610
C         -6.07820        4.71130       -7.30470
C         -5.55230        5.93240       -7.64100
C         -6.48910        6.84150       -8.17570
C         -6.26510        8.15250       -8.63220
C         -4.94120        8.74950       -8.59080
S         -4.00720        8.79300       -7.12230
C         -2.68980        9.61360       -7.88750
C         -1.48490       10.03390       -7.12010
C         -1.66850       11.43890       -6.54090
C         -2.97450        9.83950       -9.20070
Cl        -1.90310       10.62470      -10.28670
C         -4.24570        9.34940       -9.60400
Cl        -4.78790        9.43440      -11.22720
C         -7.37030        8.85000       -9.10770
C         -8.66700        8.28740       -9.17570
C         -8.87660        6.95580       -8.77710
C        -10.17620        6.31870       -8.90700
S        -10.92050        5.48780       -7.57350
C        -12.30060        5.04310       -8.51890
C        -13.38830        4.20520       -7.94330
C        -12.99560        2.72580       -7.94600
C        -12.17130        5.50790       -9.79320
C        -10.97100        6.23540      -10.01630
Cl       -10.54570        6.86280      -11.55670
Cl       -13.33520        5.25380      -11.02870
C         -7.78420        6.27630       -8.26030
S         -7.79320        4.63540       -7.67600
C         -9.63090        9.24030       -9.61470
C         -9.09170       10.44930       -9.87330
S         -7.38500       10.51770       -9.60570
H          5.67700      -11.26300       13.01760
H          7.81920      -10.21340       14.40460
H         10.01720      -10.21910       15.27320
H         10.64120       -8.90810       16.30610
H          8.89480       -9.26150       16.28010
H         10.61740       -4.77570       12.24820
H          9.95270       -5.76840       10.92610
H          8.86230       -4.78270       11.93730
H          7.79220       -6.59950       10.97740
H          4.00310       -9.07710        8.64590
H         -0.13410      -11.75470        5.04250
H          1.19770      -11.56040        3.88720
H         -1.28520       -9.78230        4.03140
H         -0.96970      -11.01890        2.80970
H          0.05200       -9.57930        2.89550
H          7.98760        0.22070        8.42530
H          6.22520        0.42460        8.42310
H          6.23710        0.49860        5.92910
H          7.99350        0.30870        5.93110
H          7.26260        1.76640        6.61070
H          4.67870       -3.03340        4.87090
H          1.03780       -4.64130        2.20580
H         -4.45820       -5.17290       -1.05860
H         -3.79400       -6.81530       -1.16650
H         -4.44680       -5.34060        1.43290
H         -3.79150       -6.97720        1.31970
H         -5.41380       -6.63230        0.71180
H          6.85430        3.28070        1.08820
H          7.44520        1.62730        0.83250
H          7.05390        1.87650       -1.62180
H          6.46970        3.52350       -1.36130
H          8.15650        3.12060       -1.02360
H          1.69000        1.32770       -1.61370
H          1.91120        2.33080       -3.24030
H          3.17530        4.16740       -2.48230
H          4.39450        4.92680       -3.53610
H          3.98220        3.20870       -3.75660
H          0.55890        7.15640       -7.32710
H         -0.89740        6.54610       -6.49730
H         -0.17380        5.61580       -7.83720
H         -1.38400        4.29870       -6.36190
H         -4.06900       -0.29900       -4.95810
H         -5.06740       -1.92800       -3.65380
H         -5.92450       -3.31770       -4.37090
H         -4.59920       -2.53340       -5.26580
H         -9.72350        1.36690       -6.12080
H        -10.30820       -0.22810       -6.66440
H         -9.31300        0.77230       -7.75290
H         -7.77590        2.32090       -6.95590
H         -4.51200        6.16320       -7.50190
H         -1.30530        9.32690       -6.30890
H         -0.62300       10.02770       -7.79040
H         -0.78090       11.73290       -5.98750
H         -1.83560       12.15650       -7.33990
H         -2.52310       11.46110       -5.86900
H        -13.58960        4.52450       -6.91920
H        -14.29180        4.34690       -8.53880
H        -12.09400        2.57390       -7.35710
H        -13.79630        2.12600       -7.52200
H        -12.80750        2.38830       -8.96200
H        -10.67880        9.02370       -9.70870
H         -9.59200       11.33520      -10.21230
