191

C          6.57270       -8.92620        9.48850
C          5.58290       -8.54040       10.31990
C          4.50640       -7.90200        9.63910
C          3.34880       -7.32530       10.18840
C          3.06090       -7.38250       11.61290
S          3.01970       -8.90150       12.46020
C          2.55470       -8.15190       13.94940
C          2.37910       -8.94780       15.19540
C          3.71380       -9.12980       15.92220
C          2.45480       -6.80310       13.78620
Cl         2.01770       -5.71680       15.04160
C          2.73600       -6.36360       12.46460
Cl         2.74330       -4.70270       12.04000
C          2.47490       -6.70840        9.30480
C          2.70330       -6.64150        7.90880
C          3.86050       -7.21960        7.35880
C          4.11450       -7.16180        5.92900
S          4.09980       -5.64560        5.07470
C          4.44750       -6.40290        3.55710
C          4.52060       -5.60440        2.30270
C          3.12820       -5.15410        1.85500
C          4.56360       -7.75050        3.72010
C          4.38150       -8.18390        5.06180
Cl         4.40700       -9.83980        5.50150
Cl         4.89680       -8.84670        2.44220
C          4.73870       -7.83360        8.24460
S          6.26970       -8.54970        7.82900
C          1.64720       -5.99270        7.23280
C          0.63970       -5.55560        8.05170
S          0.95730       -5.96910        9.72620
C         -0.50690       -4.83600        7.63130
S         -0.72550       -4.58340        5.92600
C         -2.17680       -3.66230        6.15670
C         -2.45740       -3.52010        7.51790
C         -1.52430       -4.20630        8.35350
C         -1.68090       -4.14860        9.75470
C         -2.68860       -3.40820       10.30660
O         -2.92400       -3.27810       11.63270
C         -2.05510       -3.92730       12.53050
C         -3.58470       -2.65830        9.46340
O         -4.50320       -1.92150       10.13720
C         -5.37270       -1.10080        9.39870
C         -3.46130       -2.71700        8.10420
C         -2.84000       -3.13770        5.01790
S         -1.89220       -2.63350        3.65850
C         -3.28230       -2.08410        2.77760
C         -4.45310       -2.33310        3.49880
C         -4.20120       -2.94990        4.76220
C         -5.28260       -3.39160        5.55610
C         -6.56630       -3.16490        5.14850
O         -7.68250       -3.54230        5.82150
C         -7.52700       -4.28240        7.00640
C         -6.82270       -2.49430        3.89990
O         -8.13750       -2.32820        3.61910
C         -8.48350       -1.69230        2.41380
C         -5.78710       -2.11080        3.09340
C         -3.06330       -1.49390        1.50410
C         -3.82670       -0.63000        0.76660
C         -3.21320       -0.21950       -0.44120
C         -3.67940        0.72050       -1.37630
C         -4.98030        1.35870       -1.24780
S         -6.44990        0.42820       -1.18660
C         -7.44360        1.84980       -1.16450
C         -8.93040        1.76000       -1.15550
C         -9.45320        0.97690        0.04710
C         -6.66450        2.96660       -1.17710
Cl        -7.27820        4.56910       -1.14940
C         -5.27000        2.69340       -1.22710
Cl        -4.08980        3.93520       -1.18890
C         -2.83800        1.02980       -2.43800
C         -1.56220        0.43810       -2.61380
C         -1.10680       -0.52470       -1.69550
C          0.17950       -1.18680       -1.83600
S          1.66160       -0.29190       -2.00940
C          2.62760       -1.73150       -2.00780
C          4.11180       -1.66970       -2.10770
C          4.71670       -0.81650       -0.99370
C          1.83100       -2.82970       -1.89090
C          0.44560       -2.52750       -1.79600
Cl        -0.75090       -3.75220       -1.72870
Cl         2.41500       -4.44390       -1.86470
C         -1.93900       -0.81350       -0.62340
S         -1.53880       -1.85310        0.70740
C         -0.90830        0.92340       -3.76930
C         -1.63800        1.84830       -4.46120
S         -3.19690        2.14250       -3.72570
C         -1.22990        2.57970       -5.61630
C          0.01590        2.59690       -6.17640
C          0.12870        3.47850       -7.27560
C          1.27800        3.78110       -8.03010
C          2.56970        3.19630       -7.71070
S          3.19600        3.26880       -6.08770
C          4.67100        2.47940       -6.53240
C          5.70450        2.15960       -5.50970
C          5.25440        0.99570       -4.62390
C          4.66190        2.17980       -7.86110
Cl         5.94980        1.39090       -8.67770
C          3.47710        2.58790       -8.53280
Cl         3.21180        2.24430      -10.19070
C          1.13130        4.71170       -9.04770
C         -0.09930        5.34470       -9.35330
C         -1.24900        5.03370       -8.60510
C         -2.52250        5.67980       -8.87450
S         -2.66100        7.41360       -8.92120
C         -4.36130        7.34990       -9.23740
C         -5.14930        8.59340       -9.45920
C         -4.96150        9.11070      -10.88740
C         -4.77970        6.05530       -9.30870
C         -3.74340        5.10630       -9.09640
Cl        -4.01130        3.41710       -9.20350
Cl        -6.40110        5.58900       -9.62150
C         -1.10310        4.11110       -7.57640
S         -2.34330        3.63770       -6.45230
C          0.02870        6.25520      -10.42640
C          1.29970        6.36060      -10.92370
S          2.40820        5.30690      -10.06530
C          1.72760        7.20850      -11.97950
S          0.61770        8.39820      -12.59900
C          1.76030        8.98850      -13.72020
C          2.95620        8.31330      -13.65040
C          2.94650        7.28430      -12.65320
C          4.09740        6.48460      -12.48480
C          5.20600        6.70490      -13.25180
O          6.35460        5.99340      -13.17960
C          6.42630        4.93250      -12.25700
C          5.22240        7.76040      -14.23870
O          6.39460        7.87040      -14.91110
C          6.50730        8.87380      -15.88880
C          4.11890        8.53690      -14.43020
H          7.48900       -9.42280        9.74140
H          5.60630       -8.68990       11.38360
H          1.67670       -8.42550       15.84780
H          1.96520       -9.92600       14.94550
H          3.56780       -9.70640       16.83160
H          4.13390       -8.16260       16.18630
H          4.42170       -9.65520       15.28550
H          5.14840       -4.72580        2.46680
H          4.97780       -6.21930        1.52580
H          3.19890       -4.58110        0.93470
H          2.66590       -4.53320        2.61890
H          2.49130       -6.01690        1.67700
H          1.62420       -5.84110        6.16910
H         -0.98680       -4.68260       10.37880
H         -1.02460       -3.57700       12.41630
H         -2.08200       -5.01400       12.40100
H         -2.41650       -3.67180       13.52490
H         -4.82360       -0.35410        8.81600
H         -5.99840       -0.59810       10.13410
H         -6.00750       -1.68500        8.72310
H         -4.09390       -2.13270        7.45790
H         -5.06710       -3.93670        6.45930
H         -7.00260       -5.22610        6.82510
H         -6.98700       -3.71500        7.77250
H         -8.53600       -4.49040        7.35800
H         -9.57090       -1.64360        2.40780
H         -8.07320       -0.67850        2.36660
H         -8.13920       -2.26290        1.54490
H         -5.96920       -1.67060        2.12910
H         -4.77180       -0.24120        1.09530
H         -9.26530        1.26970       -2.07370
H         -9.33140        2.77470       -1.14510
H         -9.13660        1.44950        0.97360
H         -9.07440       -0.04210        0.02550
H        -10.53900        0.94550        0.02810
H          4.39380       -1.24850       -3.07570
H          4.49920       -2.68840       -2.05210
H          4.34810        0.20450       -1.05840
H          4.44940       -1.21980       -0.02020
H          5.80000       -0.80360       -1.07880
H          0.06890        0.59920       -4.07370
H          0.83130        2.00730       -5.80260
H          5.88440        3.03760       -4.88620
H          6.63190        1.89840       -6.02170
H          6.01990        0.77270       -3.88530
H          4.33160        1.25150       -4.10720
H          5.08300        0.10970       -5.23110
H         -6.20380        8.37450       -9.28280
H         -4.82700        9.35930       -8.75140
H         -5.29050        8.36320      -11.60500
H         -5.54320       10.01630      -11.03610
H         -3.91330        9.33360      -11.07280
H         -0.79230        6.81770      -10.83220
H          1.49570        9.79710      -14.37180
H          4.08580        5.69540      -11.75440
H          5.67470        4.16510      -12.46780
H          6.30120        5.28500      -11.22820
H          7.42110        4.50690      -12.37600
H          5.78460        8.72850      -16.69860
H          6.37140        9.87110      -15.45740
H          7.51710        8.78650      -16.28600
H          4.09510        9.32520      -15.16450
