164

N          0.08420        6.18600       -2.59760
C         -0.32850        6.16240       -3.99740
N         -0.31020        4.78100       -4.44810
C          0.84630        4.21610       -3.76640
C          0.70770        2.73570       -3.44430
C          1.84800        2.31000       -2.51820
C          1.78650        3.06640       -1.16300
C          0.85760        4.28610       -1.19980
C          1.04670        5.09320       -2.47690
N          1.27190        2.07400       -0.24410
C          0.92780        0.86820       -0.99030
N          1.75210        0.89740       -2.17500
C          1.63900        2.08130        1.06690
C          1.02230        1.42450        2.07670
C         -0.24900        0.78640        2.05210
S         -1.45940        1.18510        0.87540
C         -2.68950        0.20020        1.62800
C         -2.16400       -0.39200        2.78480
C         -0.79610       -0.05840        3.01920
C         -0.12080       -0.60080        4.13610
C         -0.77130       -1.44340        4.98840
O         -0.22460       -2.02840        6.09150
C          1.09790       -1.70180        6.42370
C         -2.15200       -1.77300        4.76250
O         -2.68610       -2.61470        5.68490
C         -3.99090       -3.08750        5.46640
C         -2.82530       -1.24280        3.69860
C         -3.92640       -0.00130        0.96740
S         -4.90360       -1.41140        1.30820
C         -6.02810       -1.05420        0.01680
C         -5.67070        0.11370       -0.62470
C         -4.49090        0.71930       -0.09030
C         -4.06190        1.95010       -0.63830
C         -4.73790        2.51840       -1.67830
O         -4.40120        3.69460       -2.28370
C         -3.24990        4.35750       -1.83720
C         -5.91270        1.89200       -2.22710
O         -6.48430        2.57680       -3.25600
C         -7.65340        2.04940       -3.82650
C         -6.36730        0.72220       -1.69970
N         -7.02910       -1.91830       -0.38290
C         -7.64410       -2.78660        0.61280
N         -8.51600       -3.65370       -0.14180
C         -7.84760       -3.87120       -1.42940
C         -7.26320       -5.28250       -1.50550
C         -6.29640       -5.38640       -2.68610
C         -5.06020       -4.47100       -2.47490
C         -5.33160       -3.39220       -1.42550
C         -6.73680       -2.79620       -1.52750
N         -4.01220       -5.41490       -2.08690
C         -4.60150       -6.74500       -1.95830
N         -5.77190       -6.74340       -2.79830
C         -3.00640       -5.07260       -1.20530
C         -2.34190       -3.91630       -1.16580
N         -1.42570       -3.56250       -0.14400
C         -2.00380       -3.54480        1.21750
N         -1.02620       -4.07050        2.13670
C         -0.25740       -4.99780        1.32080
C          1.06010       -5.41180        1.95410
C          2.14490       -4.34780        1.87770
C          2.30470       -3.69870        0.50280
C          0.95750       -3.22370       -0.05070
C         -0.15420       -4.28180       -0.04630
N          3.16010       -2.58360        0.87090
C          2.72110       -2.10280        2.16430
N          1.87790       -3.16740        2.69160
C          3.66230       -1.72540       -0.09230
C          4.00930       -0.45170        0.10420
N          4.55920        0.38590       -0.87980
C          5.27530       -0.21120       -1.99870
N          6.23260        0.79760       -2.42230
C          5.83710        2.04680       -1.79630
C          6.95230        3.08650       -1.72900
C          8.01060        2.85650       -0.65420
C          7.48020        2.31810        0.67720
C          6.53110        1.14150        0.43900
C          5.34500        1.53130       -0.44340
N          8.71860        1.89010        1.29270
C          9.64430        1.48020        0.25840
N          8.97360        1.81990       -0.98370
C          8.77710        1.39380        2.56670
C          9.78310        0.70780        3.10250
H         -0.71450        6.00530       -1.99560
H         -1.30030        6.63090       -4.14510
H          0.42700        6.70960       -4.57460
H         -1.15680        4.30240       -4.15040
H          1.71030        4.36280       -4.42690
H         -0.25080        2.53400       -2.96480
H          0.74810        2.14630       -4.36000
H          2.79390        2.50270       -3.03200
H          2.79350        3.38730       -0.86050
H          1.04480        4.92010       -0.33110
H         -0.17460        3.93510       -1.12920
H          2.05350        5.52880       -2.48580
H          1.10670       -0.02620       -0.39340
H         -0.12710        0.89060       -1.29390
H          2.67710        0.54950       -1.93510
H          2.49790        2.70530        1.29910
H          1.51320        1.43850        3.04040
H          0.91240       -0.33740        4.29040
H          1.21030       -0.63080        6.62690
H          1.32480       -2.26520        7.32770
H          1.79890       -1.98900        5.63160
H         -4.07430       -3.58730        4.49600
H         -4.72840       -2.27910        5.52130
H         -4.18280       -3.80320        6.26430
H         -3.86640       -1.46430        3.54260
H         -3.21080        2.44260       -0.20270
H         -3.34410        4.68260       -0.79470
H         -3.14790        5.23260       -2.47920
H         -2.36370        3.71830       -1.93090
H         -7.47720        1.06020       -4.26350
H         -7.93860        2.74570       -4.61360
H         -8.46330        1.97910       -3.09250
H         -7.26050        0.23810       -2.05730
H         -8.18940       -2.19540        1.35040
H         -6.88970       -3.39620        1.14100
H         -9.40990       -3.19920       -0.28550
H         -8.56570       -3.74890       -2.24640
H         -8.06650       -6.00710       -1.63280
H         -6.75470       -5.51600       -0.57260
H         -6.83680       -5.12290       -3.59970
H         -4.77580       -3.99460       -3.42370
H         -4.60700       -2.58480       -1.52650
H         -5.19950       -3.82150       -0.43050
H         -6.82180       -2.21400       -2.45070
H         -3.88680       -7.51160       -2.26990
H         -4.90620       -6.95580       -0.91920
H         -5.50100       -6.92460       -3.75940
H         -2.74690       -5.86000       -0.50400
H         -2.52520       -3.12860       -1.88510
H         -2.90290       -4.18010        1.25900
H         -2.29360       -2.52780        1.48470
H         -0.40060       -3.33940        2.46700
H         -0.87970       -5.89610        1.19170
H          1.43020       -6.30370        1.44390
H          0.87380       -5.66780        2.99890
H          3.10910       -4.81630        2.15280
H          2.82010       -4.35030       -0.20830
H          0.61060       -2.39690        0.57120
H          1.08690       -2.84010       -1.06430
H         -0.02610       -4.98660       -0.87320
H          2.12790       -1.17420        2.09160
H          3.60850       -1.89380        2.78690
H          2.02890       -3.33990        3.67790
H          3.82610       -2.21180       -1.04180
H          3.82280        0.04960        1.04050
H          5.81520       -1.12590       -1.69940
H          4.55410       -0.48460       -2.78780
H          6.31180        0.86660       -3.42830
H          4.98090        2.51270       -2.32510
H          7.44430        3.13480       -2.70210
H          6.48960        4.05740       -1.53710
H          8.51050        3.82690       -0.46190
H          7.00100        3.09450        1.28320
H          6.17690        0.74850        1.39360
H          7.09260        0.36350       -0.07740
H          4.69850        2.24940        0.07130
H         10.60490        2.00940        0.40300
H          9.84100        0.39710        0.28800
H          9.61780        2.09380       -1.71450
H          7.91960        1.66830        3.16750
H          9.75470        0.41600        4.13560
H         10.65860        0.43020        2.54490
