
  xtb     03042207393D
 energy: -221.353291739702 gnorm: 0.000385211289 xtb: 6.4.1 (unknown)
148155  0     0  0            999 V2000
    6.0595   -0.2271   -2.1849 C   0  0  0  0  0  0  0  0  0  0  0  0
    5.7576    1.1738   -2.6128 C   0  0  0  0  0  0  0  0  0  0  0  0
    4.5370    1.6600   -2.8176 C   0  0  0  0  0  0  0  0  0  0  0  0
    4.3918    2.9525   -3.2841 O   0  0  0  0  0  0  0  0  0  0  0  0
    4.0323    3.9401   -2.3382 C   0  0  0  0  0  0  0  0  0  0  0  0
    2.9270    3.5595   -1.3509 C   0  0  0  0  0  0  0  0  0  0  0  0
    1.5793    3.2300   -2.0496 C   0  0  0  0  0  0  0  0  0  0  0  0
    1.7611    2.6934   -3.3443 O   0  0  0  0  0  0  0  0  0  0  0  0
    2.0673    1.3275   -3.4241 C   0  0  0  0  0  0  0  0  0  0  0  0
    3.2861    0.8299   -2.6328 C   0  0  0  0  0  0  0  0  0  0  0  0
    0.7794    4.4894   -2.2338 C   0  0  0  0  0  0  0  0  0  0  0  0
   -0.0301    5.0262   -1.3338 C   0  0  0  0  0  0  0  0  0  0  0  0
   -0.2774    4.4881    0.0490 C   0  0  0  0  0  0  0  0  0  0  0  0
   -0.8851    3.1144    0.1182 C   0  0  0  0  0  0  0  0  0  0  0  0
   -1.9661    2.6904   -0.5278 C   0  0  0  0  0  0  0  0  0  0  0  0
   -2.3724    1.3873   -0.3074 O   0  0  0  0  0  0  0  0  0  0  0  0
   -3.7400    1.1859   -0.0189 C   0  0  0  0  0  0  0  0  0  0  0  0
   -4.2549    2.0101    1.1672 C   0  0  0  0  0  0  0  0  0  0  0  0
   -4.8458    3.3967    0.8313 C   0  0  0  0  0  0  0  0  0  0  0  0
   -3.8571    4.3652    0.5353 O   0  0  0  0  0  0  0  0  0  0  0  0
   -3.5798    4.6083   -0.8177 C   0  0  0  0  0  0  0  0  0  0  0  0
   -2.7630    3.4998   -1.5169 C   0  0  0  0  0  0  0  0  0  0  0  0
   -5.6145    3.8720    2.0425 C   0  0  0  0  0  0  0  0  0  0  0  0
   -5.0824    4.6649    2.9561 C   0  0  0  0  0  0  0  0  0  0  0  0
   -5.7711    5.1307    4.2072 C   0  0  0  0  0  0  0  0  0  0  0  0
   -5.1454    4.4538    5.3948 C   0  0  0  0  0  0  0  0  0  0  0  0
   -3.9314    4.6888    5.8961 C   0  0  0  0  0  0  0  0  0  0  0  0
   -3.5558    3.9167    6.9789 O   0  0  0  0  0  0  0  0  0  0  0  0
   -2.1828    3.6858    7.1935 C   0  0  0  0  0  0  0  0  0  0  0  0
   -1.5060    2.8044    6.1195 C   0  0  0  0  0  0  0  0  0  0  0  0
   -2.0602    2.9631    4.6881 C   0  0  0  0  0  0  0  0  0  0  0  0
   -1.7090    4.1663    4.0204 O   0  0  0  0  0  0  0  0  0  0  0  0
   -1.6868    5.3558    4.7625 C   0  0  0  0  0  0  0  0  0  0  0  0
   -3.0197    5.7902    5.4237 C   0  0  0  0  0  0  0  0  0  0  0  0
   -1.5683    1.8477    3.8130 C   0  0  0  0  0  0  0  0  0  0  0  0
   -2.2603    0.7160    3.6414 C   0  0  0  0  0  0  0  0  0  0  0  0
   -1.9303   -0.3544    2.7606 C   0  0  0  0  0  0  0  0  0  0  0  0
   -0.5847   -0.2737    1.6741 S   0  0  0  0  0  0  0  0  0  0  0  0
   -0.9530   -1.8053    0.9598 C   0  0  0  0  0  0  0  0  0  0  0  0
   -2.0981   -2.3543    1.5338 C   0  0  0  0  0  0  0  0  0  0  0  0
   -2.6444   -1.5369    2.5673 C   0  0  0  0  0  0  0  0  0  0  0  0
   -3.8019   -1.9747    3.2532 C   0  0  0  0  0  0  0  0  0  0  0  0
   -4.3991   -3.1529    2.9084 C   0  0  0  0  0  0  0  0  0  0  0  0
   -5.5014   -3.6833    3.5037 O   0  0  0  0  0  0  0  0  0  0  0  0
   -6.0774   -2.9856    4.5776 C   0  0  0  0  0  0  0  0  0  0  0  0
   -3.8814   -3.9425    1.8201 C   0  0  0  0  0  0  0  0  0  0  0  0
   -4.5968   -5.0704    1.5539 O   0  0  0  0  0  0  0  0  0  0  0  0
   -4.1715   -5.8851    0.4917 C   0  0  0  0  0  0  0  0  0  0  0  0
   -2.7645   -3.5413    1.1488 C   0  0  0  0  0  0  0  0  0  0  0  0
   -0.1514   -2.3583   -0.0816 C   0  0  0  0  0  0  0  0  0  0  0  0
    0.4007   -1.3725   -1.4008 S   0  0  0  0  0  0  0  0  0  0  0  0
    1.1230   -2.7126   -2.2072 C   0  0  0  0  0  0  0  0  0  0  0  0
    0.9874   -3.8725   -1.4714 C   0  0  0  0  0  0  0  0  0  0  0  0
    0.2634   -3.6744   -0.2531 C   0  0  0  0  0  0  0  0  0  0  0  0
    0.1047   -4.7562    0.6463 C   0  0  0  0  0  0  0  0  0  0  0  0
    0.5853   -5.9881    0.3154 C   0  0  0  0  0  0  0  0  0  0  0  0
    0.4833   -7.1036    1.0886 O   0  0  0  0  0  0  0  0  0  0  0  0
   -0.1325   -6.9839    2.3449 C   0  0  0  0  0  0  0  0  0  0  0  0
    1.2789   -6.1978   -0.9345 C   0  0  0  0  0  0  0  0  0  0  0  0
    1.6997   -7.4766   -1.1232 O   0  0  0  0  0  0  0  0  0  0  0  0
    2.4343   -7.7608   -2.2874 C   0  0  0  0  0  0  0  0  0  0  0  0
    1.4842   -5.1621   -1.7955 C   0  0  0  0  0  0  0  0  0  0  0  0
    1.8152   -2.5529   -3.5184 C   0  0  0  0  0  0  0  0  0  0  0  0
    3.2899   -2.7992   -3.3667 C   0  0  0  0  0  0  0  0  0  0  0  0
    4.1126   -3.2530   -4.3089 C   0  0  0  0  0  0  0  0  0  0  0  0
    5.4520   -3.2833   -3.9900 O   0  0  0  0  0  0  0  0  0  0  0  0
    6.3043   -4.2446   -4.5697 C   0  0  0  0  0  0  0  0  0  0  0  0
    5.9935   -5.6877   -4.1547 C   0  0  0  0  0  0  0  0  0  0  0  0
    4.9334   -6.4627   -4.9699 C   0  0  0  0  0  0  0  0  0  0  0  0
    3.6141   -5.9632   -4.7674 O   0  0  0  0  0  0  0  0  0  0  0  0
    3.0652   -5.0714   -5.7068 C   0  0  0  0  0  0  0  0  0  0  0  0
    3.6748   -3.6540   -5.6928 C   0  0  0  0  0  0  0  0  0  0  0  0
    5.3334   -6.6146   -6.4109 C   0  0  0  0  0  0  0  0  0  0  0  0
    5.4464   -7.7848   -7.0106 C   0  0  0  0  0  0  0  0  0  0  0  0
    7.1106   -0.3257   -1.9283 H   0  0  0  0  0  0  0  0  0  0  0  0
    5.8349   -0.9398   -2.9790 H   0  0  0  0  0  0  0  0  0  0  0  0
    5.4645   -0.5053   -1.3161 H   0  0  0  0  0  0  0  0  0  0  0  0
    6.5994    1.8308   -2.7789 H   0  0  0  0  0  0  0  0  0  0  0  0
    3.7188    4.7957   -2.9410 H   0  0  0  0  0  0  0  0  0  0  0  0
    4.9260    4.2226   -1.7563 H   0  0  0  0  0  0  0  0  0  0  0  0
    3.2644    2.7193   -0.7427 H   0  0  0  0  0  0  0  0  0  0  0  0
    2.7751    4.4096   -0.6837 H   0  0  0  0  0  0  0  0  0  0  0  0
    1.0129    2.5211   -1.4245 H   0  0  0  0  0  0  0  0  0  0  0  0
    2.2359    1.1609   -4.4921 H   0  0  0  0  0  0  0  0  0  0  0  0
    1.1930    0.7354   -3.0997 H   0  0  0  0  0  0  0  0  0  0  0  0
    3.0286    0.7642   -1.5713 H   0  0  0  0  0  0  0  0  0  0  0  0
    3.5010   -0.1855   -2.9695 H   0  0  0  0  0  0  0  0  0  0  0  0
    0.9133    4.9492   -3.2020 H   0  0  0  0  0  0  0  0  0  0  0  0
   -0.5402    5.9479   -1.5829 H   0  0  0  0  0  0  0  0  0  0  0  0
   -0.9397    5.1710    0.5868 H   0  0  0  0  0  0  0  0  0  0  0  0
    0.6709    4.4615    0.5912 H   0  0  0  0  0  0  0  0  0  0  0  0
   -0.4258    2.4209    0.8069 H   0  0  0  0  0  0  0  0  0  0  0  0
   -4.3685    1.3650   -0.9044 H   0  0  0  0  0  0  0  0  0  0  0  0
   -3.7988    0.1202    0.2225 H   0  0  0  0  0  0  0  0  0  0  0  0
   -5.0340    1.4335    1.6691 H   0  0  0  0  0  0  0  0  0  0  0  0
   -3.4352    2.1658    1.8698 H   0  0  0  0  0  0  0  0  0  0  0  0
   -5.5388    3.3013   -0.0216 H   0  0  0  0  0  0  0  0  0  0  0  0
   -4.5128    4.7895   -1.3750 H   0  0  0  0  0  0  0  0  0  0  0  0
   -3.0036    5.5361   -0.8060 H   0  0  0  0  0  0  0  0  0  0  0  0
   -2.0811    3.9609   -2.2317 H   0  0  0  0  0  0  0  0  0  0  0  0
   -3.4230    2.8317   -2.0717 H   0  0  0  0  0  0  0  0  0  0  0  0
   -6.6285    3.5041    2.1277 H   0  0  0  0  0  0  0  0  0  0  0  0
   -4.0586    4.9814    2.8246 H   0  0  0  0  0  0  0  0  0  0  0  0
   -5.6858    6.2181    4.2871 H   0  0  0  0  0  0  0  0  0  0  0  0
   -6.8306    4.8757    4.1659 H   0  0  0  0  0  0  0  0  0  0  0  0
   -5.7069    3.6424    5.8344 H   0  0  0  0  0  0  0  0  0  0  0  0
   -1.6491    4.6351    7.3195 H   0  0  0  0  0  0  0  0  0  0  0  0
   -2.1475    3.1618    8.1536 H   0  0  0  0  0  0  0  0  0  0  0  0
   -1.6618    1.7564    6.3812 H   0  0  0  0  0  0  0  0  0  0  0  0
   -0.4313    2.9950    6.1222 H   0  0  0  0  0  0  0  0  0  0  0  0
   -3.1545    2.8844    4.7436 H   0  0  0  0  0  0  0  0  0  0  0  0
   -0.8854    5.3152    5.5141 H   0  0  0  0  0  0  0  0  0  0  0  0
   -1.4010    6.1157    4.0284 H   0  0  0  0  0  0  0  0  0  0  0  0
   -3.5827    6.3895    4.7115 H   0  0  0  0  0  0  0  0  0  0  0  0
   -2.7736    6.4300    6.2775 H   0  0  0  0  0  0  0  0  0  0  0  0
   -0.6436    2.0303    3.2884 H   0  0  0  0  0  0  0  0  0  0  0  0
   -3.1846    0.5874    4.1916 H   0  0  0  0  0  0  0  0  0  0  0  0
   -4.1964   -1.3647    4.0486 H   0  0  0  0  0  0  0  0  0  0  0  0
   -6.9244   -3.5889    4.9005 H   0  0  0  0  0  0  0  0  0  0  0  0
   -6.4336   -1.9961    4.2716 H   0  0  0  0  0  0  0  0  0  0  0  0
   -5.3734   -2.8744    5.4094 H   0  0  0  0  0  0  0  0  0  0  0  0
   -3.1570   -6.2670    0.6526 H   0  0  0  0  0  0  0  0  0  0  0  0
   -4.8699   -6.7197    0.4623 H   0  0  0  0  0  0  0  0  0  0  0  0
   -4.2026   -5.3507   -0.4636 H   0  0  0  0  0  0  0  0  0  0  0  0
   -2.3744   -4.1009    0.3156 H   0  0  0  0  0  0  0  0  0  0  0  0
   -0.3836   -4.5729    1.5887 H   0  0  0  0  0  0  0  0  0  0  0  0
   -1.1761   -6.6608    2.2578 H   0  0  0  0  0  0  0  0  0  0  0  0
   -0.0998   -7.9789    2.7857 H   0  0  0  0  0  0  0  0  0  0  0  0
    0.4043   -6.2816    2.9914 H   0  0  0  0  0  0  0  0  0  0  0  0
    1.8468   -7.5802   -3.1927 H   0  0  0  0  0  0  0  0  0  0  0  0
    2.6897   -8.8174   -2.2235 H   0  0  0  0  0  0  0  0  0  0  0  0
    3.3486   -7.1630   -2.3424 H   0  0  0  0  0  0  0  0  0  0  0  0
    2.0368   -5.2877   -2.7116 H   0  0  0  0  0  0  0  0  0  0  0  0
    1.6430   -1.5386   -3.8917 H   0  0  0  0  0  0  0  0  0  0  0  0
    1.3832   -3.2509   -4.2388 H   0  0  0  0  0  0  0  0  0  0  0  0
    3.7137   -2.5522   -2.4047 H   0  0  0  0  0  0  0  0  0  0  0  0
    6.3484   -4.1450   -5.6607 H   0  0  0  0  0  0  0  0  0  0  0  0
    7.2886   -3.9738   -4.1764 H   0  0  0  0  0  0  0  0  0  0  0  0
    5.6643   -5.6663   -3.1136 H   0  0  0  0  0  0  0  0  0  0  0  0
    6.9183   -6.2648   -4.2105 H   0  0  0  0  0  0  0  0  0  0  0  0
    4.8844   -7.4676   -4.5253 H   0  0  0  0  0  0  0  0  0  0  0  0
    2.0131   -5.0186   -5.4140 H   0  0  0  0  0  0  0  0  0  0  0  0
    3.1152   -5.4929   -6.7204 H   0  0  0  0  0  0  0  0  0  0  0  0
    4.5218   -3.5973   -6.3766 H   0  0  0  0  0  0  0  0  0  0  0  0
    2.9229   -2.9500   -6.0504 H   0  0  0  0  0  0  0  0  0  0  0  0
    5.5461   -5.7080   -6.9596 H   0  0  0  0  0  0  0  0  0  0  0  0
    5.2402   -8.7081   -6.4950 H   0  0  0  0  0  0  0  0  0  0  0  0
    5.7510   -7.8693   -8.0402 H   0  0  0  0  0  0  0  0  0  0  0  0
  1  2  1  0  0  0  0
  2  3  2  0  0  0  0
  3  4  1  0  0  0  0
  4  5  1  0  0  0  0
  5  6  1  0  0  0  0
  6  7  1  0  0  0  0
  7  8  1  0  0  0  0
  8  9  1  0  0  0  0
  9 10  1  0  0  0  0
  7 11  1  0  0  0  0
 11 12  2  0  0  0  0
 12 13  1  0  0  0  0
 13 14  1  0  0  0  0
 14 15  2  0  0  0  0
 15 16  1  0  0  0  0
 16 17  1  0  0  0  0
 17 18  1  0  0  0  0
 18 19  1  0  0  0  0
 19 20  1  0  0  0  0
 20 21  1  0  0  0  0
 21 22  1  0  0  0  0
 19 23  1  0  0  0  0
 23 24  2  0  0  0  0
 24 25  1  0  0  0  0
 25 26  1  0  0  0  0
 26 27  2  0  0  0  0
 27 28  1  0  0  0  0
 28 29  1  0  0  0  0
 29 30  1  0  0  0  0
 30 31  1  0  0  0  0
 31 32  1  0  0  0  0
 32 33  1  0  0  0  0
 33 34  1  0  0  0  0
 31 35  1  0  0  0  0
 35 36  2  0  0  0  0
 36 37  1  0  0  0  0
 37 38  1  0  0  0  0
 38 39  1  0  0  0  0
 39 40  2  0  0  0  0
 40 41  1  0  0  0  0
 41 42  1  0  0  0  0
 42 43  2  0  0  0  0
 43 44  1  0  0  0  0
 44 45  1  0  0  0  0
 43 46  1  0  0  0  0
 46 47  1  0  0  0  0
 47 48  1  0  0  0  0
 46 49  2  0  0  0  0
 39 50  1  0  0  0  0
 50 51  1  0  0  0  0
 51 52  1  0  0  0  0
 52 53  2  0  0  0  0
 53 54  1  0  0  0  0
 54 55  1  0  0  0  0
 55 56  2  0  0  0  0
 56 57  1  0  0  0  0
 57 58  1  0  0  0  0
 56 59  1  0  0  0  0
 59 60  1  0  0  0  0
 60 61  1  0  0  0  0
 59 62  2  0  0  0  0
 52 63  1  0  0  0  0
 63 64  1  0  0  0  0
 64 65  2  0  0  0  0
 65 66  1  0  0  0  0
 66 67  1  0  0  0  0
 67 68  1  0  0  0  0
 68 69  1  0  0  0  0
 69 70  1  0  0  0  0
 70 71  1  0  0  0  0
 71 72  1  0  0  0  0
 69 73  1  0  0  0  0
 73 74  2  0  0  0  0
 10  3  1  0  0  0  0
 22 15  1  0  0  0  0
 34 27  1  0  0  0  0
 41 37  2  0  0  0  0
 54 50  2  0  0  0  0
 72 65  1  0  0  0  0
 49 40  1  0  0  0  0
 62 53  1  0  0  0  0
  1 75  1  0  0  0  0
  1 76  1  0  0  0  0
  1 77  1  0  0  0  0
  2 78  1  0  0  0  0
  5 79  1  0  0  0  0
  5 80  1  0  0  0  0
  6 81  1  0  0  0  0
  6 82  1  0  0  0  0
  7 83  1  0  0  0  0
  9 84  1  0  0  0  0
  9 85  1  0  0  0  0
 10 86  1  0  0  0  0
 10 87  1  0  0  0  0
 11 88  1  0  0  0  0
 12 89  1  0  0  0  0
 13 90  1  0  0  0  0
 13 91  1  0  0  0  0
 14 92  1  0  0  0  0
 17 93  1  0  0  0  0
 17 94  1  0  0  0  0
 18 95  1  0  0  0  0
 18 96  1  0  0  0  0
 19 97  1  0  0  0  0
 21 98  1  0  0  0  0
 21 99  1  0  0  0  0
 22100  1  0  0  0  0
 22101  1  0  0  0  0
 23102  1  0  0  0  0
 24103  1  0  0  0  0
 25104  1  0  0  0  0
 25105  1  0  0  0  0
 26106  1  0  0  0  0
 29107  1  0  0  0  0
 29108  1  0  0  0  0
 30109  1  0  0  0  0
 30110  1  0  0  0  0
 31111  1  0  0  0  0
 33112  1  0  0  0  0
 33113  1  0  0  0  0
 34114  1  0  0  0  0
 34115  1  0  0  0  0
 35116  1  0  0  0  0
 36117  1  0  0  0  0
 42118  1  0  0  0  0
 45119  1  0  0  0  0
 45120  1  0  0  0  0
 45121  1  0  0  0  0
 48122  1  0  0  0  0
 48123  1  0  0  0  0
 48124  1  0  0  0  0
 49125  1  0  0  0  0
 55126  1  0  0  0  0
 58127  1  0  0  0  0
 58128  1  0  0  0  0
 58129  1  0  0  0  0
 61130  1  0  0  0  0
 61131  1  0  0  0  0
 61132  1  0  0  0  0
 62133  1  0  0  0  0
 63134  1  0  0  0  0
 63135  1  0  0  0  0
 64136  1  0  0  0  0
 67137  1  0  0  0  0
 67138  1  0  0  0  0
 68139  1  0  0  0  0
 68140  1  0  0  0  0
 69141  1  0  0  0  0
 71142  1  0  0  0  0
 71143  1  0  0  0  0
 72144  1  0  0  0  0
 72145  1  0  0  0  0
 73146  1  0  0  0  0
 74147  1  0  0  0  0
 74148  1  0  0  0  0
M  END
