191

C          3.77130       -3.10310       14.82410
S          2.85240       -3.98700       13.69020
C          3.39660       -2.99920       12.36370
C          4.26890       -2.01140       12.82110
C          4.47710       -2.07920       14.23740
C          5.33220       -1.14660       14.87690
C          5.95120       -0.18070       14.14140
O          6.78780        0.77060       14.62510
C          7.05610        0.77980       16.00470
C          5.73560       -0.10460       12.71490
O          6.40190        0.90550       12.10630
C          6.24600        1.06520       10.71740
C          4.91830       -0.99790       12.08310
C          2.91250       -3.28510       11.05930
C          1.94360       -4.19570       10.73250
C          1.64990       -4.25960        9.35170
C          0.69900       -5.06620        8.69580
C         -0.09140       -6.04550        9.42260
S          0.67850       -7.24040       10.42720
C         -0.82930       -7.98330       10.84140
C         -0.87760       -9.19000       11.71180
C         -0.45570      -10.44160       10.93950
C         -1.85730       -7.33600       10.22580
Cl        -3.50770       -7.78080       10.38800
C         -1.44520       -6.23480        9.42730
Cl        -2.57440       -5.21160        8.64240
C          0.56760       -4.89410        7.32520
C          1.34360       -3.96970        6.58270
C          2.32600       -3.19730        7.22980
C          3.18690       -2.30000        6.48050
S          3.41840       -0.64590        6.96700
C          4.48340       -0.32020        5.64060
C          5.12030        1.01570        5.47850
C          6.18880        1.24840        6.54840
C          4.64740       -1.43980        4.88220
C          3.91500       -2.56320        5.35260
Cl         4.03060       -4.10620        4.60770
Cl         5.63480       -1.51430        3.48150
C          2.42990       -3.34520        8.60410
S          3.52430       -2.46710        9.63120
C          0.97060       -3.93780        5.22380
C         -0.01950       -4.82480        4.89190
S         -0.53080       -5.75730        6.28590
C         -0.58710       -4.96170        3.59970
S          0.18190       -4.11850        2.29460
C         -1.03630       -4.58480        1.15510
C         -1.98800       -5.40910        1.75840
C         -1.73400       -5.62100        3.14910
C         -2.62940       -6.40300        3.90800
C         -3.72150       -6.97030        3.31320
O         -4.65110       -7.72280        3.94540
C         -4.51070       -7.92920        5.33110
C         -3.94900       -6.80000        1.90030
O         -5.04300       -7.44530        1.42930
C         -5.34130       -7.33990        0.05920
C         -3.09700       -6.03750        1.15120
C         -0.96500       -4.01540       -0.14510
C         -1.94810       -3.77200       -1.06430
C         -1.51520       -3.00160       -2.17040
C         -2.27390       -2.53800       -3.26340
C         -3.67420       -2.88590       -3.43480
S         -4.84690       -2.64250       -2.17200
C         -6.15140       -3.21270       -3.15940
C         -7.54000       -3.29300       -2.62790
C         -7.67840       -4.41400       -1.59630
C         -5.68680       -3.57750       -4.38680
Cl        -6.67630       -4.20610       -5.64010
C         -4.28740       -3.38720       -4.54940
Cl        -3.46380       -3.83210       -5.98460
C         -1.63390       -1.69190       -4.16100
C         -0.26610       -1.34380       -4.04860
C          0.52180       -1.90170       -3.02530
C          1.95000       -1.65700       -2.96230
S          2.74250       -1.20400       -1.48290
C          4.30050       -1.15490       -2.23750
C          5.52120       -0.83990       -1.44580
C          5.76020       -1.88730       -0.35760
C          4.19620       -1.47380       -3.55840
C          2.86760       -1.75590       -3.97330
Cl         2.49670       -2.26860       -5.57000
Cl         5.52670       -1.54020       -4.64530
C         -0.13840       -2.67790       -2.08440
S          0.58140       -3.35590       -0.65710
C          0.11180       -0.34830       -4.97560
C         -0.90350        0.05320       -5.79880
S         -2.39260       -0.81480       -5.45970
C         -0.88040        1.09020       -6.76990
S         -2.34260        1.93100       -7.16330
C         -1.50580        3.09830       -8.12700
C         -0.14390        2.79740       -8.20780
C          0.21430        1.65270       -7.43360
C          1.55190        1.20040       -7.44220
C          2.50110        1.87640       -8.15760
O          3.81200        1.54840       -8.22310
C          4.26660        0.45710       -7.45900
C          2.13500        3.02510       -8.94770
O          3.16230        3.58410       -9.63150
C          2.88980        4.68160      -10.46760
C          0.83840        3.45480       -8.98100
C         -2.19060        4.22530       -8.66050
C         -1.67670        5.46880       -8.89750
C         -2.61420        6.38140       -9.43470
C         -2.40990        7.73280       -9.76150
C         -1.10070        8.34520       -9.61780
S          0.31550        7.60710      -10.31400
C          1.35840        8.86980       -9.74590
C          2.82200        8.84550      -10.02110
C          3.11750        8.71670      -11.51430
C          0.63520        9.79870       -9.06120
Cl         1.31160       11.19940       -8.33560
C         -0.75440        9.50490       -8.98320
Cl        -1.84210       10.48130       -8.08950
C         -3.50980        8.43770      -10.23950
C         -4.79110        7.85470      -10.38290
C         -4.99450        6.50600      -10.04960
C         -6.30030        5.87810      -10.17990
S         -7.69720        6.52600       -9.37200
C         -8.72450        5.26800       -9.96900
C        -10.15920        5.18930       -9.57890
C        -10.32880        4.38870       -8.28540
C         -8.01080        4.40210      -10.74210
C         -6.63740        4.74530      -10.86600
Cl        -5.55200        3.85690      -11.85030
Cl        -8.68980        3.02810      -11.51310
C         -3.89550        5.79650       -9.58530
S         -3.89600        4.13640       -9.06320
C         -5.72870        8.77490      -10.93600
C         -5.18440        9.97910      -11.20430
S         -3.50670       10.08510      -10.80090
H          3.74450       -3.37870       15.85930
H          5.46760       -1.22800       15.94290
H          7.73830        1.61250       16.16670
H          7.53540       -0.15060       16.32660
H          6.14420        0.93810       16.59000
H          6.86200        1.92210       10.44980
H          6.59200        0.18230       10.17010
H          5.20300        1.26730       10.45180
H          4.75540       -0.93590       11.02200
H          1.44390       -4.79060       11.47560
H         -1.89680       -9.31110       12.08250
H         -0.20980       -9.04950       12.56410
H          0.56220      -10.33170       10.57370
H         -0.50270      -11.31350       11.58610
H         -1.11530      -10.60100       10.09040
H          4.35850        1.79420        5.55560
H          5.57090        1.06680        4.48620
H          6.64670        2.22450        6.41370
H          5.74470        1.20370        7.54000
H          6.96270        0.48810        6.47990
H          1.38790       -3.25330        4.50800
H         -2.43870       -6.54000        4.95790
H         -3.58650       -8.46690        5.56550
H         -4.52600       -6.98340        5.88170
H         -5.36640       -8.53400        5.62580
H         -6.25520       -7.91280       -0.08760
H         -4.54340       -7.76360       -0.55950
H         -5.51390       -6.29960       -0.23520
H         -3.24040       -5.92120        0.09150
H         -2.97080       -4.06370       -0.92330
H         -8.21830       -3.47300       -3.46330
H         -7.80630       -2.34150       -2.16230
H         -7.01770       -4.23010       -0.75190
H         -7.42210       -5.37210       -2.04260
H         -8.70090       -4.46270       -1.23220
H          5.40920        0.14200       -0.97950
H          6.37450       -0.80380       -2.12490
H          5.88140       -2.87290       -0.79960
H          6.65830       -1.64510        0.20410
H          4.91720       -1.91660        0.32850
H          1.07560        0.12260       -4.95770
H          1.80140        0.29900       -6.91190
H          3.80050       -0.48100       -7.77490
H          5.33970        0.40180       -7.63250
H          4.07970        0.61110       -6.39160
H          2.46490        5.52180       -9.90790
H          3.84970        4.97340      -10.89020
H          2.20330        4.41090      -11.27610
H          0.54030        4.27150       -9.61520
H         -0.67450        5.74360       -8.63100
H          3.27810        8.00450       -9.49070
H          3.25630        9.76700       -9.63040
H          2.68750        9.55410      -12.05770
H          2.69370        7.79460      -11.90530
H          4.19080        8.70730      -11.68320
H        -10.71550        4.70430      -10.38340
H        -10.55240        6.19740       -9.43780
H         -9.95140        3.37790       -8.41670
H         -9.78030        4.86170       -7.47420
H        -11.37950        4.33660       -8.01360
H         -6.75700        8.52940      -11.12700
H         -5.66490       10.84160      -11.62290
