128

C          7.58060        2.40410       -7.21800
S          5.94730        1.90810       -7.00510
C          6.07700        1.92200       -5.27770
C          7.36770        2.29740       -4.90000
C          8.22430        2.57520       -6.01480
N          9.50810        2.95660       -5.80230
C          9.90700        3.03070       -4.56020
C         11.33600        3.46050       -4.33190
N         12.07770        3.78160       -5.53200
C          9.04990        2.71870       -3.45420
C          9.51180        2.76640       -2.02020
N          8.50610        2.30830       -1.07950
N          7.79910        2.36930       -3.63550
C          5.03550        1.58100       -4.41250
S          5.20670        1.67800       -2.67830
C          3.58790        1.08920       -2.38610
C          2.95950        0.83400       -3.61970
C          3.76390        1.11120       -4.75380
N          3.30120        0.90350       -5.99690
C          2.07940        0.43740       -6.11200
C          1.58530        0.16780       -7.50340
N          2.35380        0.89120       -8.49670
C          1.26780        0.15650       -4.96860
C         -0.12680       -0.40970       -5.07060
N         -0.84710       -0.46920       -3.81460
N          1.71750        0.36150       -3.75140
C          2.95900        0.84110       -1.16850
S          1.37280        0.12270       -1.23140
C          1.23090        0.08380        0.50680
C          2.39170        0.60520        1.11440
C          3.36130        1.04100        0.16920
C          4.57000        1.60440        0.61430
C          4.83200        1.68490        1.96070
O          5.93130        2.22760        2.52310
C          6.86140        2.89820        1.70350
C          3.89230        1.15740        2.91070
O          4.31400        1.21970        4.19500
C          3.49340        0.68400        5.20590
C          2.69120        0.64930        2.48720
C          0.05190       -0.44700        1.04110
S         -0.95430       -1.46070        0.01400
C         -2.17470       -1.66070        1.22730
C         -1.81330       -0.96990        2.39380
C         -0.57700       -0.26880        2.28780
N         -0.19750        0.54660        3.28330
C         -0.94670        0.59500        4.36110
C         -0.51360        1.59400        5.41090
N          0.29980        2.68150        4.90050
C         -2.09080       -0.23880        4.51880
C         -2.87000       -0.29990        5.80110
N         -3.48720       -1.60130        5.96330
N         -2.52910       -0.97300        3.52240
C         -3.32990       -2.41160        1.04870
S         -4.57260       -2.49960        2.26820
C         -5.54450       -3.57270        1.30610
C         -4.91810       -3.85160        0.08560
C         -3.67150       -3.18890       -0.07010
N         -2.93440       -3.34090       -1.18010
C         -3.42310       -4.12780       -2.11110
C         -2.58600       -4.32790       -3.35010
N         -1.37620       -3.54100       -3.42040
C         -4.67900       -4.79570       -1.95330
C         -5.23780       -5.70460       -3.01980
N         -6.50130       -6.32750       -2.68830
N         -5.40750       -4.65530       -0.87170
C         -6.77950       -4.07080        1.72830
S         -7.68390       -5.22720        0.80570
C         -8.95420       -5.28190        1.95870
C         -8.71660       -4.44020        3.02060
C         -7.47460       -3.73480        2.89300
N         -7.07770       -2.83090        3.79870
C         -7.87250       -2.62490        4.82060
C         -7.43210       -1.59390        5.81980
N         -6.63180       -0.56600        5.18360
C         -9.08700       -3.37110        4.98790
C         -9.96600       -3.18860        6.20370
N        -11.10470       -4.07920        6.27020
N         -9.49810       -4.24580        4.10950
H          7.97530        2.54190       -8.20330
H         11.86620        2.65800       -3.80580
H         11.34180        4.33810       -3.67560
H         11.60710        4.53180       -6.02840
H         12.07060        2.98010       -6.15500
H         10.41270        2.15670       -1.89960
H          9.77750        3.79800       -1.76130
H          7.64500        2.81200       -1.27540
H          8.30080        1.33120       -1.27040
H          1.60970       -0.92960       -7.63850
H          0.53560        0.47380       -7.58860
H          2.35810        0.40210       -9.38320
H          3.30950        0.99540       -8.17150
H         -0.71400        0.17940       -5.78210
H         -0.05640       -1.43140       -5.46450
H         -0.25510       -0.91260       -3.11840
H         -1.02160        0.47140       -3.47420
H          5.28260        1.95980       -0.11130
H          6.37610        3.67930        1.11090
H          7.57300        3.35580        2.38820
H          7.39430        2.21560        1.03640
H          4.07960        0.75040        6.12100
H          3.24450       -0.36350        5.00820
H          2.57430        1.26420        5.32410
H          1.95680        0.28340        3.18290
H          0.07300        1.06010        6.17110
H         -1.39010        2.01710        5.90710
H         -0.27620        3.31410        4.35430
H          0.99320        2.30590        4.25920
H         -2.20150       -0.12720        6.65150
H         -3.59620        0.53670        5.77550
H         -3.84020       -1.92360        5.06800
H         -4.25110       -1.56250        6.62700
H         -3.19470       -4.11290       -4.23440
H         -2.30910       -5.39020       -3.39970
H         -0.87050       -3.62880       -2.54390
H         -1.60590       -2.55560       -3.52250
H         -4.50840       -6.49440       -3.23270
H         -5.37050       -5.12840       -3.94290
H         -7.18860       -5.60910       -2.48210
H         -6.39820       -6.87120       -1.83700
H         -9.79960       -5.91960        1.80140
H         -6.89800       -2.13700        6.62460
H         -8.30440       -1.11590        6.27790
H         -6.03480       -0.98870        4.47980
H         -6.06000       -0.07810        5.86220
H         -9.36140       -3.33350        7.10600
H        -10.34080       -2.15870        6.21800
H        -10.78180       -5.04180        6.25140
H        -11.67510       -3.95490        5.43950
