149

C          5.48700        3.68440        9.05910
S          4.22800        2.61280        9.48450
C          3.55180        2.61370        7.87400
C          4.31790        3.45310        7.04880
C          5.42210        4.05250        7.73700
C          6.31290        4.91770        7.05370
C          6.11840        5.18540        5.73200
O          6.89770        5.98420        4.95990
C          8.01400        6.59580        5.55520
C          4.99480        4.60560        5.03940
O          4.90180        4.96530        3.73440
C          3.84440        4.44270        2.96870
C          4.12500        3.77400        5.68810
C          2.44390        1.79540        7.55000
S          2.00990        1.52390        5.88390
C          0.70600        0.44580        6.28010
C          0.65070        0.25220        7.66310
C          1.59770        1.04040        8.38230
C          1.58310        0.98580        9.79330
C          0.74240        0.12970       10.44940
O          0.64570        0.00730       11.79770
C          1.47310        0.81110       12.60160
C         -0.11210       -0.75890        9.71060
O         -0.83150       -1.62190       10.47530
C         -1.63510       -2.57320        9.82520
C         -0.15350       -0.68520        8.34770
C         -0.09070       -0.07970        5.23960
S          0.63020       -0.36070        3.68110
C         -0.84570       -0.99710        3.01230
C         -1.88130       -0.91500        3.95220
C         -1.45650       -0.39090        5.20780
C         -2.41660       -0.11510        6.20600
C         -3.73640       -0.39540        5.98750
O         -4.74320       -0.17140        6.87240
C         -4.43200        0.45690        8.09030
C         -4.16350       -0.93330        4.72420
O         -5.50320       -1.13830        4.62410
C         -6.02150       -1.56510        3.38990
C         -3.25390       -1.16090        3.72950
C         -0.86280       -1.43240        1.67020
S          0.13310       -0.62370        0.50170
C         -0.44990       -1.58120       -0.83560
C         -1.36680       -2.54310       -0.35390
C         -1.57190       -2.47070        1.05510
C         -2.34620       -3.45030        1.70350
C         -2.99430       -4.42860        0.99520
O         -3.75340       -5.40270        1.59070
C         -3.79890       -5.45610        2.99420
C         -2.86910       -4.45610       -0.43010
O         -3.46800       -5.33090       -1.28210
C         -4.33140       -6.35080       -0.83470
C         -2.04990       -3.54410       -1.05890
C         -0.03970       -1.30220       -2.15190
S         -0.82720       -2.06750       -3.50190
C          0.08210       -1.17350       -4.68430
C          0.98520       -0.31500       -4.04960
C          0.93350       -0.39570       -2.62660
C          1.83130        0.38500       -1.87190
C          2.70950        1.23560       -2.48790
O          3.61000        2.02370       -1.84860
C          3.66890        1.97030       -0.44430
C          2.72980        1.34260       -3.91930
O          3.62620        2.23140       -4.41130
C          3.70210        2.39430       -5.80670
C          1.89040        0.56870       -4.67160
C         -0.20320       -1.41320       -6.04740
C         -1.05630       -2.37860       -6.51960
C         -1.21260       -2.38310       -7.92090
C         -1.99090       -3.25190       -8.70810
C         -2.78250       -4.30530       -8.09730
S         -3.88830       -3.96490       -6.79640
C         -4.36170       -5.62290       -6.65440
C         -5.38140       -6.04980       -5.65690
C         -6.79910       -5.80090       -6.17620
C         -3.70690       -6.38010       -7.57830
Cl        -3.91480       -8.07540       -7.74560
C         -2.80900       -5.64010       -8.39400
Cl        -1.80020       -6.39150       -9.55810
C         -1.97520       -3.04000      -10.08270
C         -1.20410       -2.02610      -10.69840
C         -0.38630       -1.19290       -9.91500
C          0.46350       -0.17990      -10.51890
S          0.41750        1.47650       -9.99260
C          1.63980        1.95180      -11.12280
C          2.06940        3.37260      -11.23980
C          1.09960        4.16810      -12.11680
C          2.04630        0.87950      -11.85870
C          1.38590       -0.33120      -11.51620
Cl         1.78080       -1.83640      -12.24190
Cl         3.25050        0.95710      -13.07950
C         -0.43080       -1.37940       -8.54260
S          0.47420       -0.46810       -7.36560
C         -1.43610       -1.96750      -12.10280
C         -2.32450       -2.88980      -12.52590
S         -2.93900       -3.89090      -11.25660
H          6.20020        3.98420        9.80000
H          7.13310        5.34210        7.60920
H          7.71870        7.26440        6.37080
H          8.48790        7.17670        4.76580
H          8.72340        5.85330        5.93570
H          3.97820        4.85050        1.96810
H          3.87980        3.34890        2.92500
H          2.87110        4.75550        3.36050
H          3.28040        3.36850        5.16210
H          2.23620        1.63170       10.35100
H          1.23550        0.54020       13.62890
H          2.53310        0.61630       12.40880
H          1.26910        1.87620       12.45000
H         -2.42310       -2.10130        9.22720
H         -2.09160       -3.16420       10.61740
H         -1.04090       -3.22740        9.17870
H         -0.76690       -1.35280        7.76660
H         -2.09080        0.35950        7.11570
H         -5.37830        0.55980        8.61840
H         -3.74450       -0.14480        8.69520
H         -3.99400        1.44760        7.93200
H         -7.09770       -1.64310        3.53400
H         -5.81210       -0.84400        2.59320
H         -5.62420       -2.54400        3.09870
H         -3.56620       -1.48490        2.75140
H         -2.38850       -3.42660        2.77900
H         -4.42160       -6.31740        3.23160
H         -4.25140       -4.55540        3.42310
H         -2.80260       -5.59790        3.42460
H         -5.19760       -5.94790       -0.30550
H         -4.66310       -6.85450       -1.74290
H         -3.81640       -7.06710       -0.19120
H         -1.95210       -3.64780       -2.12470
H          1.83770        0.29810       -0.80130
H          4.45280        2.66960       -0.15790
H          3.93010        0.96780       -0.09010
H          2.72160        2.27720        0.01150
H          2.74940        2.73680       -6.22360
H          3.99840        1.46550       -6.30470
H          4.46530        3.15290       -5.97190
H          1.90800        0.61990       -5.74580
H         -1.55070       -3.06830       -5.86060
H         -5.23040       -5.49510       -4.72870
H         -5.24630       -7.11430       -5.45620
H         -6.96710       -6.35800       -7.09440
H         -6.94510       -4.74280       -6.38000
H         -7.52980       -6.11870       -5.43710
H          2.11000        3.82120      -10.24570
H          3.06810        3.40120      -11.67900
H          1.42530        5.20210      -12.19150
H          0.10040        4.14570      -11.68850
H          1.05960        3.74240      -13.11620
H         -0.96680       -1.25140      -12.75190
H         -2.67400       -3.05890      -13.52560
