98

C          6.23350       -2.13170       -0.42170
S          5.67740       -2.31220       -2.03090
C          4.16290       -1.53120       -1.66380
C          4.13610       -1.16420       -0.33540
C          5.32000       -1.49410        0.36200
S          5.62270       -1.12560        2.05650
C          4.80980        0.41180        2.32950
O          5.00810        1.00270        3.35690
C          3.77110        0.94900        1.36820
O          3.38400        2.08010        1.40720
S          2.83440       -0.22360        0.37220
C          3.24240       -1.23090       -2.72210
C          1.89050       -1.24870       -2.68420
C          1.04740       -1.81770       -1.69450
S          1.62890       -2.89690       -0.48260
C          0.04560       -3.23740        0.14120
C         -0.92730       -2.55130       -0.61430
C         -0.35160       -1.74090       -1.63800
C         -1.18760       -0.98620       -2.48020
C         -2.54710       -1.04300       -2.34710
O         -3.31010       -0.27310       -3.19240
C         -4.26520       -0.96440       -3.99050
C         -3.13200       -1.84610       -1.31400
O         -4.48380       -1.80480       -1.23350
C         -5.13550       -2.63040       -0.29750
C         -2.32670       -2.57820       -0.47550
C         -0.08530       -4.04010        1.29800
S         -1.64420       -4.51860        1.91210
C         -0.96570       -5.19530        3.36500
C          0.41050       -5.16960        3.29450
C          0.91290       -4.51400        2.15410
S          2.61450       -4.20630        1.85010
C          3.60970       -5.01300        3.07410
O          4.79550       -4.89560        2.94190
C          3.05490       -5.80490        4.23590
O          3.80170       -6.38960        4.96860
S          1.33300       -5.85770        4.62820
C         -1.78930       -5.64880        4.45640
C         -2.87520       -4.99260        4.90740
C         -3.25150       -3.68310        4.43900
S         -2.06130       -2.45430        4.15590
C         -3.20640       -1.44290        3.32300
C         -4.48740       -1.97150        3.43940
C         -4.50480       -3.23010        4.07360
S         -5.88280       -4.31470        4.23200
C         -7.31510       -3.49940        3.59500
O         -8.31140       -4.15530        3.47390
C         -7.35110       -2.02340        3.25630
O         -8.40640       -1.46820        3.13790
S         -5.90110       -1.06440        2.91720
C         -2.65150       -0.42540        2.50760
C         -3.24290        0.20390        1.46480
C         -2.51100        0.97040        0.52600
S         -0.78800        1.16350        0.61130
C         -0.74830        2.09470       -0.85670
C         -2.02470        2.20410       -1.39880
C         -3.01000        1.58280       -0.61750
S         -4.73770        1.58000       -0.92470
C         -4.95830        1.83170       -2.65450
O         -6.06740        1.71690       -3.09730
C         -3.83300        2.24410       -3.57980
O         -4.00860        2.26090       -4.76360
S         -2.30780        2.92590       -2.97390
C          0.50770        2.62030       -1.25580
C          0.70760        3.62450       -2.14150
C          1.96490        4.20480       -2.46850
S          1.96740        5.77480       -3.21740
C          3.69590        5.88000       -3.18180
C          4.23550        4.73060       -2.63110
C          3.26950        3.78520       -2.24350
S          3.63090        2.17950       -1.63960
C          5.24840        2.20680       -0.96940
O          5.55340        1.27440       -0.25940
C          6.29440        3.23050       -1.32930
O          7.41710        3.09850       -0.92890
S          5.98010        4.55660       -2.45500
C          4.41360        7.02370       -3.66470
C          3.84210        8.09920       -4.20190
H          7.19790       -2.49730       -0.13300
H          3.71340       -0.94580       -3.65410
H          1.36900       -0.85690       -3.54690
H         -0.77060       -0.36040       -3.25310
H         -3.79340       -1.80760       -4.50130
H         -4.61360       -0.24170       -4.72640
H         -5.10740       -1.31590       -3.39300
H         -6.19630       -2.40680       -0.39930
H         -4.80800       -2.40840        0.72150
H         -4.96020       -3.68910       -0.51270
H         -2.76720       -3.18610        0.29390
H         -1.49060       -6.57630        4.92590
H         -3.51280       -5.44850        5.65170
H         -1.59170       -0.26030        2.66070
H         -4.29850        0.09590        1.26390
H          1.34470        2.20760       -0.71210
H         -0.14280        4.11040       -2.59850
H          5.48880        6.95940       -3.56290
H          4.42690        8.93200       -4.54760
H          2.77250        8.17230       -4.31130
