
  xtb     03042202593D
 energy: -424.165358554902 gnorm: 0.000272322053 xtb: 6.4.1 (unknown)
244267  0     0  0            999 V2000
   -6.2437   -2.2818   16.9608 C   0  0  0  0  0  0  0  0  0  0  0  0
   -6.3477   -1.1488   16.2381 C   0  0  0  0  0  0  0  0  0  0  0  0
   -5.9780   -1.3277   14.8721 C   0  0  0  0  0  0  0  0  0  0  0  0
   -5.9491   -0.3734   13.8482 C   0  0  0  0  0  0  0  0  0  0  0  0
   -6.2253    1.0553   14.0499 C   0  0  0  0  0  0  0  0  0  0  0  0
   -5.5474    1.7947   15.0175 C   0  0  0  0  0  0  0  0  0  0  0  0
   -5.6864    3.1654   15.0775 C   0  0  0  0  0  0  0  0  0  0  0  0
   -6.5106    3.8495   14.1856 C   0  0  0  0  0  0  0  0  0  0  0  0
   -6.5696    5.6118   14.2777 S   0  0  0  0  0  0  0  0  0  0  0  0
   -6.6760    6.0960   12.5043 C   0  0  0  0  0  0  0  0  0  0  0  0
   -5.9672    7.4186   12.2957 C   0  0  0  0  0  0  0  0  0  0  0  0
   -7.2442    3.0888   13.2798 C   0  0  0  0  0  0  0  0  0  0  0  0
   -8.1231    3.6777   12.4371 F   0  0  0  0  0  0  0  0  0  0  0  0
   -7.1000    1.7202   13.1957 C   0  0  0  0  0  0  0  0  0  0  0  0
   -5.5707   -0.8240   12.5921 C   0  0  0  0  0  0  0  0  0  0  0  0
   -5.1846   -2.1572   12.3140 C   0  0  0  0  0  0  0  0  0  0  0  0
   -5.1920   -3.1075   13.3475 C   0  0  0  0  0  0  0  0  0  0  0  0
   -4.7345   -4.4848   13.1298 C   0  0  0  0  0  0  0  0  0  0  0  0
   -3.5030   -4.7387   12.5268 C   0  0  0  0  0  0  0  0  0  0  0  0
   -3.0515   -6.0311   12.3704 C   0  0  0  0  0  0  0  0  0  0  0  0
   -3.8110   -7.1211   12.7918 C   0  0  0  0  0  0  0  0  0  0  0  0
   -3.1415   -8.7338   12.5116 S   0  0  0  0  0  0  0  0  0  0  0  0
   -3.5763   -9.6617   14.0290 C   0  0  0  0  0  0  0  0  0  0  0  0
   -3.0409   -8.9917   15.2783 C   0  0  0  0  0  0  0  0  0  0  0  0
   -5.0539   -6.8538   13.3578 C   0  0  0  0  0  0  0  0  0  0  0  0
   -5.5072   -5.5638   13.5447 C   0  0  0  0  0  0  0  0  0  0  0  0
   -5.8689   -7.8593   13.7437 F   0  0  0  0  0  0  0  0  0  0  0  0
   -5.6122   -2.6681   14.5970 C   0  0  0  0  0  0  0  0  0  0  0  0
   -5.7015   -3.6443   16.0417 S   0  0  0  0  0  0  0  0  0  0  0  0
   -4.8304   -2.3309   10.9472 C   0  0  0  0  0  0  0  0  0  0  0  0
   -4.9048   -1.1831   10.2186 C   0  0  0  0  0  0  0  0  0  0  0  0
   -5.4366    0.1849   11.1811 S   0  0  0  0  0  0  0  0  0  0  0  0
   -4.6061   -0.9320    8.8470 C   0  0  0  0  0  0  0  0  0  0  0  0
   -4.7183    0.2810    8.2363 C   0  0  0  0  0  0  0  0  0  0  0  0
   -4.3057    0.2856    6.8838 C   0  0  0  0  0  0  0  0  0  0  0  0
   -4.3015    1.3819    6.0032 C   0  0  0  0  0  0  0  0  0  0  0  0
   -4.7034    2.7058    6.4952 C   0  0  0  0  0  0  0  0  0  0  0  0
   -4.1285    3.2246    7.6559 C   0  0  0  0  0  0  0  0  0  0  0  0
   -4.5827    4.4067    8.1980 C   0  0  0  0  0  0  0  0  0  0  0  0
   -5.6177    5.1216    7.6009 C   0  0  0  0  0  0  0  0  0  0  0  0
   -6.1703    6.5952    8.4119 S   0  0  0  0  0  0  0  0  0  0  0  0
   -7.9951    6.4642    8.3130 C   0  0  0  0  0  0  0  0  0  0  0  0
   -8.5113    5.1699    8.9081 C   0  0  0  0  0  0  0  0  0  0  0  0
   -6.1238    4.6367    6.3988 C   0  0  0  0  0  0  0  0  0  0  0  0
   -7.0828    5.3160    5.7340 F   0  0  0  0  0  0  0  0  0  0  0  0
   -5.6896    3.4445    5.8523 C   0  0  0  0  0  0  0  0  0  0  0  0
   -3.8911    1.1299    4.7053 C   0  0  0  0  0  0  0  0  0  0  0  0
   -3.4791   -0.1578    4.2807 C   0  0  0  0  0  0  0  0  0  0  0  0
   -3.4958   -1.2588    5.1570 C   0  0  0  0  0  0  0  0  0  0  0  0
   -3.0808   -2.5788    4.6657 C   0  0  0  0  0  0  0  0  0  0  0  0
   -2.1104   -3.3331    5.3169 C   0  0  0  0  0  0  0  0  0  0  0  0
   -1.6514   -4.5217    4.7804 C   0  0  0  0  0  0  0  0  0  0  0  0
   -2.1453   -4.9980    3.5710 C   0  0  0  0  0  0  0  0  0  0  0  0
   -1.6241   -6.4741    2.7629 S   0  0  0  0  0  0  0  0  0  0  0  0
    0.0364   -6.7912    3.4518 C   0  0  0  0  0  0  0  0  0  0  0  0
    1.0382   -5.7322    3.0353 C   0  0  0  0  0  0  0  0  0  0  0  0
   -3.1565   -4.2579    2.9561 C   0  0  0  0  0  0  0  0  0  0  0  0
   -3.6236   -3.0748    3.4798 C   0  0  0  0  0  0  0  0  0  0  0  0
   -3.6810   -4.7015    1.7946 F   0  0  0  0  0  0  0  0  0  0  0  0
   -3.8951   -1.0024    6.4575 C   0  0  0  0  0  0  0  0  0  0  0  0
   -4.0010   -2.1657    7.7591 S   0  0  0  0  0  0  0  0  0  0  0  0
   -2.9980   -0.1402    2.9530 C   0  0  0  0  0  0  0  0  0  0  0  0
   -3.0464    1.0877    2.3574 C   0  0  0  0  0  0  0  0  0  0  0  0
   -3.7165    2.3047    3.4233 S   0  0  0  0  0  0  0  0  0  0  0  0
   -2.5570    1.3615    1.0445 C   0  0  0  0  0  0  0  0  0  0  0  0
   -1.9144    0.4469    0.2611 C   0  0  0  0  0  0  0  0  0  0  0  0
   -1.4565    0.9655   -0.9685 C   0  0  0  0  0  0  0  0  0  0  0  0
   -0.7661    0.2629   -1.9696 C   0  0  0  0  0  0  0  0  0  0  0  0
   -0.4057   -1.1466   -1.7628 C   0  0  0  0  0  0  0  0  0  0  0  0
    0.3028   -1.5294   -0.6240 C   0  0  0  0  0  0  0  0  0  0  0  0
    0.5634   -2.8588   -0.3706 C   0  0  0  0  0  0  0  0  0  0  0  0
    0.1279   -3.8548   -1.2402 C   0  0  0  0  0  0  0  0  0  0  0  0
    0.4678   -5.5391   -0.8119 S   0  0  0  0  0  0  0  0  0  0  0  0
   -1.1406   -6.3849   -1.0947 C   0  0  0  0  0  0  0  0  0  0  0  0
   -1.0940   -7.3480   -2.2631 C   0  0  0  0  0  0  0  0  0  0  0  0
   -0.5213   -3.4550   -2.4039 C   0  0  0  0  0  0  0  0  0  0  0  0
   -0.9190   -4.3712   -3.3112 F   0  0  0  0  0  0  0  0  0  0  0  0
   -0.7940   -2.1269   -2.6683 C   0  0  0  0  0  0  0  0  0  0  0  0
   -0.4485    0.9729   -3.1105 C   0  0  0  0  0  0  0  0  0  0  0  0
   -0.7814    2.3406   -3.2895 C   0  0  0  0  0  0  0  0  0  0  0  0
   -1.4999    3.0339   -2.2955 C   0  0  0  0  0  0  0  0  0  0  0  0
   -1.9176    4.4227   -2.5088 C   0  0  0  0  0  0  0  0  0  0  0  0
   -1.7405    5.4010   -1.5352 C   0  0  0  0  0  0  0  0  0  0  0  0
   -2.1289    6.7084   -1.7550 C   0  0  0  0  0  0  0  0  0  0  0  0
   -2.7177    7.0873   -2.9563 C   0  0  0  0  0  0  0  0  0  0  0  0
   -3.2283    8.7210   -3.3742 S   0  0  0  0  0  0  0  0  0  0  0  0
   -3.3449    9.5732   -1.7637 C   0  0  0  0  0  0  0  0  0  0  0  0
   -4.4791    9.0388   -0.9106 C   0  0  0  0  0  0  0  0  0  0  0  0
   -2.8904    6.0962   -3.9238 C   0  0  0  0  0  0  0  0  0  0  0  0
   -2.5093    4.7910   -3.7178 C   0  0  0  0  0  0  0  0  0  0  0  0
   -3.4492    6.4224   -5.1107 F   0  0  0  0  0  0  0  0  0  0  0  0
   -1.7991    2.3287   -1.1375 C   0  0  0  0  0  0  0  0  0  0  0  0
   -2.6568    2.9278    0.2652 S   0  0  0  0  0  0  0  0  0  0  0  0
   -0.2464    2.8562   -4.4961 C   0  0  0  0  0  0  0  0  0  0  0  0
    0.4432    1.9360   -5.2361 C   0  0  0  0  0  0  0  0  0  0  0  0
    0.4621    0.3569   -4.4579 S   0  0  0  0  0  0  0  0  0  0  0  0
    1.1434    2.0630   -6.4645 C   0  0  0  0  0  0  0  0  0  0  0  0
    2.3453    0.8679   -6.8213 S   0  0  0  0  0  0  0  0  0  0  0  0
    2.7503    1.5926   -8.3437 C   0  0  0  0  0  0  0  0  0  0  0  0
    1.9347    2.7012   -8.5890 C   0  0  0  0  0  0  0  0  0  0  0  0
    1.0381    2.9835   -7.5114 C   0  0  0  0  0  0  0  0  0  0  0  0
    0.1359    4.0628   -7.6268 C   0  0  0  0  0  0  0  0  0  0  0  0
    0.1074    4.8206   -8.7650 C   0  0  0  0  0  0  0  0  0  0  0  0
   -0.7044    5.8800   -8.9801 O   0  0  0  0  0  0  0  0  0  0  0  0
   -1.5921    6.2657   -7.9566 C   0  0  0  0  0  0  0  0  0  0  0  0
    0.9655    4.4920   -9.8751 C   0  0  0  0  0  0  0  0  0  0  0  0
    0.7872    5.2756  -10.9683 O   0  0  0  0  0  0  0  0  0  0  0  0
    1.5070    4.9689  -12.1351 C   0  0  0  0  0  0  0  0  0  0  0  0
    1.8488    3.4536   -9.7815 C   0  0  0  0  0  0  0  0  0  0  0  0
    3.7701    0.9540   -9.0958 C   0  0  0  0  0  0  0  0  0  0  0  0
    3.9376   -0.7569   -8.8799 S   0  0  0  0  0  0  0  0  0  0  0  0
    5.3158   -0.8578   -9.9252 C   0  0  0  0  0  0  0  0  0  0  0  0
    5.6304    0.4052  -10.4392 C   0  0  0  0  0  0  0  0  0  0  0  0
    4.7712    1.4366   -9.9439 C   0  0  0  0  0  0  0  0  0  0  0  0
    5.0552    2.7874  -10.2444 C   0  0  0  0  0  0  0  0  0  0  0  0
    6.0936    3.1034  -11.0742 C   0  0  0  0  0  0  0  0  0  0  0  0
    6.4686    4.3602  -11.4236 O   0  0  0  0  0  0  0  0  0  0  0  0
    5.7868    5.4447  -10.8466 C   0  0  0  0  0  0  0  0  0  0  0  0
    6.9017    2.0607  -11.6499 C   0  0  0  0  0  0  0  0  0  0  0  0
    7.8729    2.5017  -12.4869 O   0  0  0  0  0  0  0  0  0  0  0  0
    8.7305    1.5562  -13.0765 C   0  0  0  0  0  0  0  0  0  0  0  0
    6.6793    0.7538  -11.3179 C   0  0  0  0  0  0  0  0  0  0  0  0
    5.9386   -2.1308  -10.0357 C   0  0  0  0  0  0  0  0  0  0  0  0
    6.9891   -2.5778  -10.7877 C   0  0  0  0  0  0  0  0  0  0  0  0
    7.3277   -3.9356  -10.5554 C   0  0  0  0  0  0  0  0  0  0  0  0
    8.3878   -4.6705  -11.1123 C   0  0  0  0  0  0  0  0  0  0  0  0
    9.2640   -4.0649  -12.1218 C   0  0  0  0  0  0  0  0  0  0  0  0
    8.7287   -3.4362  -13.2462 C   0  0  0  0  0  0  0  0  0  0  0  0
    9.5492   -2.8065  -14.1567 C   0  0  0  0  0  0  0  0  0  0  0  0
   10.9329   -2.7853  -13.9921 C   0  0  0  0  0  0  0  0  0  0  0  0
   11.8821   -1.9517  -15.2319 S   0  0  0  0  0  0  0  0  0  0  0  0
   13.1893   -1.0906  -14.2816 C   0  0  0  0  0  0  0  0  0  0  0  0
   12.6108   -0.1475  -13.2458 C   0  0  0  0  0  0  0  0  0  0  0  0
   11.4565   -3.4624  -12.8953 C   0  0  0  0  0  0  0  0  0  0  0  0
   12.7911   -3.5245  -12.6934 F   0  0  0  0  0  0  0  0  0  0  0  0
   10.6454   -4.0813  -11.9653 C   0  0  0  0  0  0  0  0  0  0  0  0
    8.5623   -5.9658  -10.6440 C   0  0  0  0  0  0  0  0  0  0  0  0
    7.7352   -6.5541   -9.6562 C   0  0  0  0  0  0  0  0  0  0  0  0
    6.6820   -5.8189   -9.0946 C   0  0  0  0  0  0  0  0  0  0  0  0
    5.8435   -6.3136   -7.9952 C   0  0  0  0  0  0  0  0  0  0  0  0
    6.4155   -6.8087   -6.8244 C   0  0  0  0  0  0  0  0  0  0  0  0
    5.6274   -7.1195   -5.7366 C   0  0  0  0  0  0  0  0  0  0  0  0
    4.2428   -6.9687   -5.7766 C   0  0  0  0  0  0  0  0  0  0  0  0
    3.3275   -7.3519   -4.3125 S   0  0  0  0  0  0  0  0  0  0  0  0
    2.0747   -6.0200   -4.2187 C   0  0  0  0  0  0  0  0  0  0  0  0
    2.6977   -4.6393   -4.2302 C   0  0  0  0  0  0  0  0  0  0  0  0
    3.6803   -6.5466   -6.9776 C   0  0  0  0  0  0  0  0  0  0  0  0
    4.4584   -6.2034   -8.0641 C   0  0  0  0  0  0  0  0  0  0  0  0
    2.3408   -6.4527   -7.1166 F   0  0  0  0  0  0  0  0  0  0  0  0
    6.4985   -4.5319   -9.5759 C   0  0  0  0  0  0  0  0  0  0  0  0
    5.3043   -3.4056   -8.9989 S   0  0  0  0  0  0  0  0  0  0  0  0
    8.1078   -7.9055   -9.3927 C   0  0  0  0  0  0  0  0  0  0  0  0
    9.1582   -8.3140  -10.1323 C   0  0  0  0  0  0  0  0  0  0  0  0
    9.7726   -7.0952  -11.1978 S   0  0  0  0  0  0  0  0  0  0  0  0
   -6.4611   -2.4233   18.0015 H   0  0  0  0  0  0  0  0  0  0  0  0
   -6.6845   -0.2097   16.6381 H   0  0  0  0  0  0  0  0  0  0  0  0
   -4.8690    1.2951   15.6923 H   0  0  0  0  0  0  0  0  0  0  0  0
   -5.1340    3.7394   15.8050 H   0  0  0  0  0  0  0  0  0  0  0  0
   -6.1967    5.3050   11.9297 H   0  0  0  0  0  0  0  0  0  0  0  0
   -7.7293    6.1658   12.2355 H   0  0  0  0  0  0  0  0  0  0  0  0
   -6.4477    8.2070   12.8702 H   0  0  0  0  0  0  0  0  0  0  0  0
   -4.9280    7.3476   12.6088 H   0  0  0  0  0  0  0  0  0  0  0  0
   -5.9957    7.6825   11.2403 H   0  0  0  0  0  0  0  0  0  0  0  0
   -7.6882    1.1820   12.4690 H   0  0  0  0  0  0  0  0  0  0  0  0
   -2.8817   -3.9132   12.2144 H   0  0  0  0  0  0  0  0  0  0  0  0
   -2.0898   -6.2235   11.9209 H   0  0  0  0  0  0  0  0  0  0  0  0
   -3.1044  -10.6314   13.8697 H   0  0  0  0  0  0  0  0  0  0  0  0
   -4.6551   -9.7947   14.0672 H   0  0  0  0  0  0  0  0  0  0  0  0
   -1.9656   -8.8434   15.2014 H   0  0  0  0  0  0  0  0  0  0  0  0
   -3.5132   -8.0232   15.4334 H   0  0  0  0  0  0  0  0  0  0  0  0
   -3.2472   -9.6162   16.1450 H   0  0  0  0  0  0  0  0  0  0  0  0
   -6.4799   -5.4170   13.9874 H   0  0  0  0  0  0  0  0  0  0  0  0
   -4.5429   -3.2745   10.5186 H   0  0  0  0  0  0  0  0  0  0  0  0
   -5.0999    1.1483    8.7444 H   0  0  0  0  0  0  0  0  0  0  0  0
   -3.3230    2.6901    8.1359 H   0  0  0  0  0  0  0  0  0  0  0  0
   -4.1521    4.7931    9.1088 H   0  0  0  0  0  0  0  0  0  0  0  0
   -8.2979    6.5840    7.2747 H   0  0  0  0  0  0  0  0  0  0  0  0
   -8.3388    7.3262    8.8848 H   0  0  0  0  0  0  0  0  0  0  0  0
   -8.1746    5.0516    9.9354 H   0  0  0  0  0  0  0  0  0  0  0  0
   -8.1678    4.3124    8.3322 H   0  0  0  0  0  0  0  0  0  0  0  0
   -9.5993    5.1742    8.8980 H   0  0  0  0  0  0  0  0  0  0  0  0
   -6.1414    3.0955    4.9367 H   0  0  0  0  0  0  0  0  0  0  0  0
   -1.6879   -2.9743    6.2430 H   0  0  0  0  0  0  0  0  0  0  0  0
   -0.8945   -5.0752    5.3124 H   0  0  0  0  0  0  0  0  0  0  0  0
    0.3023   -7.7619    3.0337 H   0  0  0  0  0  0  0  0  0  0  0  0
   -0.0462   -6.8902    4.5335 H   0  0  0  0  0  0  0  0  0  0  0  0
    0.7481   -4.7527    3.4114 H   0  0  0  0  0  0  0  0  0  0  0  0
    2.0213   -5.9794    3.4308 H   0  0  0  0  0  0  0  0  0  0  0  0
    1.1017   -5.6839    1.9503 H   0  0  0  0  0  0  0  0  0  0  0  0
   -4.4111   -2.5464    2.9652 H   0  0  0  0  0  0  0  0  0  0  0  0
   -2.5993   -1.0112    2.4695 H   0  0  0  0  0  0  0  0  0  0  0  0
   -1.7678   -0.5781    0.5440 H   0  0  0  0  0  0  0  0  0  0  0  0
    0.6488   -0.7740    0.0654 H   0  0  0  0  0  0  0  0  0  0  0  0
    1.0998   -3.1520    0.5186 H   0  0  0  0  0  0  0  0  0  0  0  0
   -1.8912   -5.6100   -1.2318 H   0  0  0  0  0  0  0  0  0  0  0  0
   -1.3440   -6.9089   -0.1605 H   0  0  0  0  0  0  0  0  0  0  0  0
   -0.2946   -8.0738   -2.1282 H   0  0  0  0  0  0  0  0  0  0  0  0
   -0.9322   -6.8187   -3.1984 H   0  0  0  0  0  0  0  0  0  0  0  0
   -2.0403   -7.8812   -2.3270 H   0  0  0  0  0  0  0  0  0  0  0  0
   -1.3227   -1.8722   -3.5736 H   0  0  0  0  0  0  0  0  0  0  0  0
   -1.2693    5.1445   -0.5990 H   0  0  0  0  0  0  0  0  0  0  0  0
   -1.9556    7.4374   -0.9803 H   0  0  0  0  0  0  0  0  0  0  0  0
   -3.5230   10.6122   -2.0411 H   0  0  0  0  0  0  0  0  0  0  0  0
   -2.3797    9.5098   -1.2627 H   0  0  0  0  0  0  0  0  0  0  0  0
   -4.5376    9.6001    0.0199 H   0  0  0  0  0  0  0  0  0  0  0  0
   -5.4247    9.1399   -1.4381 H   0  0  0  0  0  0  0  0  0  0  0  0
   -4.3295    7.9876   -0.6729 H   0  0  0  0  0  0  0  0  0  0  0  0
   -2.7005    4.0594   -4.4873 H   0  0  0  0  0  0  0  0  0  0  0  0
   -0.3067    3.8952   -4.7590 H   0  0  0  0  0  0  0  0  0  0  0  0
   -0.5463    4.2603   -6.8197 H   0  0  0  0  0  0  0  0  0  0  0  0
   -2.1228    7.1361   -8.3365 H   0  0  0  0  0  0  0  0  0  0  0  0
   -1.0571    6.5416   -7.0428 H   0  0  0  0  0  0  0  0  0  0  0  0
   -2.3146    5.4768   -7.7288 H   0  0  0  0  0  0  0  0  0  0  0  0
    2.5880    5.0641  -11.9822 H   0  0  0  0  0  0  0  0  0  0  0  0
    1.1853    5.6953  -12.8792 H   0  0  0  0  0  0  0  0  0  0  0  0
    1.2842    3.9582  -12.4920 H   0  0  0  0  0  0  0  0  0  0  0  0
    2.4607    3.1607  -10.6177 H   0  0  0  0  0  0  0  0  0  0  0  0
    4.4608    3.5523   -9.7746 H   0  0  0  0  0  0  0  0  0  0  0  0
    6.2676    6.3383  -11.2406 H   0  0  0  0  0  0  0  0  0  0  0  0
    5.8688    5.4376   -9.7548 H   0  0  0  0  0  0  0  0  0  0  0  0
    4.7272    5.4527  -11.1255 H   0  0  0  0  0  0  0  0  0  0  0  0
    9.3071    1.0096  -12.3224 H   0  0  0  0  0  0  0  0  0  0  0  0
    9.4097    2.1299  -13.7047 H   0  0  0  0  0  0  0  0  0  0  0  0
    8.1793    0.8423  -13.6975 H   0  0  0  0  0  0  0  0  0  0  0  0
    7.3060   -0.0223  -11.7170 H   0  0  0  0  0  0  0  0  0  0  0  0
    7.5367   -1.9686  -11.4799 H   0  0  0  0  0  0  0  0  0  0  0  0
    7.6613   -3.4512  -13.4063 H   0  0  0  0  0  0  0  0  0  0  0  0
    9.1319   -2.3128  -15.0210 H   0  0  0  0  0  0  0  0  0  0  0  0
   13.8502   -1.8303  -13.8358 H   0  0  0  0  0  0  0  0  0  0  0  0
   13.7357   -0.5432  -15.0496 H   0  0  0  0  0  0  0  0  0  0  0  0
   12.0617   -0.6985  -12.4841 H   0  0  0  0  0  0  0  0  0  0  0  0
   11.9339    0.5650  -13.7133 H   0  0  0  0  0  0  0  0  0  0  0  0
   13.4153    0.4000  -12.7591 H   0  0  0  0  0  0  0  0  0  0  0  0
   11.1048   -4.5659  -11.1181 H   0  0  0  0  0  0  0  0  0  0  0  0
    7.4887   -6.9013   -6.7531 H   0  0  0  0  0  0  0  0  0  0  0  0
    6.0755   -7.4691   -4.8194 H   0  0  0  0  0  0  0  0  0  0  0  0
    1.5857   -6.2163   -3.2652 H   0  0  0  0  0  0  0  0  0  0  0  0
    1.3566   -6.1497   -5.0254 H   0  0  0  0  0  0  0  0  0  0  0  0
    1.9198   -3.8880   -4.1080 H   0  0  0  0  0  0  0  0  0  0  0  0
    3.4116   -4.5354   -3.4154 H   0  0  0  0  0  0  0  0  0  0  0  0
    3.2112   -4.4458   -5.1706 H   0  0  0  0  0  0  0  0  0  0  0  0
    3.9692   -5.8689   -8.9655 H   0  0  0  0  0  0  0  0  0  0  0  0
    7.5887   -8.5323   -8.6904 H   0  0  0  0  0  0  0  0  0  0  0  0
    9.6331   -9.2756  -10.1308 H   0  0  0  0  0  0  0  0  0  0  0  0
  1  2  2  0  0  0  0
  2  3  1  0  0  0  0
  3  4  2  0  0  0  0
  4  5  1  0  0  0  0
  5  6  2  0  0  0  0
  6  7  1  0  0  0  0
  7  8  2  0  0  0  0
  8  9  1  0  0  0  0
  9 10  1  0  0  0  0
 10 11  1  0  0  0  0
  8 12  1  0  0  0  0
 12 13  1  0  0  0  0
 12 14  2  0  0  0  0
  4 15  1  0  0  0  0
 15 16  2  0  0  0  0
 16 17  1  0  0  0  0
 17 18  1  0  0  0  0
 18 19  2  0  0  0  0
 19 20  1  0  0  0  0
 20 21  2  0  0  0  0
 21 22  1  0  0  0  0
 22 23  1  0  0  0  0
 23 24  1  0  0  0  0
 21 25  1  0  0  0  0
 25 26  2  0  0  0  0
 25 27  1  0  0  0  0
 17 28  2  0  0  0  0
 28 29  1  0  0  0  0
 16 30  1  0  0  0  0
 30 31  2  0  0  0  0
 31 32  1  0  0  0  0
 31 33  1  0  0  0  0
 33 34  2  0  0  0  0
 34 35  1  0  0  0  0
 35 36  2  0  0  0  0
 36 37  1  0  0  0  0
 37 38  2  0  0  0  0
 38 39  1  0  0  0  0
 39 40  2  0  0  0  0
 40 41  1  0  0  0  0
 41 42  1  0  0  0  0
 42 43  1  0  0  0  0
 40 44  1  0  0  0  0
 44 45  1  0  0  0  0
 44 46  2  0  0  0  0
 36 47  1  0  0  0  0
 47 48  2  0  0  0  0
 48 49  1  0  0  0  0
 49 50  1  0  0  0  0
 50 51  2  0  0  0  0
 51 52  1  0  0  0  0
 52 53  2  0  0  0  0
 53 54  1  0  0  0  0
 54 55  1  0  0  0  0
 55 56  1  0  0  0  0
 53 57  1  0  0  0  0
 57 58  2  0  0  0  0
 57 59  1  0  0  0  0
 49 60  2  0  0  0  0
 60 61  1  0  0  0  0
 48 62  1  0  0  0  0
 62 63  2  0  0  0  0
 63 64  1  0  0  0  0
 63 65  1  0  0  0  0
 65 66  2  0  0  0  0
 66 67  1  0  0  0  0
 67 68  2  0  0  0  0
 68 69  1  0  0  0  0
 69 70  2  0  0  0  0
 70 71  1  0  0  0  0
 71 72  2  0  0  0  0
 72 73  1  0  0  0  0
 73 74  1  0  0  0  0
 74 75  1  0  0  0  0
 72 76  1  0  0  0  0
 76 77  1  0  0  0  0
 76 78  2  0  0  0  0
 68 79  1  0  0  0  0
 79 80  2  0  0  0  0
 80 81  1  0  0  0  0
 81 82  1  0  0  0  0
 82 83  2  0  0  0  0
 83 84  1  0  0  0  0
 84 85  2  0  0  0  0
 85 86  1  0  0  0  0
 86 87  1  0  0  0  0
 87 88  1  0  0  0  0
 85 89  1  0  0  0  0
 89 90  2  0  0  0  0
 89 91  1  0  0  0  0
 81 92  2  0  0  0  0
 92 93  1  0  0  0  0
 80 94  1  0  0  0  0
 94 95  2  0  0  0  0
 95 96  1  0  0  0  0
 95 97  1  0  0  0  0
 97 98  1  0  0  0  0
 98 99  1  0  0  0  0
 99100  2  0  0  0  0
100101  1  0  0  0  0
101102  1  0  0  0  0
102103  2  0  0  0  0
103104  1  0  0  0  0
104105  1  0  0  0  0
103106  1  0  0  0  0
106107  1  0  0  0  0
107108  1  0  0  0  0
106109  2  0  0  0  0
 99110  1  0  0  0  0
110111  1  0  0  0  0
111112  1  0  0  0  0
112113  2  0  0  0  0
113114  1  0  0  0  0
114115  1  0  0  0  0
115116  2  0  0  0  0
116117  1  0  0  0  0
117118  1  0  0  0  0
116119  1  0  0  0  0
119120  1  0  0  0  0
120121  1  0  0  0  0
119122  2  0  0  0  0
112123  1  0  0  0  0
123124  2  0  0  0  0
124125  1  0  0  0  0
125126  2  0  0  0  0
126127  1  0  0  0  0
127128  2  0  0  0  0
128129  1  0  0  0  0
129130  2  0  0  0  0
130131  1  0  0  0  0
131132  1  0  0  0  0
132133  1  0  0  0  0
130134  1  0  0  0  0
134135  1  0  0  0  0
134136  2  0  0  0  0
126137  1  0  0  0  0
137138  2  0  0  0  0
138139  1  0  0  0  0
139140  1  0  0  0  0
140141  2  0  0  0  0
141142  1  0  0  0  0
142143  2  0  0  0  0
143144  1  0  0  0  0
144145  1  0  0  0  0
145146  1  0  0  0  0
143147  1  0  0  0  0
147148  2  0  0  0  0
147149  1  0  0  0  0
139150  2  0  0  0  0
150151  1  0  0  0  0
138152  1  0  0  0  0
152153  2  0  0  0  0
153154  1  0  0  0  0
 29  1  1  0  0  0  0
 61 33  1  0  0  0  0
 93 65  1  0  0  0  0
101 97  2  0  0  0  0
114110  2  0  0  0  0
151123  1  0  0  0  0
 28  3  1  0  0  0  0
 60 35  1  0  0  0  0
 92 67  1  0  0  0  0
109100  1  0  0  0  0
122113  1  0  0  0  0
150125  1  0  0  0  0
 14  5  1  0  0  0  0
 32 15  1  0  0  0  0
 46 37  1  0  0  0  0
 64 47  1  0  0  0  0
 78 69  1  0  0  0  0
 96 79  1  0  0  0  0
136127  1  0  0  0  0
154137  1  0  0  0  0
 26 18  1  0  0  0  0
 58 50  1  0  0  0  0
 90 82  1  0  0  0  0
148140  1  0  0  0  0
  1155  1  0  0  0  0
  2156  1  0  0  0  0
  6157  1  0  0  0  0
  7158  1  0  0  0  0
 10159  1  0  0  0  0
 10160  1  0  0  0  0
 11161  1  0  0  0  0
 11162  1  0  0  0  0
 11163  1  0  0  0  0
 14164  1  0  0  0  0
 19165  1  0  0  0  0
 20166  1  0  0  0  0
 23167  1  0  0  0  0
 23168  1  0  0  0  0
 24169  1  0  0  0  0
 24170  1  0  0  0  0
 24171  1  0  0  0  0
 26172  1  0  0  0  0
 30173  1  0  0  0  0
 34174  1  0  0  0  0
 38175  1  0  0  0  0
 39176  1  0  0  0  0
 42177  1  0  0  0  0
 42178  1  0  0  0  0
 43179  1  0  0  0  0
 43180  1  0  0  0  0
 43181  1  0  0  0  0
 46182  1  0  0  0  0
 51183  1  0  0  0  0
 52184  1  0  0  0  0
 55185  1  0  0  0  0
 55186  1  0  0  0  0
 56187  1  0  0  0  0
 56188  1  0  0  0  0
 56189  1  0  0  0  0
 58190  1  0  0  0  0
 62191  1  0  0  0  0
 66192  1  0  0  0  0
 70193  1  0  0  0  0
 71194  1  0  0  0  0
 74195  1  0  0  0  0
 74196  1  0  0  0  0
 75197  1  0  0  0  0
 75198  1  0  0  0  0
 75199  1  0  0  0  0
 78200  1  0  0  0  0
 83201  1  0  0  0  0
 84202  1  0  0  0  0
 87203  1  0  0  0  0
 87204  1  0  0  0  0
 88205  1  0  0  0  0
 88206  1  0  0  0  0
 88207  1  0  0  0  0
 90208  1  0  0  0  0
 94209  1  0  0  0  0
102210  1  0  0  0  0
105211  1  0  0  0  0
105212  1  0  0  0  0
105213  1  0  0  0  0
108214  1  0  0  0  0
108215  1  0  0  0  0
108216  1  0  0  0  0
109217  1  0  0  0  0
115218  1  0  0  0  0
118219  1  0  0  0  0
118220  1  0  0  0  0
118221  1  0  0  0  0
121222  1  0  0  0  0
121223  1  0  0  0  0
121224  1  0  0  0  0
122225  1  0  0  0  0
124226  1  0  0  0  0
128227  1  0  0  0  0
129228  1  0  0  0  0
132229  1  0  0  0  0
132230  1  0  0  0  0
133231  1  0  0  0  0
133232  1  0  0  0  0
133233  1  0  0  0  0
136234  1  0  0  0  0
141235  1  0  0  0  0
142236  1  0  0  0  0
145237  1  0  0  0  0
145238  1  0  0  0  0
146239  1  0  0  0  0
146240  1  0  0  0  0
146241  1  0  0  0  0
148242  1  0  0  0  0
152243  1  0  0  0  0
153244  1  0  0  0  0
M  END
