191

C         -4.40320       -5.27510      -14.00750
S         -2.71280       -5.14150      -13.81170
C         -2.86060       -4.43440      -12.22380
C         -4.21590       -4.31460      -11.88750
C         -5.08800       -4.79800      -12.91550
C         -6.49420       -4.75380      -12.74150
C         -7.01880       -4.24200      -11.59280
O         -8.33900       -4.14590      -11.29670
C         -9.26730       -4.61430      -12.24210
C         -6.14480       -3.72820      -10.56580
O         -6.79190       -3.22910       -9.48490
C         -6.02370       -2.72710       -8.41830
C         -4.78740       -3.76360      -10.72060
C         -1.71550       -4.12630      -11.44790
S         -1.84230       -3.98460       -9.72180
C         -0.14400       -3.70430       -9.51020
C          0.50530       -3.69700      -10.74880
C         -0.37980       -3.94470      -11.84190
C          0.13380       -3.93350      -13.15660
C          1.46250       -3.70440      -13.38160
O          2.05720       -3.67610      -14.59990
C          1.26210       -3.90890      -15.73590
C          2.34970       -3.44230      -12.28040
O          3.63490       -3.20840      -12.63480
C          4.57040       -2.94440      -11.61730
C          1.86720       -3.42950      -11.00130
C          0.34690       -3.48570       -8.20000
C          1.62340       -3.56220       -7.71000
C          1.73720       -3.20940       -6.34740
C          2.90610       -3.15480       -5.56170
C          4.21510       -3.36190       -6.15440
S          5.37430       -4.46200       -5.46820
C          6.55150       -4.10910       -6.68710
C          7.86790       -4.80390       -6.72250
C          7.79420       -6.07460       -7.57260
C          6.05890       -3.19550       -7.57050
Cl         6.93790       -2.59830       -8.92060
C          4.74130       -2.76320       -7.26670
Cl         3.94950       -1.53040       -8.16410
C          2.74770       -2.84440       -4.21920
C          1.49110       -2.55040       -3.63940
C          0.32040       -2.61200       -4.42180
C         -0.98040       -2.37340       -3.82330
S         -2.11410       -1.24710       -4.50890
C         -3.27570       -1.53500       -3.25950
C         -4.56190       -0.78700       -3.20230
C         -4.42330        0.47030       -2.33990
C         -2.79910       -2.45180       -2.37070
C         -1.50330       -2.93580       -2.69020
Cl        -0.73360       -4.16860       -1.77590
Cl        -3.67040       -2.98610       -0.99240
C          0.47940       -2.91430       -5.76420
S         -0.79760       -3.03130       -6.93880
C          1.61180       -2.15180       -2.29320
C          2.89480       -2.16690       -1.81250
S          4.03110       -2.67330       -3.05250
C          3.27060       -1.79140       -0.49820
S          2.03050       -1.15990        0.53760
C          3.13540       -0.87660        1.83940
C          4.42190       -1.30070        1.49860
C          4.50010       -1.81320        0.16680
C          5.73560       -2.28420       -0.32520
C          6.84690       -2.25830        0.47020
O          8.07970       -2.68240        0.10460
C          8.24720       -3.20160       -1.19250
C          6.76130       -1.76910        1.82260
O          7.92660       -1.82060        2.51190
C          7.94280       -1.33770        3.83280
C          5.57250       -1.30990        2.31640
C          2.64040       -0.25660        3.01710
C          3.30120        0.45260        3.98150
C          2.45370        0.97410        4.98710
C          2.81770        1.73520        6.11440
C          4.21440        2.00470        6.40960
S          5.37850        0.70850        6.46790
C          6.67770        1.78050        6.86590
C          8.05310        1.27110        7.12310
C          8.22860        0.89230        8.59570
C          6.22020        3.06070        6.95220
Cl         7.21730        4.40610        7.32470
C          4.82930        3.19350        6.68880
Cl         4.05500        4.72100        6.63870
C          1.78570        2.18460        6.92990
C          0.42210        1.90310        6.66260
C          0.06130        1.10110        5.56540
C         -1.32180        0.73590        5.31380
S         -2.01240        0.91170        3.72680
C         -3.54980        0.30110        4.23780
C         -4.67260        0.15780        3.27020
C         -4.29910       -0.77450        2.11730
C         -3.51320       -0.01620        5.56250
C         -2.25340        0.22450        6.17610
Cl        -1.94990       -0.19360        7.81530
Cl        -4.84830       -0.64040        6.44350
C          1.09170        0.67270        4.74200
S          0.90910       -0.30070        3.31430
C         -0.43710        2.50400        7.60920
C          0.22230        3.15820        8.60870
S          1.95680        3.10710        8.39660
C         -0.38890        3.78360        9.73740
C         -1.68160        3.60540       10.13380
C         -2.01370        4.30980       11.31450
C         -3.24930        4.33010       11.98260
C         -4.33980        3.48590       11.52430
S         -5.91150        4.12760       11.15220
C         -6.51080        2.58190       10.65710
C         -7.88700        2.41640       10.11320
C         -7.88010        2.48550        8.58380
C         -5.53960        1.63300       10.78160
Cl        -5.76070       -0.02010       10.37860
C         -4.30970        2.13990       11.27730
Cl        -2.95910        1.12790       11.59560
C         -3.35130        5.16670       13.08560
C         -2.27190        5.95240       13.55650
C         -1.03520        5.92390       12.89150
C          0.07540        6.76130       13.31400
S          1.65430        6.09920       13.61060
C          2.31780        7.65050       13.99370
C          3.76330        7.81200       14.31080
C          4.59240        7.89730       13.02690
C          1.36230        8.61610       13.88220
C          0.08840        8.11570       13.50180
Cl        -1.26190        9.14000       13.22780
Cl         1.64660       10.28370       14.17210
C         -0.92770        5.08020       11.79320
S          0.48620        4.86570       10.79820
C         -2.62160        6.66180       14.74290
C         -3.89370        6.43970       15.13040
S         -4.75580        5.35180       14.09720
H         -4.79960       -5.69190      -14.91130
H         -7.11650       -5.13200      -13.53590
H        -10.24800       -4.44480      -11.80100
H         -9.19320       -4.06280      -13.18530
H         -9.13680       -5.68380      -12.43750
H         -6.74220       -2.41440       -7.66260
H         -5.36490       -3.49480       -7.99990
H         -5.42170       -1.86600       -8.72580
H         -4.14570       -3.35820       -9.95920
H         -0.53770       -4.08960      -13.98170
H          0.79370       -4.89800      -15.70310
H          0.48500       -3.14530      -15.84610
H          1.94180       -3.85720      -16.58490
H          5.52420       -2.80270      -12.12240
H          4.31720       -2.03690      -11.06090
H          4.65150       -3.78450      -10.91970
H          2.50970       -3.18230      -10.17650
H          2.45550       -3.92010       -8.28440
H          8.16800       -5.06140       -5.70550
H          8.61130       -4.12580       -7.14700
H          8.76060       -6.57110       -7.58570
H          7.05460       -6.75930       -7.16480
H          7.51540       -5.82840       -8.59410
H         -4.86270       -0.50740       -4.21300
H         -5.32770       -1.43760       -2.77470
H         -5.37030        1.00160       -2.29910
H         -3.66860        1.13220       -2.75730
H         -4.12910        0.20160       -1.32850
H          0.78040       -1.83710       -1.68930
H          5.78180       -2.66950       -1.32880
H          9.29810       -3.47610       -1.26420
H          7.62630       -4.08880       -1.35310
H          8.01170       -2.45500       -1.95770
H          7.66460       -0.27900        3.87540
H          8.96980       -1.45720        4.17410
H          7.27380       -1.91180        4.48220
H          5.48720       -0.98200        3.33710
H          4.35330        0.65820        3.94370
H          8.76980        2.05140        6.86010
H          8.23960        0.39610        6.49760
H          7.52270        0.11270        8.87160
H          8.05560        1.75800        9.22980
H          9.23750        0.52830        8.76950
H         -5.54040       -0.23340        3.80390
H         -4.93160        1.14050        2.86670
H         -4.05170       -1.76390        2.49360
H         -5.13110       -0.86570        1.42400
H         -3.43640       -0.38500        1.58170
H         -1.50710        2.47300        7.53640
H         -2.37700        2.98530        9.60150
H         -8.27640        1.44640       10.42950
H         -8.53060        3.20080       10.51360
H         -7.50080        3.44860        8.25070
H         -8.88830        2.35500        8.19990
H         -7.24750        1.70220        8.17450
H          3.89520        8.72450       14.89490
H          4.10210        6.96200       14.90570
H          5.64550        8.01190       13.26930
H          4.46480        6.99400       12.43520
H          4.27700        8.75000       12.43100
H         -1.93770        7.29340       15.27880
H         -4.40340        6.84850       15.98090
