
  xtb     03052200083D
 energy: -424.141800708686 gnorm: 0.000198201271 xtb: 6.4.1 (unknown)
244267  0     0  0            999 V2000
    3.6457   -6.6253    7.4666 C   0  0  0  0  0  0  0  0  0  0  0  0
    2.6342   -6.8578    6.1159 S   0  0  0  0  0  0  0  0  0  0  0  0
    2.3634   -5.1519    5.9291 C   0  0  0  0  0  0  0  0  0  0  0  0
    3.0598   -4.4373    6.9032 C   0  0  0  0  0  0  0  0  0  0  0  0
    3.7981   -5.2949    7.7812 C   0  0  0  0  0  0  0  0  0  0  0  0
    4.5849   -4.7382    8.8218 C   0  0  0  0  0  0  0  0  0  0  0  0
    4.6307   -3.3864    8.9872 C   0  0  0  0  0  0  0  0  0  0  0  0
    5.3568   -2.7267    9.9261 O   0  0  0  0  0  0  0  0  0  0  0  0
    6.1069   -3.4848   10.8403 C   0  0  0  0  0  0  0  0  0  0  0  0
    3.8547   -2.5227    8.1295 C   0  0  0  0  0  0  0  0  0  0  0  0
    3.9542   -1.2064    8.4292 O   0  0  0  0  0  0  0  0  0  0  0  0
    3.1158   -0.3007    7.7513 C   0  0  0  0  0  0  0  0  0  0  0  0
    3.0960   -3.0433    7.1208 C   0  0  0  0  0  0  0  0  0  0  0  0
    1.5085   -4.7065    4.8857 C   0  0  0  0  0  0  0  0  0  0  0  0
    0.7332   -5.4895    4.0754 C   0  0  0  0  0  0  0  0  0  0  0  0
   -0.0495   -4.7671    3.1409 C   0  0  0  0  0  0  0  0  0  0  0  0
   -0.9447   -5.2756    2.1829 C   0  0  0  0  0  0  0  0  0  0  0  0
   -1.0992   -6.7200    1.9787 C   0  0  0  0  0  0  0  0  0  0  0  0
    0.0116   -7.5383    1.7944 C   0  0  0  0  0  0  0  0  0  0  0  0
   -0.1245   -8.8996    1.6044 C   0  0  0  0  0  0  0  0  0  0  0  0
   -1.3809   -9.4939    1.5909 C   0  0  0  0  0  0  0  0  0  0  0  0
   -1.6983  -11.2161    1.3935 S   0  0  0  0  0  0  0  0  0  0  0  0
   -0.1262  -11.8899    0.7537 C   0  0  0  0  0  0  0  0  0  0  0  0
    0.1514  -11.4487   -0.6709 C   0  0  0  0  0  0  0  0  0  0  0  0
   -2.4859   -8.6621    1.7811 C   0  0  0  0  0  0  0  0  0  0  0  0
   -3.7189   -9.2071    1.7915 F   0  0  0  0  0  0  0  0  0  0  0  0
   -2.3642   -7.3040    1.9673 C   0  0  0  0  0  0  0  0  0  0  0  0
   -1.6682   -4.3446    1.4511 C   0  0  0  0  0  0  0  0  0  0  0  0
   -1.5112   -2.9473    1.6189 C   0  0  0  0  0  0  0  0  0  0  0  0
   -0.5532   -2.4347    2.5139 C   0  0  0  0  0  0  0  0  0  0  0  0
   -0.2663   -0.9977    2.5739 C   0  0  0  0  0  0  0  0  0  0  0  0
   -0.1419   -0.2764    1.3866 C   0  0  0  0  0  0  0  0  0  0  0  0
    0.1142    1.0758    1.4020 C   0  0  0  0  0  0  0  0  0  0  0  0
    0.2886    1.7656    2.5979 C   0  0  0  0  0  0  0  0  0  0  0  0
    0.6458    3.4963    2.4835 S   0  0  0  0  0  0  0  0  0  0  0  0
   -0.4354    4.2324    3.7646 C   0  0  0  0  0  0  0  0  0  0  0  0
   -1.9005    3.9706    3.4781 C   0  0  0  0  0  0  0  0  0  0  0  0
    0.2168    1.0275    3.7745 C   0  0  0  0  0  0  0  0  0  0  0  0
   -0.0782   -0.3220    3.7755 C   0  0  0  0  0  0  0  0  0  0  0  0
    0.4266    1.6184    4.9724 F   0  0  0  0  0  0  0  0  0  0  0  0
    0.1330   -3.3675    3.2735 C   0  0  0  0  0  0  0  0  0  0  0  0
    1.3230   -3.0052    4.4958 S   0  0  0  0  0  0  0  0  0  0  0  0
   -2.4047   -2.2215    0.7954 C   0  0  0  0  0  0  0  0  0  0  0  0
   -3.1573   -3.0053   -0.0281 C   0  0  0  0  0  0  0  0  0  0  0  0
   -2.8318   -4.7053    0.1987 S   0  0  0  0  0  0  0  0  0  0  0  0
   -4.0179   -2.4564   -1.0374 C   0  0  0  0  0  0  0  0  0  0  0  0
   -4.7057   -1.2856   -0.9194 C   0  0  0  0  0  0  0  0  0  0  0  0
   -5.1470   -0.7560   -2.1579 C   0  0  0  0  0  0  0  0  0  0  0  0
   -5.6614    0.5286   -2.4075 C   0  0  0  0  0  0  0  0  0  0  0  0
   -5.8653    1.5156   -1.3366 C   0  0  0  0  0  0  0  0  0  0  0  0
   -4.8456    1.7951   -0.4268 C   0  0  0  0  0  0  0  0  0  0  0  0
   -5.0208    2.7444    0.5556 C   0  0  0  0  0  0  0  0  0  0  0  0
   -6.2061    3.4694    0.6620 C   0  0  0  0  0  0  0  0  0  0  0  0
   -6.2770    4.6819    1.9458 S   0  0  0  0  0  0  0  0  0  0  0  0
   -8.0210    4.6801    2.5020 C   0  0  0  0  0  0  0  0  0  0  0  0
   -8.4597    3.3162    2.9956 C   0  0  0  0  0  0  0  0  0  0  0  0
   -7.1925    3.2205   -0.2857 C   0  0  0  0  0  0  0  0  0  0  0  0
   -8.3488    3.9213   -0.2871 F   0  0  0  0  0  0  0  0  0  0  0  0
   -7.0404    2.2533   -1.2602 C   0  0  0  0  0  0  0  0  0  0  0  0
   -5.7602    0.9081   -3.7348 C   0  0  0  0  0  0  0  0  0  0  0  0
   -5.3447    0.0870   -4.8136 C   0  0  0  0  0  0  0  0  0  0  0  0
   -4.8764   -1.2115   -4.5643 C   0  0  0  0  0  0  0  0  0  0  0  0
   -4.2538   -2.0231   -5.6234 C   0  0  0  0  0  0  0  0  0  0  0  0
   -3.1384   -1.5378   -6.3062 C   0  0  0  0  0  0  0  0  0  0  0  0
   -2.5218   -2.3030   -7.2698 C   0  0  0  0  0  0  0  0  0  0  0  0
   -2.9911   -3.5731   -7.6058 C   0  0  0  0  0  0  0  0  0  0  0  0
   -2.1352   -4.3839   -8.9234 S   0  0  0  0  0  0  0  0  0  0  0  0
   -2.3183   -6.1798   -8.6285 C   0  0  0  0  0  0  0  0  0  0  0  0
   -1.6884   -6.6144   -7.3213 C   0  0  0  0  0  0  0  0  0  0  0  0
   -4.1076   -4.0392   -6.9200 C   0  0  0  0  0  0  0  0  0  0  0  0
   -4.7198   -3.2936   -5.9297 C   0  0  0  0  0  0  0  0  0  0  0  0
   -4.6476   -5.2471   -7.1999 F   0  0  0  0  0  0  0  0  0  0  0  0
   -4.8061   -1.6083   -3.2374 C   0  0  0  0  0  0  0  0  0  0  0  0
   -4.0114   -3.0575   -2.6807 S   0  0  0  0  0  0  0  0  0  0  0  0
   -5.1599    0.8336   -6.0066 C   0  0  0  0  0  0  0  0  0  0  0  0
   -5.2985    2.1827   -5.8340 C   0  0  0  0  0  0  0  0  0  0  0  0
   -6.0134    2.5580   -4.2600 S   0  0  0  0  0  0  0  0  0  0  0  0
   -4.4268    3.1578   -6.4139 C   0  0  0  0  0  0  0  0  0  0  0  0
   -4.0855    4.3345   -5.8080 C   0  0  0  0  0  0  0  0  0  0  0  0
   -2.6895    4.6032   -5.8482 C   0  0  0  0  0  0  0  0  0  0  0  0
   -1.9894    5.3664   -4.9017 C   0  0  0  0  0  0  0  0  0  0  0  0
   -2.7090    6.1834   -3.9058 C   0  0  0  0  0  0  0  0  0  0  0  0
   -2.5574    7.5624   -3.8137 C   0  0  0  0  0  0  0  0  0  0  0  0
   -3.2580    8.2776   -2.8654 C   0  0  0  0  0  0  0  0  0  0  0  0
   -4.1185    7.6524   -1.9600 C   0  0  0  0  0  0  0  0  0  0  0  0
   -4.9305    8.7009   -0.7998 S   0  0  0  0  0  0  0  0  0  0  0  0
   -6.3768    7.7396   -0.2018 C   0  0  0  0  0  0  0  0  0  0  0  0
   -7.3362    8.6881    0.4893 C   0  0  0  0  0  0  0  0  0  0  0  0
   -4.2211    6.2665   -2.0385 C   0  0  0  0  0  0  0  0  0  0  0  0
   -4.9857    5.5602   -1.1752 F   0  0  0  0  0  0  0  0  0  0  0  0
   -3.5422    5.5421   -2.9962 C   0  0  0  0  0  0  0  0  0  0  0  0
   -0.6433    5.0792   -4.7369 C   0  0  0  0  0  0  0  0  0  0  0  0
    0.0329    4.0832   -5.4847 C   0  0  0  0  0  0  0  0  0  0  0  0
   -0.6510    3.3710   -6.4851 C   0  0  0  0  0  0  0  0  0  0  0  0
   -0.1207    2.1297   -7.0713 C   0  0  0  0  0  0  0  0  0  0  0  0
   -0.1684    1.8699   -8.4351 C   0  0  0  0  0  0  0  0  0  0  0  0
    0.2069    0.6386   -8.9430 C   0  0  0  0  0  0  0  0  0  0  0  0
    0.6397   -0.3798   -8.1014 C   0  0  0  0  0  0  0  0  0  0  0  0
    1.0963   -2.0115   -8.5890 S   0  0  0  0  0  0  0  0  0  0  0  0
    0.6153   -2.1181  -10.3452 C   0  0  0  0  0  0  0  0  0  0  0  0
    1.6935   -1.5971  -11.2769 C   0  0  0  0  0  0  0  0  0  0  0  0
    0.6924   -0.0984   -6.7349 C   0  0  0  0  0  0  0  0  0  0  0  0
    0.3114    1.1158   -6.2174 C   0  0  0  0  0  0  0  0  0  0  0  0
    1.1081   -1.0547   -5.8771 F   0  0  0  0  0  0  0  0  0  0  0  0
   -1.9953    3.6567   -6.6427 C   0  0  0  0  0  0  0  0  0  0  0  0
   -3.1081    2.5586   -7.4347 S   0  0  0  0  0  0  0  0  0  0  0  0
    1.2544    3.7055   -4.8691 C   0  0  0  0  0  0  0  0  0  0  0  0
    1.4630    4.2989   -3.6594 C   0  0  0  0  0  0  0  0  0  0  0  0
    0.2794    5.5582   -3.3302 S   0  0  0  0  0  0  0  0  0  0  0  0
    2.2202    3.7146   -2.5870 C   0  0  0  0  0  0  0  0  0  0  0  0
    2.2423    2.3628   -2.3941 C   0  0  0  0  0  0  0  0  0  0  0  0
    2.7326    1.9695   -1.1270 C   0  0  0  0  0  0  0  0  0  0  0  0
    2.7084    0.6789   -0.5643 C   0  0  0  0  0  0  0  0  0  0  0  0
    2.0094   -0.4404   -1.2096 C   0  0  0  0  0  0  0  0  0  0  0  0
    2.5117   -1.7406   -1.1768 C   0  0  0  0  0  0  0  0  0  0  0  0
    1.7661   -2.8026   -1.6467 C   0  0  0  0  0  0  0  0  0  0  0  0
    0.4955   -2.6177   -2.1823 C   0  0  0  0  0  0  0  0  0  0  0  0
   -0.4741   -4.0396   -2.6092 S   0  0  0  0  0  0  0  0  0  0  0  0
   -0.9279   -3.7059   -4.3507 C   0  0  0  0  0  0  0  0  0  0  0  0
    0.2130   -4.0428   -5.2872 C   0  0  0  0  0  0  0  0  0  0  0  0
    0.0172   -1.3140   -2.2484 C   0  0  0  0  0  0  0  0  0  0  0  0
   -1.2194   -1.0548   -2.7339 F   0  0  0  0  0  0  0  0  0  0  0  0
    0.7509   -0.2433   -1.7808 C   0  0  0  0  0  0  0  0  0  0  0  0
    3.2738    0.5584    0.6970 C   0  0  0  0  0  0  0  0  0  0  0  0
    3.8183    1.6533    1.4149 C   0  0  0  0  0  0  0  0  0  0  0  0
    3.7578    2.9550    0.8841 C   0  0  0  0  0  0  0  0  0  0  0  0
    4.2393    4.1165    1.6373 C   0  0  0  0  0  0  0  0  0  0  0  0
    5.0352    5.0818    1.0267 C   0  0  0  0  0  0  0  0  0  0  0  0
    5.4864    6.1877    1.7210 C   0  0  0  0  0  0  0  0  0  0  0  0
    5.1558    6.3715    3.0581 C   0  0  0  0  0  0  0  0  0  0  0  0
    5.6296    7.7407    4.0601 S   0  0  0  0  0  0  0  0  0  0  0  0
    6.8860    8.6168    3.0671 C   0  0  0  0  0  0  0  0  0  0  0  0
    8.2041    7.8676    3.0131 C   0  0  0  0  0  0  0  0  0  0  0  0
    4.3534    5.3986    3.6575 C   0  0  0  0  0  0  0  0  0  0  0  0
    3.9039    4.2898    2.9800 C   0  0  0  0  0  0  0  0  0  0  0  0
    4.0015    5.5507    4.9513 F   0  0  0  0  0  0  0  0  0  0  0  0
    3.2059    3.0780   -0.3836 C   0  0  0  0  0  0  0  0  0  0  0  0
    2.9067    4.5788   -1.2324 S   0  0  0  0  0  0  0  0  0  0  0  0
    4.3939    1.2445    2.6416 C   0  0  0  0  0  0  0  0  0  0  0  0
    4.2829   -0.0935    2.9018 C   0  0  0  0  0  0  0  0  0  0  0  0
    3.3981   -0.9139    1.6264 S   0  0  0  0  0  0  0  0  0  0  0  0
    4.8679   -0.7835    3.9993 C   0  0  0  0  0  0  0  0  0  0  0  0
    5.6785    0.1545    5.2250 S   0  0  0  0  0  0  0  0  0  0  0  0
    6.2266   -1.2391    6.0402 C   0  0  0  0  0  0  0  0  0  0  0  0
    5.8218   -2.3960    5.4178 C   0  0  0  0  0  0  0  0  0  0  0  0
    5.0235   -2.1460    4.2537 C   0  0  0  0  0  0  0  0  0  0  0  0
    4.5288   -3.2446    3.5170 C   0  0  0  0  0  0  0  0  0  0  0  0
    4.8341   -4.5190    3.8992 C   0  0  0  0  0  0  0  0  0  0  0  0
    4.4225   -5.6440    3.2623 O   0  0  0  0  0  0  0  0  0  0  0  0
    3.7087   -5.5058    2.0591 C   0  0  0  0  0  0  0  0  0  0  0  0
    5.6704   -4.7661    5.0498 C   0  0  0  0  0  0  0  0  0  0  0  0
    5.9256   -6.0801    5.2785 O   0  0  0  0  0  0  0  0  0  0  0  0
    6.8484   -6.4068    6.2866 C   0  0  0  0  0  0  0  0  0  0  0  0
    6.1425   -3.7251    5.7893 C   0  0  0  0  0  0  0  0  0  0  0  0
    4.0821   -7.4735    7.9554 H   0  0  0  0  0  0  0  0  0  0  0  0
    5.1298   -5.4102    9.4660 H   0  0  0  0  0  0  0  0  0  0  0  0
    6.8781   -4.0779   10.3362 H   0  0  0  0  0  0  0  0  0  0  0  0
    6.5833   -2.7631   11.5016 H   0  0  0  0  0  0  0  0  0  0  0  0
    5.4686   -4.1510   11.4302 H   0  0  0  0  0  0  0  0  0  0  0  0
    2.0600   -0.5355    7.9180 H   0  0  0  0  0  0  0  0  0  0  0  0
    3.3133   -0.2865    6.6756 H   0  0  0  0  0  0  0  0  0  0  0  0
    3.3413    0.6785    8.1693 H   0  0  0  0  0  0  0  0  0  0  0  0
    2.5223   -2.3950    6.4835 H   0  0  0  0  0  0  0  0  0  0  0  0
    0.7001   -6.5599    4.1726 H   0  0  0  0  0  0  0  0  0  0  0  0
    0.9980   -7.1004    1.7815 H   0  0  0  0  0  0  0  0  0  0  0  0
    0.7637   -9.4963    1.4738 H   0  0  0  0  0  0  0  0  0  0  0  0
    0.6760  -11.6195    1.4392 H   0  0  0  0  0  0  0  0  0  0  0  0
   -0.2741  -12.9687    0.8035 H   0  0  0  0  0  0  0  0  0  0  0  0
    0.2387  -10.3663   -0.7357 H   0  0  0  0  0  0  0  0  0  0  0  0
   -0.6576  -11.7657   -1.3247 H   0  0  0  0  0  0  0  0  0  0  0  0
    1.0795  -11.8953   -1.0231 H   0  0  0  0  0  0  0  0  0  0  0  0
   -3.2540   -6.7147    2.1218 H   0  0  0  0  0  0  0  0  0  0  0  0
   -0.2329   -0.7937    0.4461 H   0  0  0  0  0  0  0  0  0  0  0  0
    0.1882    1.6342    0.4822 H   0  0  0  0  0  0  0  0  0  0  0  0
   -0.1336    3.8557    4.7393 H   0  0  0  0  0  0  0  0  0  0  0  0
   -0.2049    5.2959    3.7079 H   0  0  0  0  0  0  0  0  0  0  0  0
   -2.1159    2.9033    3.5120 H   0  0  0  0  0  0  0  0  0  0  0  0
   -2.5164    4.4701    4.2228 H   0  0  0  0  0  0  0  0  0  0  0  0
   -2.1704    4.3501    2.4945 H   0  0  0  0  0  0  0  0  0  0  0  0
   -0.1656   -0.8277    4.7239 H   0  0  0  0  0  0  0  0  0  0  0  0
   -2.4789   -1.1496    0.7985 H   0  0  0  0  0  0  0  0  0  0  0  0
   -4.8640   -0.7985    0.0254 H   0  0  0  0  0  0  0  0  0  0  0  0
   -3.9014    1.2785   -0.5084 H   0  0  0  0  0  0  0  0  0  0  0  0
   -4.2312    2.9527    1.2611 H   0  0  0  0  0  0  0  0  0  0  0  0
   -8.6522    5.0440    1.6944 H   0  0  0  0  0  0  0  0  0  0  0  0
   -8.0233    5.4101    3.3118 H   0  0  0  0  0  0  0  0  0  0  0  0
   -8.4596    2.5912    2.1839 H   0  0  0  0  0  0  0  0  0  0  0  0
   -7.7922    2.9602    3.7776 H   0  0  0  0  0  0  0  0  0  0  0  0
   -9.4686    3.3794    3.3981 H   0  0  0  0  0  0  0  0  0  0  0  0
   -7.8464    2.0907   -1.9592 H   0  0  0  0  0  0  0  0  0  0  0  0
   -2.7366   -0.5665   -6.0592 H   0  0  0  0  0  0  0  0  0  0  0  0
   -1.6533   -1.9269   -7.7863 H   0  0  0  0  0  0  0  0  0  0  0  0
   -3.3722   -6.4417   -8.6846 H   0  0  0  0  0  0  0  0  0  0  0  0
   -1.7987   -6.6210   -9.4799 H   0  0  0  0  0  0  0  0  0  0  0  0
   -2.1956   -6.1582   -6.4740 H   0  0  0  0  0  0  0  0  0  0  0  0
   -0.6388   -6.3307   -7.2913 H   0  0  0  0  0  0  0  0  0  0  0  0
   -1.7638   -7.6953   -7.2227 H   0  0  0  0  0  0  0  0  0  0  0  0
   -5.5779   -3.7088   -5.4241 H   0  0  0  0  0  0  0  0  0  0  0  0
   -4.7692    0.4047   -6.9122 H   0  0  0  0  0  0  0  0  0  0  0  0
   -4.7651    4.8759   -5.1744 H   0  0  0  0  0  0  0  0  0  0  0  0
   -1.9016    8.0763   -4.4998 H   0  0  0  0  0  0  0  0  0  0  0  0
   -3.1532    9.3498   -2.8056 H   0  0  0  0  0  0  0  0  0  0  0  0
   -6.0200    6.9757    0.4870 H   0  0  0  0  0  0  0  0  0  0  0  0
   -6.8421    7.2737   -1.0691 H   0  0  0  0  0  0  0  0  0  0  0  0
   -6.8541    9.1656    1.3393 H   0  0  0  0  0  0  0  0  0  0  0  0
   -8.2017    8.1335    0.8456 H   0  0  0  0  0  0  0  0  0  0  0  0
   -7.6742    9.4621   -0.1962 H   0  0  0  0  0  0  0  0  0  0  0  0
   -3.6576    4.4685   -3.0031 H   0  0  0  0  0  0  0  0  0  0  0  0
   -0.5056    2.6399   -9.1122 H   0  0  0  0  0  0  0  0  0  0  0  0
    0.1468    0.4784  -10.0067 H   0  0  0  0  0  0  0  0  0  0  0  0
   -0.3347   -1.6002  -10.4673 H   0  0  0  0  0  0  0  0  0  0  0  0
    0.4469   -3.1834  -10.5026 H   0  0  0  0  0  0  0  0  0  0  0  0
    1.3675   -1.6974  -12.3104 H   0  0  0  0  0  0  0  0  0  0  0  0
    1.9141   -0.5499  -11.0816 H   0  0  0  0  0  0  0  0  0  0  0  0
    2.6104   -2.1670  -11.1454 H   0  0  0  0  0  0  0  0  0  0  0  0
    0.3105    1.2515   -5.1474 H   0  0  0  0  0  0  0  0  0  0  0  0
    1.9160    2.9610   -5.2727 H   0  0  0  0  0  0  0  0  0  0  0  0
    1.8828    1.6668   -3.1291 H   0  0  0  0  0  0  0  0  0  0  0  0
    3.5010   -1.9214   -0.7876 H   0  0  0  0  0  0  0  0  0  0  0  0
    2.1563   -3.8070   -1.5948 H   0  0  0  0  0  0  0  0  0  0  0  0
   -1.2309   -2.6661   -4.4374 H   0  0  0  0  0  0  0  0  0  0  0  0
   -1.7973   -4.3388   -4.5280 H   0  0  0  0  0  0  0  0  0  0  0  0
   -0.0875   -3.8547   -6.3154 H   0  0  0  0  0  0  0  0  0  0  0  0
    0.4937   -5.0886   -5.1828 H   0  0  0  0  0  0  0  0  0  0  0  0
    1.0808   -3.4250   -5.0709 H   0  0  0  0  0  0  0  0  0  0  0  0
    0.2958    0.7349   -1.8065 H   0  0  0  0  0  0  0  0  0  0  0  0
    5.3268    4.9605   -0.0054 H   0  0  0  0  0  0  0  0  0  0  0  0
    6.0954    6.9099    1.2026 H   0  0  0  0  0  0  0  0  0  0  0  0
    6.4741    8.8119    2.0778 H   0  0  0  0  0  0  0  0  0  0  0  0
    7.0033    9.5678    3.5868 H   0  0  0  0  0  0  0  0  0  0  0  0
    8.9318    8.4382    2.4390 H   0  0  0  0  0  0  0  0  0  0  0  0
    8.0813    6.8918    2.5482 H   0  0  0  0  0  0  0  0  0  0  0  0
    8.5919    7.7204    4.0184 H   0  0  0  0  0  0  0  0  0  0  0  0
    3.2670    3.5872    3.4911 H   0  0  0  0  0  0  0  0  0  0  0  0
    4.9231    1.9123    3.2972 H   0  0  0  0  0  0  0  0  0  0  0  0
    6.8058   -1.1375    6.9357 H   0  0  0  0  0  0  0  0  0  0  0  0
    3.9118   -3.0608    2.6550 H   0  0  0  0  0  0  0  0  0  0  0  0
    4.2840   -4.9469    1.3138 H   0  0  0  0  0  0  0  0  0  0  0  0
    2.7445   -5.0100    2.2105 H   0  0  0  0  0  0  0  0  0  0  0  0
    3.5428   -6.5208    1.7011 H   0  0  0  0  0  0  0  0  0  0  0  0
    6.9300   -7.4923    6.2701 H   0  0  0  0  0  0  0  0  0  0  0  0
    7.8298   -5.9639    6.0857 H   0  0  0  0  0  0  0  0  0  0  0  0
    6.4998   -6.0819    7.2716 H   0  0  0  0  0  0  0  0  0  0  0  0
    6.7637   -3.8746    6.6565 H   0  0  0  0  0  0  0  0  0  0  0  0
  1  2  1  0  0  0  0
  2  3  1  0  0  0  0
  3  4  2  0  0  0  0
  4  5  1  0  0  0  0
  5  6  1  0  0  0  0
  6  7  2  0  0  0  0
  7  8  1  0  0  0  0
  8  9  1  0  0  0  0
  7 10  1  0  0  0  0
 10 11  1  0  0  0  0
 11 12  1  0  0  0  0
 10 13  2  0  0  0  0
  3 14  1  0  0  0  0
 14 15  2  0  0  0  0
 15 16  1  0  0  0  0
 16 17  2  0  0  0  0
 17 18  1  0  0  0  0
 18 19  2  0  0  0  0
 19 20  1  0  0  0  0
 20 21  2  0  0  0  0
 21 22  1  0  0  0  0
 22 23  1  0  0  0  0
 23 24  1  0  0  0  0
 21 25  1  0  0  0  0
 25 26  1  0  0  0  0
 25 27  2  0  0  0  0
 17 28  1  0  0  0  0
 28 29  2  0  0  0  0
 29 30  1  0  0  0  0
 30 31  1  0  0  0  0
 31 32  2  0  0  0  0
 32 33  1  0  0  0  0
 33 34  2  0  0  0  0
 34 35  1  0  0  0  0
 35 36  1  0  0  0  0
 36 37  1  0  0  0  0
 34 38  1  0  0  0  0
 38 39  2  0  0  0  0
 38 40  1  0  0  0  0
 30 41  2  0  0  0  0
 41 42  1  0  0  0  0
 29 43  1  0  0  0  0
 43 44  2  0  0  0  0
 44 45  1  0  0  0  0
 44 46  1  0  0  0  0
 46 47  2  0  0  0  0
 47 48  1  0  0  0  0
 48 49  2  0  0  0  0
 49 50  1  0  0  0  0
 50 51  2  0  0  0  0
 51 52  1  0  0  0  0
 52 53  2  0  0  0  0
 53 54  1  0  0  0  0
 54 55  1  0  0  0  0
 55 56  1  0  0  0  0
 53 57  1  0  0  0  0
 57 58  1  0  0  0  0
 57 59  2  0  0  0  0
 49 60  1  0  0  0  0
 60 61  2  0  0  0  0
 61 62  1  0  0  0  0
 62 63  1  0  0  0  0
 63 64  2  0  0  0  0
 64 65  1  0  0  0  0
 65 66  2  0  0  0  0
 66 67  1  0  0  0  0
 67 68  1  0  0  0  0
 68 69  1  0  0  0  0
 66 70  1  0  0  0  0
 70 71  2  0  0  0  0
 70 72  1  0  0  0  0
 62 73  2  0  0  0  0
 73 74  1  0  0  0  0
 61 75  1  0  0  0  0
 75 76  2  0  0  0  0
 76 77  1  0  0  0  0
 76 78  1  0  0  0  0
 78 79  2  0  0  0  0
 79 80  1  0  0  0  0
 80 81  2  0  0  0  0
 81 82  1  0  0  0  0
 82 83  2  0  0  0  0
 83 84  1  0  0  0  0
 84 85  2  0  0  0  0
 85 86  1  0  0  0  0
 86 87  1  0  0  0  0
 87 88  1  0  0  0  0
 85 89  1  0  0  0  0
 89 90  1  0  0  0  0
 89 91  2  0  0  0  0
 81 92  1  0  0  0  0
 92 93  2  0  0  0  0
 93 94  1  0  0  0  0
 94 95  1  0  0  0  0
 95 96  2  0  0  0  0
 96 97  1  0  0  0  0
 97 98  2  0  0  0  0
 98 99  1  0  0  0  0
 99100  1  0  0  0  0
100101  1  0  0  0  0
 98102  1  0  0  0  0
102103  2  0  0  0  0
102104  1  0  0  0  0
 94105  2  0  0  0  0
105106  1  0  0  0  0
 93107  1  0  0  0  0
107108  2  0  0  0  0
108109  1  0  0  0  0
108110  1  0  0  0  0
110111  2  0  0  0  0
111112  1  0  0  0  0
112113  2  0  0  0  0
113114  1  0  0  0  0
114115  2  0  0  0  0
115116  1  0  0  0  0
116117  2  0  0  0  0
117118  1  0  0  0  0
118119  1  0  0  0  0
119120  1  0  0  0  0
117121  1  0  0  0  0
121122  1  0  0  0  0
121123  2  0  0  0  0
113124  1  0  0  0  0
124125  2  0  0  0  0
125126  1  0  0  0  0
126127  1  0  0  0  0
127128  2  0  0  0  0
128129  1  0  0  0  0
129130  2  0  0  0  0
130131  1  0  0  0  0
131132  1  0  0  0  0
132133  1  0  0  0  0
130134  1  0  0  0  0
134135  2  0  0  0  0
134136  1  0  0  0  0
126137  2  0  0  0  0
137138  1  0  0  0  0
125139  1  0  0  0  0
139140  2  0  0  0  0
140141  1  0  0  0  0
140142  1  0  0  0  0
142143  1  0  0  0  0
143144  1  0  0  0  0
144145  2  0  0  0  0
145146  1  0  0  0  0
146147  1  0  0  0  0
147148  2  0  0  0  0
148149  1  0  0  0  0
149150  1  0  0  0  0
148151  1  0  0  0  0
151152  1  0  0  0  0
152153  1  0  0  0  0
151154  2  0  0  0  0
  5  1  2  0  0  0  0
 42 14  1  0  0  0  0
 74 46  1  0  0  0  0
106 78  1  0  0  0  0
138110  1  0  0  0  0
146142  2  0  0  0  0
 13  4  1  0  0  0  0
 41 16  1  0  0  0  0
 73 48  1  0  0  0  0
105 80  1  0  0  0  0
137112  1  0  0  0  0
154145  1  0  0  0  0
 27 18  1  0  0  0  0
 45 28  1  0  0  0  0
 59 50  1  0  0  0  0
 77 60  1  0  0  0  0
 91 82  1  0  0  0  0
109 92  1  0  0  0  0
123114  1  0  0  0  0
141124  1  0  0  0  0
 39 31  1  0  0  0  0
 71 63  1  0  0  0  0
103 95  1  0  0  0  0
135127  1  0  0  0  0
  1155  1  0  0  0  0
  6156  1  0  0  0  0
  9157  1  0  0  0  0
  9158  1  0  0  0  0
  9159  1  0  0  0  0
 12160  1  0  0  0  0
 12161  1  0  0  0  0
 12162  1  0  0  0  0
 13163  1  0  0  0  0
 15164  1  0  0  0  0
 19165  1  0  0  0  0
 20166  1  0  0  0  0
 23167  1  0  0  0  0
 23168  1  0  0  0  0
 24169  1  0  0  0  0
 24170  1  0  0  0  0
 24171  1  0  0  0  0
 27172  1  0  0  0  0
 32173  1  0  0  0  0
 33174  1  0  0  0  0
 36175  1  0  0  0  0
 36176  1  0  0  0  0
 37177  1  0  0  0  0
 37178  1  0  0  0  0
 37179  1  0  0  0  0
 39180  1  0  0  0  0
 43181  1  0  0  0  0
 47182  1  0  0  0  0
 51183  1  0  0  0  0
 52184  1  0  0  0  0
 55185  1  0  0  0  0
 55186  1  0  0  0  0
 56187  1  0  0  0  0
 56188  1  0  0  0  0
 56189  1  0  0  0  0
 59190  1  0  0  0  0
 64191  1  0  0  0  0
 65192  1  0  0  0  0
 68193  1  0  0  0  0
 68194  1  0  0  0  0
 69195  1  0  0  0  0
 69196  1  0  0  0  0
 69197  1  0  0  0  0
 71198  1  0  0  0  0
 75199  1  0  0  0  0
 79200  1  0  0  0  0
 83201  1  0  0  0  0
 84202  1  0  0  0  0
 87203  1  0  0  0  0
 87204  1  0  0  0  0
 88205  1  0  0  0  0
 88206  1  0  0  0  0
 88207  1  0  0  0  0
 91208  1  0  0  0  0
 96209  1  0  0  0  0
 97210  1  0  0  0  0
100211  1  0  0  0  0
100212  1  0  0  0  0
101213  1  0  0  0  0
101214  1  0  0  0  0
101215  1  0  0  0  0
103216  1  0  0  0  0
107217  1  0  0  0  0
111218  1  0  0  0  0
115219  1  0  0  0  0
116220  1  0  0  0  0
119221  1  0  0  0  0
119222  1  0  0  0  0
120223  1  0  0  0  0
120224  1  0  0  0  0
120225  1  0  0  0  0
123226  1  0  0  0  0
128227  1  0  0  0  0
129228  1  0  0  0  0
132229  1  0  0  0  0
132230  1  0  0  0  0
133231  1  0  0  0  0
133232  1  0  0  0  0
133233  1  0  0  0  0
135234  1  0  0  0  0
139235  1  0  0  0  0
144236  1  0  0  0  0
147237  1  0  0  0  0
150238  1  0  0  0  0
150239  1  0  0  0  0
150240  1  0  0  0  0
153241  1  0  0  0  0
153242  1  0  0  0  0
153243  1  0  0  0  0
154244  1  0  0  0  0
M  END
