
  xtb     03012217413D
 energy: -303.966063786665 gnorm: 0.000541985860 xtb: 6.4.1 (unknown)
238254  0     0  0            999 V2000
    2.7932   -1.9364   -2.2499 C   0  0  0  0  0  0  0  0  0  0  0  0
    4.2790   -1.8696   -1.8786 C   0  0  0  0  0  0  0  0  0  0  0  0
    4.4472   -1.2046   -0.5218 C   0  0  0  0  0  0  0  0  0  0  0  0
    4.1248    0.2854   -0.6003 C   0  0  0  0  0  0  0  0  0  0  0  0
    2.8541    0.4572   -1.4646 C   0  0  0  0  0  0  0  0  0  0  0  0
    2.0194   -0.8157   -1.5527 C   0  0  0  0  0  0  0  0  0  0  0  0
    3.9894    0.8917    0.7313 N   0  0  0  0  0  0  0  0  0  0  0  0
    3.6584    2.3188    0.6151 C   0  0  0  0  0  0  0  0  0  0  0  0
    2.3034    2.6548    1.2357 C   0  0  0  0  0  0  0  0  0  0  0  0
    5.1659    0.7257    1.5993 C   0  0  0  0  0  0  0  0  0  0  0  0
    5.7257   -0.6927    1.7122 C   0  0  0  0  0  0  0  0  0  0  0  0
    6.1503   -1.3891    0.0824 S   0  0  0  0  0  0  0  0  0  0  0  0
    6.9856   -0.7156    2.5696 C   0  0  0  0  0  0  0  0  0  0  0  0
    6.6892   -0.2303    3.9814 C   0  0  0  0  0  0  0  0  0  0  0  0
    6.0729    1.1603    3.9157 C   0  0  0  0  0  0  0  0  0  0  0  0
    4.8145    1.1677    3.0435 C   0  0  0  0  0  0  0  0  0  0  0  0
    3.6842    0.3323    3.5762 C   0  0  0  0  0  0  0  0  0  0  0  0
    3.4499    0.0265    4.8415 C   0  0  0  0  0  0  0  0  0  0  0  0
    2.2944   -0.8073    5.3098 C   0  0  0  0  0  0  0  0  0  0  0  0
    1.6268   -0.1771    6.5331 C   0  0  0  0  0  0  0  0  0  0  0  0
    0.4004   -0.9756    6.9742 C   0  0  0  0  0  0  0  0  0  0  0  0
    0.4496   -2.4349    6.5047 C   0  0  0  0  0  0  0  0  0  0  0  0
    1.8766   -2.9565    6.6496 C   0  0  0  0  0  0  0  0  0  0  0  0
    2.7893   -2.2289    5.6516 C   0  0  0  0  0  0  0  0  0  0  0  0
   -0.5589   -3.2597    7.1471 N   0  0  0  0  0  0  0  0  0  0  0  0
   -0.3787   -3.4683    8.5774 C   0  0  0  0  0  0  0  0  0  0  0  0
   -0.0041   -4.9199    8.8828 C   0  0  0  0  0  0  0  0  0  0  0  0
   -1.8957   -2.9036    6.6892 C   0  0  0  0  0  0  0  0  0  0  0  0
   -2.3341   -1.4756    7.0515 C   0  0  0  0  0  0  0  0  0  0  0  0
   -1.1558   -0.2550    6.3292 S   0  0  0  0  0  0  0  0  0  0  0  0
   -3.7159   -1.1085    6.4925 C   0  0  0  0  0  0  0  0  0  0  0  0
   -4.5949   -2.3343    6.2419 C   0  0  0  0  0  0  0  0  0  0  0  0
   -4.3231   -3.3815    7.3123 C   0  0  0  0  0  0  0  0  0  0  0  0
   -2.9288   -3.9814    7.1226 C   0  0  0  0  0  0  0  0  0  0  0  0
   -2.8304   -5.0685    6.0874 C   0  0  0  0  0  0  0  0  0  0  0  0
   -3.7898   -5.5386    5.3080 C   0  0  0  0  0  0  0  0  0  0  0  0
   -3.6192   -6.5238    4.1792 C   0  0  0  0  0  0  0  0  0  0  0  0
   -2.2292   -6.4660    3.5287 C   0  0  0  0  0  0  0  0  0  0  0  0
   -2.0306   -5.0826    2.9348 C   0  0  0  0  0  0  0  0  0  0  0  0
   -3.0345   -4.8354    1.8203 C   0  0  0  0  0  0  0  0  0  0  0  0
   -4.4444   -4.8965    2.4340 C   0  0  0  0  0  0  0  0  0  0  0  0
   -4.6770   -6.2507    3.0998 C   0  0  0  0  0  0  0  0  0  0  0  0
   -2.8500   -3.5972    1.0823 N   0  0  0  0  0  0  0  0  0  0  0  0
   -3.1123   -3.7320   -0.3373 C   0  0  0  0  0  0  0  0  0  0  0  0
   -1.9995   -4.4139   -1.1434 C   0  0  0  0  0  0  0  0  0  0  0  0
   -1.8429   -2.6096    1.4002 C   0  0  0  0  0  0  0  0  0  0  0  0
   -0.6833   -2.9801    2.3276 C   0  0  0  0  0  0  0  0  0  0  0  0
   -0.3448   -4.7699    2.3033 S   0  0  0  0  0  0  0  0  0  0  0  0
    0.4969   -2.0915    1.9702 C   0  0  0  0  0  0  0  0  0  0  0  0
   -0.0046   -0.6510    1.7452 C   0  0  0  0  0  0  0  0  0  0  0  0
   -1.3225   -0.3746    2.4743 C   0  0  0  0  0  0  0  0  0  0  0  0
   -2.4600   -1.3268    2.0443 C   0  0  0  0  0  0  0  0  0  0  0  0
   -3.4051   -0.7253    1.0656 C   0  0  0  0  0  0  0  0  0  0  0  0
   -4.6991   -1.0608    1.0188 C   0  0  0  0  0  0  0  0  0  0  0  0
   -5.6211   -0.6802   -0.0014 C   0  0  0  0  0  0  0  0  0  0  0  0
   -5.1659    0.3992   -1.2774 S   0  0  0  0  0  0  0  0  0  0  0  0
   -6.6689    0.2210   -2.1059 C   0  0  0  0  0  0  0  0  0  0  0  0
   -7.5002   -0.6405   -1.4147 C   0  0  0  0  0  0  0  0  0  0  0  0
   -6.9094   -1.1531   -0.2144 C   0  0  0  0  0  0  0  0  0  0  0  0
   -7.6316   -2.0693    0.5866 C   0  0  0  0  0  0  0  0  0  0  0  0
   -8.8852   -2.4561    0.2197 C   0  0  0  0  0  0  0  0  0  0  0  0
   -9.6720   -3.3343    0.8996 O   0  0  0  0  0  0  0  0  0  0  0  0
   -9.1601   -3.9056    2.0754 C   0  0  0  0  0  0  0  0  0  0  0  0
   -9.4903   -1.9302   -0.9808 C   0  0  0  0  0  0  0  0  0  0  0  0
  -10.7471   -2.3970   -1.2147 O   0  0  0  0  0  0  0  0  0  0  0  0
  -11.4260   -1.9309   -2.3516 C   0  0  0  0  0  0  0  0  0  0  0  0
   -8.8122   -1.0523   -1.7703 C   0  0  0  0  0  0  0  0  0  0  0  0
   -6.9424    0.8335   -3.4442 C   0  0  0  0  0  0  0  0  0  0  0  0
   -6.2416    2.1813   -3.6960 C   0  0  0  0  0  0  0  0  0  0  0  0
   -5.1361    2.0976   -4.7496 C   0  0  0  0  0  0  0  0  0  0  0  0
   -4.2069    0.9334   -4.3968 C   0  0  0  0  0  0  0  0  0  0  0  0
   -5.0312   -0.3539   -4.6224 C   0  0  0  0  0  0  0  0  0  0  0  0
   -6.5470   -0.1508   -4.5553 C   0  0  0  0  0  0  0  0  0  0  0  0
   -2.9395    0.8553   -5.1424 N   0  0  0  0  0  0  0  0  0  0  0  0
   -2.1856   -0.3444   -4.7990 C   0  0  0  0  0  0  0  0  0  0  0  0
   -1.6781   -0.4479   -3.3553 C   0  0  0  0  0  0  0  0  0  0  0  0
   -2.1973    2.1190   -5.0179 C   0  0  0  0  0  0  0  0  0  0  0  0
   -2.9731    3.1471   -5.8531 C   0  0  0  0  0  0  0  0  0  0  0  0
   -4.3369    3.7405   -4.8071 S   0  0  0  0  0  0  0  0  0  0  0  0
   -2.1126    4.2798   -6.3786 C   0  0  0  0  0  0  0  0  0  0  0  0
   -1.1002    3.7200   -7.3835 C   0  0  0  0  0  0  0  0  0  0  0  0
   -0.6761    2.2978   -6.9982 C   0  0  0  0  0  0  0  0  0  0  0  0
   -0.7250    2.1078   -5.4778 C   0  0  0  0  0  0  0  0  0  0  0  0
    0.0703    3.1612   -4.7483 C   0  0  0  0  0  0  0  0  0  0  0  0
    1.2628    3.6026   -5.1149 C   0  0  0  0  0  0  0  0  0  0  0  0
    2.0235    4.6635   -4.3717 C   0  0  0  0  0  0  0  0  0  0  0  0
    3.0111    4.0520   -3.3515 C   0  0  0  0  0  0  0  0  0  0  0  0
    4.4686    4.0957   -3.8134 C   0  0  0  0  0  0  0  0  0  0  0  0
    4.5627    3.7453   -5.3034 C   0  0  0  0  0  0  0  0  0  0  0  0
    3.8681    4.8471   -6.1247 C   0  0  0  0  0  0  0  0  0  0  0  0
    2.7769    5.5801   -5.3360 C   0  0  0  0  0  0  0  0  0  0  0  0
    5.8910    3.4333   -5.7983 N   0  0  0  0  0  0  0  0  0  0  0  0
    6.8098    4.4975   -6.1427 C   0  0  0  0  0  0  0  0  0  0  0  0
    7.1058    5.5871   -5.1012 C   0  0  0  0  0  0  0  0  0  0  0  0
    6.4171    2.2096   -5.2173 C   0  0  0  0  0  0  0  0  0  0  0  0
    6.8022    2.3377   -3.7398 C   0  0  0  0  0  0  0  0  0  0  0  0
    5.3546    2.8846   -2.7473 S   0  0  0  0  0  0  0  0  0  0  0  0
    7.2296    0.9984   -3.1508 C   0  0  0  0  0  0  0  0  0  0  0  0
    8.3780    0.3914   -3.9447 C   0  0  0  0  0  0  0  0  0  0  0  0
    7.9765    0.2512   -5.4078 C   0  0  0  0  0  0  0  0  0  0  0  0
    7.6058    1.6217   -5.9972 C   0  0  0  0  0  0  0  0  0  0  0  0
    7.3620    1.4705   -7.4714 C   0  0  0  0  0  0  0  0  0  0  0  0
    6.2052    1.5415   -8.1008 C   0  0  0  0  0  0  0  0  0  0  0  0
    2.3767   -2.9023   -1.9578 H   0  0  0  0  0  0  0  0  0  0  0  0
    2.6862   -1.8473   -3.3325 H   0  0  0  0  0  0  0  0  0  0  0  0
    4.7163   -2.8687   -1.8528 H   0  0  0  0  0  0  0  0  0  0  0  0
    4.8342   -1.2897   -2.6182 H   0  0  0  0  0  0  0  0  0  0  0  0
    3.8152   -1.6995    0.2205 H   0  0  0  0  0  0  0  0  0  0  0  0
    4.9627    0.7724   -1.1321 H   0  0  0  0  0  0  0  0  0  0  0  0
    2.2287    1.2517   -1.0688 H   0  0  0  0  0  0  0  0  0  0  0  0
    3.1614    0.7482   -2.4709 H   0  0  0  0  0  0  0  0  0  0  0  0
    1.7453   -1.1222   -0.5440 H   0  0  0  0  0  0  0  0  0  0  0  0
    1.0966   -0.6081   -2.0978 H   0  0  0  0  0  0  0  0  0  0  0  0
    4.4304    2.9301    1.0946 H   0  0  0  0  0  0  0  0  0  0  0  0
    3.6623    2.6181   -0.4365 H   0  0  0  0  0  0  0  0  0  0  0  0
    1.5057    2.0930    0.7576 H   0  0  0  0  0  0  0  0  0  0  0  0
    2.2893    2.4185    2.2960 H   0  0  0  0  0  0  0  0  0  0  0  0
    2.1001    3.7167    1.1132 H   0  0  0  0  0  0  0  0  0  0  0  0
    5.9906    1.3655    1.2256 H   0  0  0  0  0  0  0  0  0  0  0  0
    4.9706   -1.3582    2.1422 H   0  0  0  0  0  0  0  0  0  0  0  0
    7.7405   -0.0758    2.1055 H   0  0  0  0  0  0  0  0  0  0  0  0
    7.3805   -1.7333    2.5883 H   0  0  0  0  0  0  0  0  0  0  0  0
    5.9927   -0.9190    4.4622 H   0  0  0  0  0  0  0  0  0  0  0  0
    7.6094   -0.2091    4.5683 H   0  0  0  0  0  0  0  0  0  0  0  0
    5.8304    1.5209    4.9162 H   0  0  0  0  0  0  0  0  0  0  0  0
    6.7996    1.8540    3.4850 H   0  0  0  0  0  0  0  0  0  0  0  0
    4.4569    2.2023    3.0091 H   0  0  0  0  0  0  0  0  0  0  0  0
    2.9970    0.0029    2.8076 H   0  0  0  0  0  0  0  0  0  0  0  0
    4.1179    0.3495    5.6286 H   0  0  0  0  0  0  0  0  0  0  0  0
    1.5527   -0.8583    4.5089 H   0  0  0  0  0  0  0  0  0  0  0  0
    2.3469   -0.1432    7.3545 H   0  0  0  0  0  0  0  0  0  0  0  0
    1.3333    0.8501    6.3057 H   0  0  0  0  0  0  0  0  0  0  0  0
    0.3047   -0.9281    8.0633 H   0  0  0  0  0  0  0  0  0  0  0  0
    0.2106   -2.4581    5.4347 H   0  0  0  0  0  0  0  0  0  0  0  0
    2.2306   -2.7938    7.6688 H   0  0  0  0  0  0  0  0  0  0  0  0
    1.8899   -4.0287    6.4548 H   0  0  0  0  0  0  0  0  0  0  0  0
    3.7966   -2.1664    6.0692 H   0  0  0  0  0  0  0  0  0  0  0  0
    2.8579   -2.8030    4.7257 H   0  0  0  0  0  0  0  0  0  0  0  0
    0.4174   -2.8236    8.9634 H   0  0  0  0  0  0  0  0  0  0  0  0
   -1.2888   -3.2053    9.1271 H   0  0  0  0  0  0  0  0  0  0  0  0
   -0.7679   -5.6031    8.5219 H   0  0  0  0  0  0  0  0  0  0  0  0
    0.9339   -5.1747    8.3987 H   0  0  0  0  0  0  0  0  0  0  0  0
    0.1084   -5.0555    9.9563 H   0  0  0  0  0  0  0  0  0  0  0  0
   -1.8460   -2.9277    5.5910 H   0  0  0  0  0  0  0  0  0  0  0  0
   -2.2973   -1.3363    8.1360 H   0  0  0  0  0  0  0  0  0  0  0  0
   -4.2082   -0.4371    7.1982 H   0  0  0  0  0  0  0  0  0  0  0  0
   -3.5866   -0.5556    5.5591 H   0  0  0  0  0  0  0  0  0  0  0  0
   -4.3756   -2.7604    5.2615 H   0  0  0  0  0  0  0  0  0  0  0  0
   -5.6443   -2.0349    6.2483 H   0  0  0  0  0  0  0  0  0  0  0  0
   -4.3873   -2.9062    8.2941 H   0  0  0  0  0  0  0  0  0  0  0  0
   -5.0691   -4.1766    7.2898 H   0  0  0  0  0  0  0  0  0  0  0  0
   -2.6141   -4.4104    8.0762 H   0  0  0  0  0  0  0  0  0  0  0  0
   -1.8122   -5.4158    5.9705 H   0  0  0  0  0  0  0  0  0  0  0  0
   -4.8108   -5.2071    5.4417 H   0  0  0  0  0  0  0  0  0  0  0  0
   -3.7786   -7.5365    4.5730 H   0  0  0  0  0  0  0  0  0  0  0  0
   -2.1588   -7.2244    2.7460 H   0  0  0  0  0  0  0  0  0  0  0  0
   -1.4478   -6.6739    4.2600 H   0  0  0  0  0  0  0  0  0  0  0  0
   -2.1757   -4.3507    3.7331 H   0  0  0  0  0  0  0  0  0  0  0  0
   -2.9406   -5.6765    1.1168 H   0  0  0  0  0  0  0  0  0  0  0  0
   -4.5454   -4.0934    3.1668 H   0  0  0  0  0  0  0  0  0  0  0  0
   -5.1835   -4.7277    1.6485 H   0  0  0  0  0  0  0  0  0  0  0  0
   -5.6755   -6.2812    3.5428 H   0  0  0  0  0  0  0  0  0  0  0  0
   -4.6274   -7.0355    2.3411 H   0  0  0  0  0  0  0  0  0  0  0  0
   -3.2918   -2.7322   -0.7410 H   0  0  0  0  0  0  0  0  0  0  0  0
   -4.0408   -4.2981   -0.4493 H   0  0  0  0  0  0  0  0  0  0  0  0
   -2.2989   -4.4983   -2.1850 H   0  0  0  0  0  0  0  0  0  0  0  0
   -1.0768   -3.8403   -1.0950 H   0  0  0  0  0  0  0  0  0  0  0  0
   -1.7944   -5.4104   -0.7595 H   0  0  0  0  0  0  0  0  0  0  0  0
   -1.3997   -2.3101    0.4456 H   0  0  0  0  0  0  0  0  0  0  0  0
   -0.9648   -2.7824    3.3671 H   0  0  0  0  0  0  0  0  0  0  0  0
    0.9793   -2.4729    1.0673 H   0  0  0  0  0  0  0  0  0  0  0  0
    1.2357   -2.1301    2.7722 H   0  0  0  0  0  0  0  0  0  0  0  0
   -0.1510   -0.4694    0.6788 H   0  0  0  0  0  0  0  0  0  0  0  0
    0.7487    0.0583    2.0905 H   0  0  0  0  0  0  0  0  0  0  0  0
   -1.6245    0.6561    2.2790 H   0  0  0  0  0  0  0  0  0  0  0  0
   -1.1593   -0.4530    3.5506 H   0  0  0  0  0  0  0  0  0  0  0  0
   -3.0268   -1.6480    2.9246 H   0  0  0  0  0  0  0  0  0  0  0  0
   -2.9820   -0.0749    0.3111 H   0  0  0  0  0  0  0  0  0  0  0  0
   -5.0931   -1.7258    1.7745 H   0  0  0  0  0  0  0  0  0  0  0  0
   -7.1679   -2.4486    1.4819 H   0  0  0  0  0  0  0  0  0  0  0  0
   -8.9456   -3.1443    2.8334 H   0  0  0  0  0  0  0  0  0  0  0  0
   -8.2507   -4.4848    1.8794 H   0  0  0  0  0  0  0  0  0  0  0  0
   -9.9390   -4.5713    2.4437 H   0  0  0  0  0  0  0  0  0  0  0  0
  -10.9007   -2.2015   -3.2742 H   0  0  0  0  0  0  0  0  0  0  0  0
  -11.5645   -0.8446   -2.3210 H   0  0  0  0  0  0  0  0  0  0  0  0
  -12.3992   -2.4187   -2.3352 H   0  0  0  0  0  0  0  0  0  0  0  0
   -9.2526   -0.6573   -2.6709 H   0  0  0  0  0  0  0  0  0  0  0  0
   -8.0256    0.9883   -3.5011 H   0  0  0  0  0  0  0  0  0  0  0  0
   -5.7968    2.5489   -2.7685 H   0  0  0  0  0  0  0  0  0  0  0  0
   -6.9675    2.9278   -4.0222 H   0  0  0  0  0  0  0  0  0  0  0  0
   -5.5478    1.9532   -5.7520 H   0  0  0  0  0  0  0  0  0  0  0  0
   -3.9824    1.0484   -3.3230 H   0  0  0  0  0  0  0  0  0  0  0  0
   -4.7451   -1.0963   -3.8764 H   0  0  0  0  0  0  0  0  0  0  0  0
   -4.7884   -0.7454   -5.6118 H   0  0  0  0  0  0  0  0  0  0  0  0
   -7.0260   -1.1157   -4.3770 H   0  0  0  0  0  0  0  0  0  0  0  0
   -6.9224    0.2311   -5.5061 H   0  0  0  0  0  0  0  0  0  0  0  0
   -1.3447   -0.4111   -5.4922 H   0  0  0  0  0  0  0  0  0  0  0  0
   -2.8145   -1.2088   -5.0093 H   0  0  0  0  0  0  0  0  0  0  0  0
   -1.0871   -1.3550   -3.2487 H   0  0  0  0  0  0  0  0  0  0  0  0
   -2.5068   -0.4989   -2.6529 H   0  0  0  0  0  0  0  0  0  0  0  0
   -1.0570    0.4064   -3.0950 H   0  0  0  0  0  0  0  0  0  0  0  0
   -2.2161    2.4512   -3.9636 H   0  0  0  0  0  0  0  0  0  0  0  0
   -3.4467    2.6338   -6.6957 H   0  0  0  0  0  0  0  0  0  0  0  0
   -2.7477    5.0302   -6.8523 H   0  0  0  0  0  0  0  0  0  0  0  0
   -1.5989    4.7608   -5.5455 H   0  0  0  0  0  0  0  0  0  0  0  0
   -1.5379    3.7057   -8.3830 H   0  0  0  0  0  0  0  0  0  0  0  0
   -0.2295    4.3762   -7.4122 H   0  0  0  0  0  0  0  0  0  0  0  0
    0.3244    2.0901   -7.3791 H   0  0  0  0  0  0  0  0  0  0  0  0
   -1.3547    1.5689   -7.4445 H   0  0  0  0  0  0  0  0  0  0  0  0
   -0.2653    1.1476   -5.2321 H   0  0  0  0  0  0  0  0  0  0  0  0
   -0.3789    3.5572   -3.8455 H   0  0  0  0  0  0  0  0  0  0  0  0
    1.7426    3.2008   -5.9941 H   0  0  0  0  0  0  0  0  0  0  0  0
    1.2969    5.2662   -3.8164 H   0  0  0  0  0  0  0  0  0  0  0  0
    2.7333    3.0109   -3.1740 H   0  0  0  0  0  0  0  0  0  0  0  0
    2.9341    4.5724   -2.3953 H   0  0  0  0  0  0  0  0  0  0  0  0
    4.9123    5.0707   -3.6107 H   0  0  0  0  0  0  0  0  0  0  0  0
    3.9843    2.8163   -5.4236 H   0  0  0  0  0  0  0  0  0  0  0  0
    3.4499    4.3934   -7.0244 H   0  0  0  0  0  0  0  0  0  0  0  0
    4.5933    5.5871   -6.4536 H   0  0  0  0  0  0  0  0  0  0  0  0
    2.0724    6.0355   -6.0352 H   0  0  0  0  0  0  0  0  0  0  0  0
    3.2255    6.3891   -4.7551 H   0  0  0  0  0  0  0  0  0  0  0  0
    6.4368    4.9810   -7.0534 H   0  0  0  0  0  0  0  0  0  0  0  0
    7.7509    4.0274   -6.4214 H   0  0  0  0  0  0  0  0  0  0  0  0
    7.4039    5.1617   -4.1473 H   0  0  0  0  0  0  0  0  0  0  0  0
    6.2445    6.2302   -4.9390 H   0  0  0  0  0  0  0  0  0  0  0  0
    7.9224    6.2072   -5.4651 H   0  0  0  0  0  0  0  0  0  0  0  0
    5.6004    1.4751   -5.2720 H   0  0  0  0  0  0  0  0  0  0  0  0
    7.5964    3.0783   -3.6129 H   0  0  0  0  0  0  0  0  0  0  0  0
    7.5130    1.1280   -2.1045 H   0  0  0  0  0  0  0  0  0  0  0  0
    6.3763    0.3171   -3.1771 H   0  0  0  0  0  0  0  0  0  0  0  0
    9.2609    1.0303   -3.8658 H   0  0  0  0  0  0  0  0  0  0  0  0
    8.6294   -0.5846   -3.5265 H   0  0  0  0  0  0  0  0  0  0  0  0
    7.1227   -0.4241   -5.4954 H   0  0  0  0  0  0  0  0  0  0  0  0
    8.8004   -0.1759   -5.9833 H   0  0  0  0  0  0  0  0  0  0  0  0
    8.4845    2.2632   -5.8577 H   0  0  0  0  0  0  0  0  0  0  0  0
    8.2601    1.2418   -8.0339 H   0  0  0  0  0  0  0  0  0  0  0  0
    5.2858    1.7727   -7.5954 H   0  0  0  0  0  0  0  0  0  0  0  0
    6.1389    1.3896   -9.1652 H   0  0  0  0  0  0  0  0  0  0  0  0
  1  2  1  0  0  0  0
  2  3  1  0  0  0  0
  3  4  1  0  0  0  0
  4  5  1  0  0  0  0
  5  6  1  0  0  0  0
  4  7  1  0  0  0  0
  7  8  1  0  0  0  0
  8  9  1  0  0  0  0
  7 10  1  0  0  0  0
 10 11  1  0  0  0  0
 11 12  1  0  0  0  0
 11 13  1  0  0  0  0
 13 14  1  0  0  0  0
 14 15  1  0  0  0  0
 15 16  1  0  0  0  0
 16 17  1  0  0  0  0
 17 18  2  0  0  0  0
 18 19  1  0  0  0  0
 19 20  1  0  0  0  0
 20 21  1  0  0  0  0
 21 22  1  0  0  0  0
 22 23  1  0  0  0  0
 23 24  1  0  0  0  0
 22 25  1  0  0  0  0
 25 26  1  0  0  0  0
 26 27  1  0  0  0  0
 25 28  1  0  0  0  0
 28 29  1  0  0  0  0
 29 30  1  0  0  0  0
 29 31  1  0  0  0  0
 31 32  1  0  0  0  0
 32 33  1  0  0  0  0
 33 34  1  0  0  0  0
 34 35  1  0  0  0  0
 35 36  2  0  0  0  0
 36 37  1  0  0  0  0
 37 38  1  0  0  0  0
 38 39  1  0  0  0  0
 39 40  1  0  0  0  0
 40 41  1  0  0  0  0
 41 42  1  0  0  0  0
 40 43  1  0  0  0  0
 43 44  1  0  0  0  0
 44 45  1  0  0  0  0
 43 46  1  0  0  0  0
 46 47  1  0  0  0  0
 47 48  1  0  0  0  0
 47 49  1  0  0  0  0
 49 50  1  0  0  0  0
 50 51  1  0  0  0  0
 51 52  1  0  0  0  0
 52 53  1  0  0  0  0
 53 54  2  0  0  0  0
 54 55  1  0  0  0  0
 55 56  1  0  0  0  0
 56 57  1  0  0  0  0
 57 58  2  0  0  0  0
 58 59  1  0  0  0  0
 59 60  1  0  0  0  0
 60 61  2  0  0  0  0
 61 62  1  0  0  0  0
 62 63  1  0  0  0  0
 61 64  1  0  0  0  0
 64 65  1  0  0  0  0
 65 66  1  0  0  0  0
 64 67  2  0  0  0  0
 57 68  1  0  0  0  0
 68 69  1  0  0  0  0
 69 70  1  0  0  0  0
 70 71  1  0  0  0  0
 71 72  1  0  0  0  0
 72 73  1  0  0  0  0
 71 74  1  0  0  0  0
 74 75  1  0  0  0  0
 75 76  1  0  0  0  0
 74 77  1  0  0  0  0
 77 78  1  0  0  0  0
 78 79  1  0  0  0  0
 78 80  1  0  0  0  0
 80 81  1  0  0  0  0
 81 82  1  0  0  0  0
 82 83  1  0  0  0  0
 83 84  1  0  0  0  0
 84 85  2  0  0  0  0
 85 86  1  0  0  0  0
 86 87  1  0  0  0  0
 87 88  1  0  0  0  0
 88 89  1  0  0  0  0
 89 90  1  0  0  0  0
 90 91  1  0  0  0  0
 89 92  1  0  0  0  0
 92 93  1  0  0  0  0
 93 94  1  0  0  0  0
 92 95  1  0  0  0  0
 95 96  1  0  0  0  0
 96 97  1  0  0  0  0
 96 98  1  0  0  0  0
 98 99  1  0  0  0  0
 99100  1  0  0  0  0
100101  1  0  0  0  0
101102  1  0  0  0  0
102103  2  0  0  0  0
  6  1  1  0  0  0  0
 16 10  1  0  0  0  0
 24 19  1  0  0  0  0
 34 28  1  0  0  0  0
 42 37  1  0  0  0  0
 52 46  1  0  0  0  0
 59 55  2  0  0  0  0
 73 68  1  0  0  0  0
 83 77  1  0  0  0  0
 91 86  1  0  0  0  0
101 95  1  0  0  0  0
 12  3  1  0  0  0  0
 30 21  1  0  0  0  0
 48 39  1  0  0  0  0
 67 58  1  0  0  0  0
 79 70  1  0  0  0  0
 97 88  1  0  0  0  0
  1104  1  0  0  0  0
  1105  1  0  0  0  0
  2106  1  0  0  0  0
  2107  1  0  0  0  0
  3108  1  0  0  0  0
  4109  1  0  0  0  0
  5110  1  0  0  0  0
  5111  1  0  0  0  0
  6112  1  0  0  0  0
  6113  1  0  0  0  0
  8114  1  0  0  0  0
  8115  1  0  0  0  0
  9116  1  0  0  0  0
  9117  1  0  0  0  0
  9118  1  0  0  0  0
 10119  1  0  0  0  0
 11120  1  0  0  0  0
 13121  1  0  0  0  0
 13122  1  0  0  0  0
 14123  1  0  0  0  0
 14124  1  0  0  0  0
 15125  1  0  0  0  0
 15126  1  0  0  0  0
 16127  1  0  0  0  0
 17128  1  0  0  0  0
 18129  1  0  0  0  0
 19130  1  0  0  0  0
 20131  1  0  0  0  0
 20132  1  0  0  0  0
 21133  1  0  0  0  0
 22134  1  0  0  0  0
 23135  1  0  0  0  0
 23136  1  0  0  0  0
 24137  1  0  0  0  0
 24138  1  0  0  0  0
 26139  1  0  0  0  0
 26140  1  0  0  0  0
 27141  1  0  0  0  0
 27142  1  0  0  0  0
 27143  1  0  0  0  0
 28144  1  0  0  0  0
 29145  1  0  0  0  0
 31146  1  0  0  0  0
 31147  1  0  0  0  0
 32148  1  0  0  0  0
 32149  1  0  0  0  0
 33150  1  0  0  0  0
 33151  1  0  0  0  0
 34152  1  0  0  0  0
 35153  1  0  0  0  0
 36154  1  0  0  0  0
 37155  1  0  0  0  0
 38156  1  0  0  0  0
 38157  1  0  0  0  0
 39158  1  0  0  0  0
 40159  1  0  0  0  0
 41160  1  0  0  0  0
 41161  1  0  0  0  0
 42162  1  0  0  0  0
 42163  1  0  0  0  0
 44164  1  0  0  0  0
 44165  1  0  0  0  0
 45166  1  0  0  0  0
 45167  1  0  0  0  0
 45168  1  0  0  0  0
 46169  1  0  0  0  0
 47170  1  0  0  0  0
 49171  1  0  0  0  0
 49172  1  0  0  0  0
 50173  1  0  0  0  0
 50174  1  0  0  0  0
 51175  1  0  0  0  0
 51176  1  0  0  0  0
 52177  1  0  0  0  0
 53178  1  0  0  0  0
 54179  1  0  0  0  0
 60180  1  0  0  0  0
 63181  1  0  0  0  0
 63182  1  0  0  0  0
 63183  1  0  0  0  0
 66184  1  0  0  0  0
 66185  1  0  0  0  0
 66186  1  0  0  0  0
 67187  1  0  0  0  0
 68188  1  0  0  0  0
 69189  1  0  0  0  0
 69190  1  0  0  0  0
 70191  1  0  0  0  0
 71192  1  0  0  0  0
 72193  1  0  0  0  0
 72194  1  0  0  0  0
 73195  1  0  0  0  0
 73196  1  0  0  0  0
 75197  1  0  0  0  0
 75198  1  0  0  0  0
 76199  1  0  0  0  0
 76200  1  0  0  0  0
 76201  1  0  0  0  0
 77202  1  0  0  0  0
 78203  1  0  0  0  0
 80204  1  0  0  0  0
 80205  1  0  0  0  0
 81206  1  0  0  0  0
 81207  1  0  0  0  0
 82208  1  0  0  0  0
 82209  1  0  0  0  0
 83210  1  0  0  0  0
 84211  1  0  0  0  0
 85212  1  0  0  0  0
 86213  1  0  0  0  0
 87214  1  0  0  0  0
 87215  1  0  0  0  0
 88216  1  0  0  0  0
 89217  1  0  0  0  0
 90218  1  0  0  0  0
 90219  1  0  0  0  0
 91220  1  0  0  0  0
 91221  1  0  0  0  0
 93222  1  0  0  0  0
 93223  1  0  0  0  0
 94224  1  0  0  0  0
 94225  1  0  0  0  0
 94226  1  0  0  0  0
 95227  1  0  0  0  0
 96228  1  0  0  0  0
 98229  1  0  0  0  0
 98230  1  0  0  0  0
 99231  1  0  0  0  0
 99232  1  0  0  0  0
100233  1  0  0  0  0
100234  1  0  0  0  0
101235  1  0  0  0  0
102236  1  0  0  0  0
103237  1  0  0  0  0
103238  1  0  0  0  0
M  END
