212

C        -14.15600       -3.78710       12.22000
C        -13.74230       -2.53000       11.96050
C        -13.07170       -2.41660       10.70800
C        -12.47270       -1.27970       10.14290
C        -12.56620        0.02640       10.77450
S        -11.14530        0.97280       11.10040
C        -12.07090        2.27410       11.77060
C        -11.40400        3.51380       12.25580
C        -10.72160        4.26010       11.10860
C        -13.40040        1.97840       11.73110
Cl       -14.63740        3.02560       12.29690
C        -13.68530        0.70280       11.17140
Cl       -15.28720        0.12660       10.95110
C        -11.77740       -1.45880        8.95440
C        -11.68740       -2.70890        8.29700
C        -12.32280       -3.83910        8.83880
C        -12.25260       -5.12460        8.16440
S        -10.72380       -5.79780        7.67680
C        -11.46890       -7.18920        6.96780
C        -10.65400       -8.20500        6.24650
C        -10.20610       -7.67180        4.88310
C        -12.82200       -7.12500        7.11460
C        -13.27000       -5.96110        7.79760
Cl       -14.93250       -5.62120        8.03280
Cl       -13.90760       -8.32060        6.53440
C        -12.99650       -3.66440       10.04230
S        -13.76630       -4.91770       10.97210
C        -10.94080       -2.61780        7.09690
C        -10.47010       -1.36580        6.84040
S        -10.94620       -0.21030        8.06760
C         -9.64410       -0.97230        5.74780
C         -9.24350        0.28240        5.39940
C         -8.37170        0.30720        4.28290
C         -7.73080        1.41830        3.70650
C         -7.93410        2.76130        4.22330
S         -7.72990        3.11940        5.91370
C         -8.10700        4.79320        5.68820
C         -8.17610        5.72440        6.84750
C         -9.47580        5.52190        7.62990
C         -8.37760        5.04330        4.37650
Cl        -8.80460        6.58780        3.76330
C         -8.27320        3.89730        3.54170
Cl        -8.63440        3.94930        1.86780
C         -6.86240        1.16660        2.65170
C         -6.63060       -0.13450        2.13870
C         -7.29380       -1.24380        2.69430
C         -7.03640       -2.59630        2.22890
S         -5.40590       -3.19080        2.08650
C         -5.93260       -4.76260        1.59820
C         -4.97710       -5.86110        1.27610
C         -3.52320       -5.44930        1.45800
C         -7.29480       -4.80870        1.55220
C         -7.92440       -3.58670        1.90720
Cl        -9.62410       -3.38470        1.83120
Cl        -8.17590       -6.21350        1.10950
C         -8.14540       -0.99190        3.76230
S         -8.98540       -2.19970        4.68850
C         -5.66940       -0.12830        1.10270
C         -5.13800        1.10590        0.85670
S         -5.85090        2.34290        1.86440
C         -4.06820        1.40180       -0.03980
C         -3.40660        0.50970       -0.83540
C         -2.29420        1.06590       -1.50580
C         -1.35810        0.40780       -2.32560
C         -1.49360       -0.99780       -2.66950
S         -1.73100       -2.22690       -1.46030
C         -1.74490       -3.49740       -2.63500
C         -1.98350       -4.91490       -2.24650
C         -3.46970       -5.26540       -2.35410
C         -1.58600       -2.98360       -3.88680
Cl        -1.55870       -3.93760       -5.31210
C         -1.43810       -1.57080       -3.91070
Cl        -1.30200       -0.69320       -5.37540
C         -0.27730        1.15760       -2.76760
C         -0.12350        2.53820       -2.48210
C         -1.10450        3.21440       -1.73360
C         -1.02190        4.64190       -1.47250
S          0.39860        5.37810       -0.78680
C         -0.30990        6.95730       -0.80360
C          0.41780        8.13790       -0.26220
C          0.20190        8.26610        1.24770
C         -1.57540        6.90030       -1.30510
C         -1.98130        5.59310       -1.68740
Cl        -3.49730        5.28580       -2.42510
Cl        -2.59450        8.26900       -1.48380
C         -2.15160        2.44940       -1.23440
S         -3.38180        3.00650       -0.13740
C          1.08610        3.05460       -2.99890
C          1.86370        2.12110       -3.62780
S          1.09450        0.54280       -3.64060
C          3.16870        2.25450       -4.17450
S          4.15150        0.83870       -4.33780
C          5.51710        1.74230       -4.89600
C          5.21770        3.10680       -4.96130
C          3.87450        3.39530       -4.56840
C          3.40380        4.72490       -4.63390
C          4.24580        5.73640       -5.00140
O          3.90670        7.04490       -5.08750
C          2.59400        7.41930       -4.74970
C          5.62240        5.45550       -5.32090
O          6.35750        6.54770       -5.63140
C          7.70480        6.36540       -5.99560
C          6.08240        4.16820       -5.30710
C          6.72950        1.05250       -5.17220
C          7.78960        1.41750       -5.95390
C          8.85000        0.48080       -5.95070
C         10.09870        0.58480       -6.59050
C         10.47490        1.79910       -7.29420
S         11.06790        1.77440       -8.92700
C         11.26250        3.49320       -8.96590
C         11.72830        4.19260      -10.19490
C         10.54600        4.58000      -11.08670
C         10.88040        4.04150       -7.77780
Cl        10.93270        5.72510       -7.43710
C         10.44020        3.08430       -6.82680
Cl        10.00480        3.51170       -5.22090
C         10.95940       -0.49750       -6.47730
C         10.64900       -1.65010       -5.71620
C          9.41000       -1.74600       -5.05760
C          9.05300       -2.91910       -4.27500
S         10.05360       -3.48300       -2.96790
C          8.97090       -4.78110       -2.59160
C          9.27660       -5.75290       -1.50550
C         10.24520       -6.83490       -1.98850
C          7.91020       -4.77210       -3.44630
C          7.94910       -3.71570       -4.39660
Cl         6.75650       -3.53280       -5.61400
Cl         6.63240       -5.91630       -3.39760
C          8.54030       -0.67290       -5.18920
S          6.98340       -0.52270       -4.43270
C         11.69760       -2.59890       -5.73630
C         12.77900       -2.21510       -6.47770
S         12.54670       -0.61950       -7.18010
C         13.99700       -2.91500       -6.70810
S         15.42190       -2.03490       -7.16630
C         16.38110       -3.44460       -7.17300
C         15.65600       -4.56950       -6.85320
C         14.27730       -4.27680       -6.59590
C         13.39260       -5.34370       -6.32030
C         13.86380       -6.62310       -6.24280
O         13.11010       -7.71840       -5.97910
C         11.73160       -7.54490       -5.76260
C         15.26440       -6.90850       -6.45140
O         15.58490       -8.22010       -6.32420
C         16.92310       -8.59920       -6.52710
C         16.12920       -5.90300       -6.76450
H        -14.68040       -4.14170       13.08580
H        -13.88610       -1.70440       12.63230
H        -10.65660        3.25330       13.00920
H        -12.15650        4.15150       12.72200
H         -9.96530        3.62850       10.64850
H        -11.45020        4.53790       10.35120
H        -10.24480        5.16250       11.48160
H         -9.77420       -8.45750        6.84200
H        -11.25590       -9.10500        6.11250
H        -11.07030       -7.42650        4.27080
H         -9.61450       -8.42100        4.36400
H         -9.60300       -6.77500        5.00670
H        -10.75570       -3.44560        6.43720
H         -9.56370        1.15730        5.93490
H         -7.32530        5.54740        7.50830
H         -8.12390        6.74890        6.47580
H        -10.33380        5.71420        6.99080
H         -9.53800        4.50060        7.99820
H         -9.51270        6.20130        8.47690
H         -5.15050       -6.17940        0.24340
H         -5.20590       -6.71900        1.91560
H         -3.28580       -4.59320        0.83060
H         -2.86510       -6.27180        1.19090
H         -3.33280       -5.17460        2.49260
H         -5.36700       -1.00990        0.57100
H         -3.69110       -0.52170       -0.91880
H         -1.41030       -5.56290       -2.91240
H         -1.64050       -5.07230       -1.22300
H         -3.63140       -6.29810       -2.05690
H         -4.06010       -4.61660       -1.71140
H         -3.81090       -5.14100       -3.37840
H          1.48460        8.03460       -0.46880
H          0.04810        9.03550       -0.76150
H         -0.85680        8.37560        1.46810
H          0.57370        7.38100        1.75840
H          0.72960        9.13670        1.62750
H          1.39800        4.06760       -2.83830
H          2.36990        4.92230       -4.41520
H          2.35580        7.15850       -3.71280
H          1.85840        6.95790       -5.41650
H          2.55760        8.50090       -4.86730
H          8.08830        7.36010       -6.21530
H          8.28730        5.92400       -5.18150
H          7.79690        5.73700       -6.88730
H          7.11160        3.95090       -5.52720
H          7.79790        2.29840       -6.56630
H         12.27360        5.09220       -9.90250
H         12.40300        3.53760      -10.74800
H          9.87370        5.24670      -10.55250
H         10.90240        5.08700      -11.97910
H          9.99260        3.69320      -11.38580
H          9.71780       -5.22420       -0.65870
H          8.34300       -6.21610       -1.18150
H         11.18480       -6.38610       -2.30300
H         10.44900       -7.53870       -1.18630
H          9.81560       -7.37800       -2.82690
H         11.66220       -3.51030       -5.17230
H         17.42470       -3.37750       -7.40640
H         12.34380       -5.13670       -6.20530
H         11.23250       -7.13840       -6.64830
H         11.34010       -8.53860       -5.55210
H         11.53860       -6.88990       -4.90660
H         16.95090       -9.67630       -6.37190
H         17.25520       -8.37030       -7.54510
H         17.59160       -8.11120       -5.81020
H         17.17440       -6.08610       -6.95180
