236

C         -7.04430      -18.64640        2.27020
S         -7.74880      -17.27410        2.99880
C         -6.50610      -16.20530        2.40060
C         -5.57480      -16.93930        1.65320
C         -5.89230      -18.33440        1.58860
C         -5.05510      -19.22850        0.87540
C         -3.93860      -18.75850        0.25150
O         -3.05760      -19.50060       -0.46360
C         -3.29990      -20.87920       -0.59010
C         -3.60200      -17.35710        0.33160
O         -2.46140      -17.02440       -0.31730
C         -2.06240      -15.67500       -0.32490
C         -4.39930      -16.48440        1.01830
C         -6.56470      -14.80960        2.63930
S         -5.70530      -13.70860        1.60860
C         -6.30870      -12.30150        2.42500
C         -7.13730      -12.67450        3.48770
C         -7.28720      -14.08990        3.60480
C         -8.06910      -14.61280        4.65740
C         -8.69120      -13.77760        5.54240
O         -9.46740      -14.17330        6.58080
C         -9.67630      -15.55090        6.77050
C         -8.53140      -12.35270        5.42940
O         -9.17880      -11.63690        6.37730
C         -9.07710      -10.23390        6.34310
C         -7.75980      -11.82840        4.42980
C         -5.88960      -11.02510        1.97400
C         -6.43720       -9.78880        2.18780
C         -5.70810       -8.72590        1.60490
C         -5.97820       -7.34890        1.68950
C         -7.08940       -6.83880        2.50300
C         -8.00600       -5.93650        1.97290
C         -9.03820       -5.47180        2.76300
F         -9.92040       -4.61020        2.21920
C         -9.22150       -5.85810        4.08670
C        -10.32990       -5.30790        4.93390
C         -9.89650       -3.99820        5.59670
C         -8.27660       -6.74900        4.58200
F         -8.38580       -7.16100        5.86570
C         -7.23290       -7.24410        3.82740
C         -5.12270       -6.49940        1.00460
C         -4.00490       -6.96550        0.26990
C         -3.71840       -8.34140        0.20390
C         -2.53490       -8.82350       -0.52080
C         -2.63780       -9.84740       -1.45660
C         -1.51620      -10.24360       -2.15780
C         -0.26170       -9.66930       -1.98350
C          0.92670      -10.06350       -2.80850
C          0.99010       -9.22320       -4.08690
C         -0.19700       -8.66510       -1.02430
C         -1.28910       -8.24360       -0.29390
F          0.99190       -8.06750       -0.79260
F         -1.64860      -11.23520       -3.06260
C         -4.58870       -9.18890        0.86500
S         -4.44350      -10.92180        0.97180
C         -3.27890       -5.90280       -0.31520
C         -3.76780       -4.66600       -0.00690
S         -5.20710       -4.75600        0.98690
C         -3.16620       -3.42340       -0.36990
C         -1.91130       -3.27710       -0.88690
C         -1.53740       -1.93110       -1.10780
C         -0.29800       -1.45160       -1.56530
C          0.75470       -2.39160       -1.97220
C          2.04700       -2.28070       -1.47010
C          2.99840       -3.21750       -1.82400
F          4.23720       -3.08920       -1.30880
C          2.73600       -4.29470       -2.66280
C          3.78240       -5.30040       -3.03910
C          4.44610       -4.91700       -4.36370
C          1.43960       -4.35580       -3.16190
F          1.11390       -5.37380       -3.98720
C          0.45970       -3.43900       -2.84210
C         -0.13110       -0.07600       -1.57430
C         -1.15100        0.82740       -1.17780
C         -2.39790        0.34560       -0.74350
C         -3.46250        1.25900       -0.30730
C         -3.20230        2.25330        0.63140
C         -4.21700        3.10440        1.02070
C         -5.51130        3.02890        0.51890
C         -6.60640        3.94410        0.97870
C         -7.35630        3.32850        2.16250
C         -5.73300        2.01330       -0.40520
C         -4.74920        1.13960       -0.82270
F         -6.96640        1.88260       -0.93180
F         -3.92950        4.06170        1.92770
C         -2.56120       -1.03040       -0.72100
S         -3.96590       -1.88480       -0.13380
C         -0.73150        2.17590       -1.29110
C          0.55430        2.31460       -1.72640
S          1.30770        0.77260       -2.07100
C          1.29750        3.53030       -1.83390
C          0.96200        4.73750       -1.29370
C          1.93860        5.74320       -1.49830
C          1.93110        7.06060       -1.00830
C          0.77140        7.58770       -0.27740
C          0.92950        8.22150        0.95070
C         -0.18200        8.69190        1.62160
F          0.00140        9.28860        2.81560
C         -1.47870        8.56650        1.13480
C         -2.66730        9.11090        1.86880
C         -2.93600       10.55940        1.45380
C         -1.59190        7.94040       -0.10150
F         -2.82000        7.78980       -0.63980
C         -0.50960        7.45350       -0.80610
C          3.06680        7.81920       -1.24540
C          4.17840        7.32880       -1.97640
C          4.18050        6.01720       -2.47970
C          5.33660        5.50310       -3.22630
C          5.16860        4.90040       -4.46850
C          6.27740        4.47870       -5.17550
C          7.58030        4.61710       -4.70910
C          8.77240        4.21470       -5.52450
C          9.22310        5.37370       -6.41790
C          7.70300        5.20260       -3.45400
C          6.62350        5.63650       -2.71160
F          8.93750        5.36100       -2.93180
F          6.08380        3.91240       -6.38310
C          3.05390        5.25260       -2.22420
S          2.84470        3.57560       -2.65150
C          5.18960        8.30920       -2.11630
C          4.89860        9.49040       -1.49910
S          3.32160        9.47010       -0.74130
C          5.76860       10.62130       -1.41400
C          7.09970       10.61980       -1.71090
C          7.72440       11.87850       -1.53350
C          9.07060       12.20770       -1.75710
C         10.00690       11.20110       -2.27530
C         11.21740       10.95550       -1.63590
C         12.05190        9.96490       -2.11550
F         13.21130        9.74160       -1.46570
C         11.74680        9.17530       -3.21880
C         12.67020        8.10940       -3.72820
C         13.59840        8.67160       -4.80740
C         10.53930        9.46850       -3.84240
F         10.17930        8.74610       -4.92500
C          9.67710       10.45130       -3.40160
C          9.44940       13.50790       -1.45810
C          8.54050       14.48690       -0.98520
C          7.19210       14.16050       -0.78010
C          6.21820       15.15890       -0.31570
C          6.08170       16.37340       -0.98070
C          5.15320       17.29240       -0.53400
C          4.32880       17.07220        0.56360
C          3.35580       18.10060        1.05860
C          4.00210       18.97520        2.13570
C          4.49820       15.84740        1.20020
C          5.40950       14.89710        0.78550
F          3.73460       15.57230        2.27590
F          5.04080       18.45900       -1.20260
C          6.81790       12.85130       -1.04510
S          5.21230       12.18960       -0.87210
C          9.19160       15.73570       -0.75430
C         10.50410       15.70840       -1.06060
S         11.05110       14.17330       -1.64140
H         -7.51040      -19.60430        2.38410
H         -5.33060      -20.26990        0.84830
H         -3.29760      -21.37840        0.38460
H         -4.25210      -21.07490       -1.09420
H         -2.48360      -21.26750       -1.19650
H         -1.15260      -15.64210       -0.92160
H         -1.84720      -15.31330        0.68580
H         -2.82140      -15.03320       -0.78310
H         -4.12760      -15.44650        1.08970
H         -8.15440      -15.67890        4.76570
H        -10.15730      -16.00790        5.89950
H        -10.33560      -15.63120        7.63300
H         -8.73810      -16.07480        6.98070
H         -8.04450       -9.89920        6.47830
H         -9.47090       -9.82600        5.40670
H         -9.67960       -9.87180        7.17350
H         -7.59630      -10.76820        4.36560
H         -7.37010       -9.63440        2.69480
H         -7.93380       -5.60550        0.94950
H        -10.59390       -6.03500        5.70360
H        -11.20490       -5.12370        4.30830
H        -10.70500       -3.60440        6.20690
H         -9.02950       -4.16350        6.23250
H         -9.63880       -3.25890        4.84180
H         -6.52180       -7.91760        4.27930
H         -3.58380      -10.32220       -1.66100
H          0.85120      -11.11960       -3.07240
H          1.83740       -9.91060       -2.22700
H          1.05370       -8.16400       -3.84860
H          1.86310       -9.50070       -4.67170
H          0.10150       -9.38730       -4.69210
H         -1.16080       -7.47890        0.45580
H         -2.43150       -6.05380       -0.95680
H         -1.24930       -4.10470       -1.05860
H          2.31560       -1.49060       -0.78770
H          4.53730       -5.34740       -2.25320
H          3.31770       -6.28310       -3.13690
H          4.91790       -3.94030       -4.28250
H          5.20570       -5.64900       -4.62500
H          3.70850       -4.88190       -5.16230
H         -0.52100       -3.53660       -3.28040
H         -2.22600        2.35360        1.07860
H         -7.30430        4.11300        0.15700
H         -6.17690        4.90150        1.27750
H         -8.14950        3.99620        2.48830
H         -7.79850        2.37670        1.87740
H         -6.67800        3.16150        2.99630
H         -4.98790        0.38690       -1.55680
H         -1.36930        3.01180       -1.07240
H          0.06690        4.89500       -0.72130
H          1.90280        8.33430        1.40020
H         -3.54230        8.49940        1.64290
H         -2.47820        9.07060        2.94260
H         -2.07530       11.18460        1.68020
H         -3.79750       10.94650        1.99140
H         -3.13770       10.61760        0.38650
H         -0.66730        6.99350       -1.76890
H          4.18860        4.77900       -4.90140
H          9.58800        3.93090       -4.85750
H          8.51250        3.35710       -6.14710
H          8.42850        5.65210       -7.10630
H          9.48160        6.24360       -5.81880
H         10.09460        5.07940       -6.99660
H          6.78950        6.05950       -1.73350
H          6.09050        8.14740       -2.67740
H          7.63170        9.73810       -2.01500
H         11.50640       11.50870       -0.75690
H         13.26690        7.72320       -2.90070
H         12.08010        7.29180       -4.14590
H         14.26410        7.89200       -5.16810
H         13.02000        9.05010       -5.64710
H         14.20020        9.48350       -4.40500
H          8.76400       10.63810       -3.94460
H          6.67510       16.59900       -1.85260
H          2.48260       17.59800        1.47770
H          3.03520       18.72730        0.22520
H          3.29080       19.71700        2.48910
H          4.87150       19.49170        1.73460
H          4.31690       18.36640        2.98020
H          5.49390       13.97210        1.33290
H          8.68840       16.60100       -0.36330
H         11.21610       16.50630       -0.97860
