
  xtb     03012218263D
 energy: -412.753582925110 gnorm: 0.000761409257 xtb: 6.4.1 (unknown)
212235  0     0  0            999 V2000
   11.7591   -6.4159  -12.9579 C   0  0  0  0  0  0  0  0  0  0  0  0
   11.7951   -5.0760  -13.1055 C   0  0  0  0  0  0  0  0  0  0  0  0
   11.1245   -4.3849  -12.0547 C   0  0  0  0  0  0  0  0  0  0  0  0
   10.9875   -2.9985  -11.8692 C   0  0  0  0  0  0  0  0  0  0  0  0
   11.4554   -2.0420  -12.8587 C   0  0  0  0  0  0  0  0  0  0  0  0
   12.4722   -0.7030  -12.4169 S   0  0  0  0  0  0  0  0  0  0  0  0
   12.5045   -0.0913  -14.0362 C   0  0  0  0  0  0  0  0  0  0  0  0
   13.2184    1.1734  -14.3636 C   0  0  0  0  0  0  0  0  0  0  0  0
   12.3931    2.3903  -13.9381 C   0  0  0  0  0  0  0  0  0  0  0  0
   11.7590   -0.8839  -14.8563 C   0  0  0  0  0  0  0  0  0  0  0  0
   11.5405   -0.5924  -16.5336 Cl  0  0  0  0  0  0  0  0  0  0  0  0
   11.1661   -1.9928  -14.1938 C   0  0  0  0  0  0  0  0  0  0  0  0
   10.1226   -3.0956  -14.9956 Cl  0  0  0  0  0  0  0  0  0  0  0  0
   10.3560   -2.5789  -10.7076 C   0  0  0  0  0  0  0  0  0  0  0  0
    9.8217   -3.4759   -9.7532 C   0  0  0  0  0  0  0  0  0  0  0  0
    9.9590   -4.8628   -9.9366 C   0  0  0  0  0  0  0  0  0  0  0  0
    9.4596   -5.7835   -8.9296 C   0  0  0  0  0  0  0  0  0  0  0  0
    8.3437   -7.0597   -9.3132 S   0  0  0  0  0  0  0  0  0  0  0  0
    8.2347   -7.5651   -7.6624 C   0  0  0  0  0  0  0  0  0  0  0  0
    7.3208   -8.6614   -7.2375 C   0  0  0  0  0  0  0  0  0  0  0  0
    5.9836   -8.0960   -6.7516 C   0  0  0  0  0  0  0  0  0  0  0  0
    9.0244   -6.7833   -6.8726 C   0  0  0  0  0  0  0  0  0  0  0  0
    9.7235   -5.7758   -7.5870 C   0  0  0  0  0  0  0  0  0  0  0  0
   10.8395   -4.7124   -6.8304 Cl  0  0  0  0  0  0  0  0  0  0  0  0
    9.1716   -6.9840   -5.1745 Cl  0  0  0  0  0  0  0  0  0  0  0  0
   10.5990   -5.2828  -11.0950 C   0  0  0  0  0  0  0  0  0  0  0  0
   10.9222   -6.9360  -11.5353 S   0  0  0  0  0  0  0  0  0  0  0  0
    9.1542   -2.7997   -8.7091 C   0  0  0  0  0  0  0  0  0  0  0  0
    9.1933   -1.4350   -8.8081 C   0  0  0  0  0  0  0  0  0  0  0  0
   10.0542   -0.9249  -10.2510 S   0  0  0  0  0  0  0  0  0  0  0  0
    8.6122   -0.5365   -7.8764 C   0  0  0  0  0  0  0  0  0  0  0  0
    7.6736   -1.2172   -6.5865 S   0  0  0  0  0  0  0  0  0  0  0  0
    7.3062    0.3343   -5.9136 C   0  0  0  0  0  0  0  0  0  0  0  0
    7.9249    1.3515   -6.6454 C   0  0  0  0  0  0  0  0  0  0  0  0
    8.6550    0.8562   -7.7701 C   0  0  0  0  0  0  0  0  0  0  0  0
    9.3296    1.7631   -8.6145 C   0  0  0  0  0  0  0  0  0  0  0  0
    9.2996    3.1036   -8.3491 C   0  0  0  0  0  0  0  0  0  0  0  0
    9.9051    4.0595   -9.0915 O   0  0  0  0  0  0  0  0  0  0  0  0
   10.6301    3.6596  -10.2292 C   0  0  0  0  0  0  0  0  0  0  0  0
    8.5999    3.5995   -7.1907 C   0  0  0  0  0  0  0  0  0  0  0  0
    8.6765    4.9388   -7.0189 O   0  0  0  0  0  0  0  0  0  0  0  0
    8.0135    5.5098   -5.9159 C   0  0  0  0  0  0  0  0  0  0  0  0
    7.9351    2.7348   -6.3663 C   0  0  0  0  0  0  0  0  0  0  0  0
    6.4576    0.3878   -4.7766 C   0  0  0  0  0  0  0  0  0  0  0  0
    5.7241    1.4248   -4.2707 C   0  0  0  0  0  0  0  0  0  0  0  0
    4.9700    1.0835   -3.1238 C   0  0  0  0  0  0  0  0  0  0  0  0
    4.1460    1.9227   -2.3498 C   0  0  0  0  0  0  0  0  0  0  0  0
    4.0974    3.3507   -2.6039 C   0  0  0  0  0  0  0  0  0  0  0  0
    2.5886    4.2025   -2.7559 S   0  0  0  0  0  0  0  0  0  0  0  0
    3.3782    5.7127   -3.0522 C   0  0  0  0  0  0  0  0  0  0  0  0
    2.6019    6.9502   -3.3388 C   0  0  0  0  0  0  0  0  0  0  0  0
    2.3544    7.1054   -4.8414 C   0  0  0  0  0  0  0  0  0  0  0  0
    4.7317    5.5513   -3.0359 C   0  0  0  0  0  0  0  0  0  0  0  0
    5.8522    6.8285   -3.2943 Cl  0  0  0  0  0  0  0  0  0  0  0  0
    5.1432    4.2182   -2.7753 C   0  0  0  0  0  0  0  0  0  0  0  0
    6.7987    3.7919   -2.6015 Cl  0  0  0  0  0  0  0  0  0  0  0  0
    3.3957    1.3161   -1.3501 C   0  0  0  0  0  0  0  0  0  0  0  0
    3.4758   -0.0690   -1.0626 C   0  0  0  0  0  0  0  0  0  0  0  0
    4.3769   -0.8883   -1.7687 C   0  0  0  0  0  0  0  0  0  0  0  0
    4.5384   -2.2948   -1.4468 C   0  0  0  0  0  0  0  0  0  0  0  0
    4.5129   -3.5064   -2.6951 S   0  0  0  0  0  0  0  0  0  0  0  0
    4.7601   -4.7930   -1.5649 C   0  0  0  0  0  0  0  0  0  0  0  0
    4.9050   -6.1991   -2.0318 C   0  0  0  0  0  0  0  0  0  0  0  0
    6.2820   -6.4231   -2.6614 C   0  0  0  0  0  0  0  0  0  0  0  0
    4.8599   -4.2973   -0.2994 C   0  0  0  0  0  0  0  0  0  0  0  0
    4.7335   -2.8838   -0.2270 C   0  0  0  0  0  0  0  0  0  0  0  0
    4.9156   -2.0260    1.2501 Cl  0  0  0  0  0  0  0  0  0  0  0  0
    5.1062   -5.2671    1.0953 Cl  0  0  0  0  0  0  0  0  0  0  0  0
    5.0882   -0.2898   -2.7980 C   0  0  0  0  0  0  0  0  0  0  0  0
    6.2160   -1.0885   -3.8520 S   0  0  0  0  0  0  0  0  0  0  0  0
    2.5580   -0.4538   -0.0590 C   0  0  0  0  0  0  0  0  0  0  0  0
    1.8368    0.5876    0.4503 C   0  0  0  0  0  0  0  0  0  0  0  0
    2.2514    2.1108   -0.3062 S   0  0  0  0  0  0  0  0  0  0  0  0
    0.8267    0.5058    1.4536 C   0  0  0  0  0  0  0  0  0  0  0  0
    0.5054   -0.5974    2.1921 C   0  0  0  0  0  0  0  0  0  0  0  0
   -0.5982   -0.3990    3.0518 C   0  0  0  0  0  0  0  0  0  0  0  0
   -1.2353   -1.3495    3.8713 C   0  0  0  0  0  0  0  0  0  0  0  0
   -0.8035   -2.7371    3.8760 C   0  0  0  0  0  0  0  0  0  0  0  0
   -0.4251   -3.5662    5.3572 S   0  0  0  0  0  0  0  0  0  0  0  0
    0.0035   -5.0220    4.5257 C   0  0  0  0  0  0  0  0  0  0  0  0
    0.5257   -6.2091    5.2570 C   0  0  0  0  0  0  0  0  0  0  0  0
    2.0517   -6.1532    5.3657 C   0  0  0  0  0  0  0  0  0  0  0  0
   -0.1448   -4.8602    3.1806 C   0  0  0  0  0  0  0  0  0  0  0  0
    0.1898   -6.0865    2.0275 Cl  0  0  0  0  0  0  0  0  0  0  0  0
   -0.6093   -3.5705    2.8087 C   0  0  0  0  0  0  0  0  0  0  0  0
   -0.9653   -3.1586    1.1791 Cl  0  0  0  0  0  0  0  0  0  0  0  0
   -2.2976   -0.9014    4.6393 C   0  0  0  0  0  0  0  0  0  0  0  0
   -2.7603    0.4368    4.6121 C   0  0  0  0  0  0  0  0  0  0  0  0
   -2.1364    1.3835    3.7774 C   0  0  0  0  0  0  0  0  0  0  0  0
   -2.6086    2.7565    3.7219 C   0  0  0  0  0  0  0  0  0  0  0  0
   -4.2849    3.1213    3.4274 S   0  0  0  0  0  0  0  0  0  0  0  0
   -4.0146    4.8266    3.5201 C   0  0  0  0  0  0  0  0  0  0  0  0
   -5.1419    5.7937    3.4195 C   0  0  0  0  0  0  0  0  0  0  0  0
   -5.7884    6.0152    4.7896 C   0  0  0  0  0  0  0  0  0  0  0  0
   -2.6994    5.0832    3.7682 C   0  0  0  0  0  0  0  0  0  0  0  0
   -1.8980    3.9149    3.8763 C   0  0  0  0  0  0  0  0  0  0  0  0
   -0.2290    3.9827    4.2589 Cl  0  0  0  0  0  0  0  0  0  0  0  0
   -2.0513    6.6625    3.9402 Cl  0  0  0  0  0  0  0  0  0  0  0  0
   -1.0728    0.9362    3.0052 C   0  0  0  0  0  0  0  0  0  0  0  0
   -0.1915    1.8753    1.8354 S   0  0  0  0  0  0  0  0  0  0  0  0
   -3.8588    0.6292    5.4758 C   0  0  0  0  0  0  0  0  0  0  0  0
   -4.2736   -0.5046    6.1238 C   0  0  0  0  0  0  0  0  0  0  0  0
   -3.2687   -1.8815    5.7020 S   0  0  0  0  0  0  0  0  0  0  0  0
   -5.3893   -0.5795    6.9964 C   0  0  0  0  0  0  0  0  0  0  0  0
   -6.3100    0.8687    7.2531 S   0  0  0  0  0  0  0  0  0  0  0  0
   -7.4669    0.0662    8.2600 C   0  0  0  0  0  0  0  0  0  0  0  0
   -7.1320   -1.2806    8.4205 C   0  0  0  0  0  0  0  0  0  0  0  0
   -5.9542   -1.6481    7.6984 C   0  0  0  0  0  0  0  0  0  0  0  0
   -5.4919   -2.9797    7.7545 C   0  0  0  0  0  0  0  0  0  0  0  0
   -6.1629   -3.9121    8.4955 C   0  0  0  0  0  0  0  0  0  0  0  0
   -5.8138   -5.2136    8.6144 O   0  0  0  0  0  0  0  0  0  0  0  0
   -4.6709   -5.6629    7.9267 C   0  0  0  0  0  0  0  0  0  0  0  0
   -7.3339   -3.5360    9.2459 C   0  0  0  0  0  0  0  0  0  0  0  0
   -7.8944   -4.5450    9.9540 O   0  0  0  0  0  0  0  0  0  0  0  0
   -9.0555   -4.2736   10.7002 C   0  0  0  0  0  0  0  0  0  0  0  0
   -7.7910   -2.2487    9.2091 C   0  0  0  0  0  0  0  0  0  0  0  0
   -8.5722    0.8176    8.7461 C   0  0  0  0  0  0  0  0  0  0  0  0
   -9.7931    0.3978    9.1936 C   0  0  0  0  0  0  0  0  0  0  0  0
  -10.6696    1.4545    9.5413 C   0  0  0  0  0  0  0  0  0  0  0  0
  -11.9728    1.3651   10.0602 C   0  0  0  0  0  0  0  0  0  0  0  0
  -12.6005    0.0809   10.3247 C   0  0  0  0  0  0  0  0  0  0  0  0
  -12.7261   -1.1453    9.0957 S   0  0  0  0  0  0  0  0  0  0  0  0
  -13.5487   -2.2392   10.1553 C   0  0  0  0  0  0  0  0  0  0  0  0
  -14.0251   -3.5670    9.6789 C   0  0  0  0  0  0  0  0  0  0  0  0
  -15.4328   -3.4624    9.0869 C   0  0  0  0  0  0  0  0  0  0  0  0
  -13.7157   -1.6707   11.3823 C   0  0  0  0  0  0  0  0  0  0  0  0
  -14.4847   -2.4545   12.7007 Cl  0  0  0  0  0  0  0  0  0  0  0  0
  -13.1775   -0.3592   11.4837 C   0  0  0  0  0  0  0  0  0  0  0  0
  -13.1862    0.5245   12.9518 Cl  0  0  0  0  0  0  0  0  0  0  0  0
  -12.6384    2.5623   10.3026 C   0  0  0  0  0  0  0  0  0  0  0  0
  -12.0504    3.8302   10.0818 C   0  0  0  0  0  0  0  0  0  0  0  0
  -10.7247    3.9183    9.6267 C   0  0  0  0  0  0  0  0  0  0  0  0
  -10.0571    5.1992    9.4684 C   0  0  0  0  0  0  0  0  0  0  0  0
   -9.2275    5.6211    8.0001 S   0  0  0  0  0  0  0  0  0  0  0  0
   -8.7399    7.1578    8.6254 C   0  0  0  0  0  0  0  0  0  0  0  0
   -7.8781    8.0770    7.8324 C   0  0  0  0  0  0  0  0  0  0  0  0
   -6.3987    7.8094    8.1193 C   0  0  0  0  0  0  0  0  0  0  0  0
   -9.1896    7.3160    9.9026 C   0  0  0  0  0  0  0  0  0  0  0  0
   -9.9403    6.2099   10.3826 C   0  0  0  0  0  0  0  0  0  0  0  0
  -10.5524    6.1363   11.9849 Cl  0  0  0  0  0  0  0  0  0  0  0  0
   -8.8915    8.7125   10.8536 Cl  0  0  0  0  0  0  0  0  0  0  0  0
  -10.0764    2.7245    9.3428 C   0  0  0  0  0  0  0  0  0  0  0  0
   -8.4515    2.5722    8.7438 S   0  0  0  0  0  0  0  0  0  0  0  0
  -12.9751    4.8875   10.3229 C   0  0  0  0  0  0  0  0  0  0  0  0
  -14.1867    4.4438   10.7146 C   0  0  0  0  0  0  0  0  0  0  0  0
  -14.2926    2.7213   10.8199 S   0  0  0  0  0  0  0  0  0  0  0  0
   12.1826   -7.1610  -13.6025 H   0  0  0  0  0  0  0  0  0  0  0  0
   12.2902   -4.5799  -13.9196 H   0  0  0  0  0  0  0  0  0  0  0  0
   13.3960    1.2064  -15.4397 H   0  0  0  0  0  0  0  0  0  0  0  0
   14.1807    1.1917  -13.8488 H   0  0  0  0  0  0  0  0  0  0  0  0
   12.2126    2.3671  -12.8658 H   0  0  0  0  0  0  0  0  0  0  0  0
   12.9236    3.3060  -14.1841 H   0  0  0  0  0  0  0  0  0  0  0  0
   11.4351    2.3937  -14.4518 H   0  0  0  0  0  0  0  0  0  0  0  0
    7.7939   -9.2197   -6.4268 H   0  0  0  0  0  0  0  0  0  0  0  0
    7.1512   -9.3372   -8.0766 H   0  0  0  0  0  0  0  0  0  0  0  0
    5.3299   -8.9038   -6.4341 H   0  0  0  0  0  0  0  0  0  0  0  0
    6.1426   -7.4241   -5.9122 H   0  0  0  0  0  0  0  0  0  0  0  0
    5.4944   -7.5439   -7.5503 H   0  0  0  0  0  0  0  0  0  0  0  0
    8.6463   -3.3012   -7.9057 H   0  0  0  0  0  0  0  0  0  0  0  0
    9.8706    1.3794   -9.4616 H   0  0  0  0  0  0  0  0  0  0  0  0
    9.9867    3.1565  -10.9585 H   0  0  0  0  0  0  0  0  0  0  0  0
   11.0228    4.5771  -10.6641 H   0  0  0  0  0  0  0  0  0  0  0  0
   11.4601    2.9969   -9.9631 H   0  0  0  0  0  0  0  0  0  0  0  0
    6.9344    5.3309   -5.9607 H   0  0  0  0  0  0  0  0  0  0  0  0
    8.4033    5.1278   -4.9676 H   0  0  0  0  0  0  0  0  0  0  0  0
    8.2039    6.5796   -5.9788 H   0  0  0  0  0  0  0  0  0  0  0  0
    7.4446    3.0900   -5.4784 H   0  0  0  0  0  0  0  0  0  0  0  0
    5.6577    2.3873   -4.7393 H   0  0  0  0  0  0  0  0  0  0  0  0
    1.6465    6.9056   -2.8143 H   0  0  0  0  0  0  0  0  0  0  0  0
    3.1640    7.8113   -2.9720 H   0  0  0  0  0  0  0  0  0  0  0  0
    1.7840    8.0099   -5.0333 H   0  0  0  0  0  0  0  0  0  0  0  0
    3.2997    7.1700   -5.3747 H   0  0  0  0  0  0  0  0  0  0  0  0
    1.7967    6.2529   -5.2220 H   0  0  0  0  0  0  0  0  0  0  0  0
    4.1310   -6.4185   -2.7702 H   0  0  0  0  0  0  0  0  0  0  0  0
    4.7742   -6.8673   -1.1791 H   0  0  0  0  0  0  0  0  0  0  0  0
    7.0668   -6.2285   -1.9346 H   0  0  0  0  0  0  0  0  0  0  0  0
    6.3747   -7.4500   -3.0050 H   0  0  0  0  0  0  0  0  0  0  0  0
    6.4228   -5.7547   -3.5078 H   0  0  0  0  0  0  0  0  0  0  0  0
    2.4122   -1.4720    0.2471 H   0  0  0  0  0  0  0  0  0  0  0  0
    1.0513   -1.5195    2.1337 H   0  0  0  0  0  0  0  0  0  0  0  0
    0.0889   -6.2396    6.2563 H   0  0  0  0  0  0  0  0  0  0  0  0
    0.2327   -7.1120    4.7173 H   0  0  0  0  0  0  0  0  0  0  0  0
    2.4996   -6.1316    4.3755 H   0  0  0  0  0  0  0  0  0  0  0  0
    2.3592   -5.2609    5.9057 H   0  0  0  0  0  0  0  0  0  0  0  0
    2.4206   -7.0270    5.8957 H   0  0  0  0  0  0  0  0  0  0  0  0
   -5.8883    5.4115    2.7216 H   0  0  0  0  0  0  0  0  0  0  0  0
   -4.7577    6.7422    3.0396 H   0  0  0  0  0  0  0  0  0  0  0  0
   -6.1844    5.0802    5.1790 H   0  0  0  0  0  0  0  0  0  0  0  0
   -5.0533    6.4025    5.4901 H   0  0  0  0  0  0  0  0  0  0  0  0
   -6.6026    6.7296    4.7062 H   0  0  0  0  0  0  0  0  0  0  0  0
   -4.3452    1.5766    5.6196 H   0  0  0  0  0  0  0  0  0  0  0  0
   -4.6034   -3.2448    7.2092 H   0  0  0  0  0  0  0  0  0  0  0  0
   -3.7693   -5.1399    8.2614 H   0  0  0  0  0  0  0  0  0  0  0  0
   -4.5849   -6.7220    8.1627 H   0  0  0  0  0  0  0  0  0  0  0  0
   -4.7784   -5.5374    6.8446 H   0  0  0  0  0  0  0  0  0  0  0  0
   -9.8724   -3.9244   10.0593 H   0  0  0  0  0  0  0  0  0  0  0  0
   -8.8675   -3.5317   11.4830 H   0  0  0  0  0  0  0  0  0  0  0  0
   -9.3368   -5.2190   11.1605 H   0  0  0  0  0  0  0  0  0  0  0  0
   -8.6394   -1.9494    9.7973 H   0  0  0  0  0  0  0  0  0  0  0  0
  -10.0908   -0.6319    9.2259 H   0  0  0  0  0  0  0  0  0  0  0  0
  -13.3394   -3.9476    8.9199 H   0  0  0  0  0  0  0  0  0  0  0  0
  -14.0356   -4.2594   10.5229 H   0  0  0  0  0  0  0  0  0  0  0  0
  -15.7686   -4.4388    8.7487 H   0  0  0  0  0  0  0  0  0  0  0  0
  -15.4369   -2.7787    8.2414 H   0  0  0  0  0  0  0  0  0  0  0  0
  -16.1292   -3.0938    9.8356 H   0  0  0  0  0  0  0  0  0  0  0  0
   -8.1208    9.1078    8.0977 H   0  0  0  0  0  0  0  0  0  0  0  0
   -8.0770    7.9307    6.7699 H   0  0  0  0  0  0  0  0  0  0  0  0
   -5.7768    8.4681    7.5193 H   0  0  0  0  0  0  0  0  0  0  0  0
   -6.1509    6.7778    7.8818 H   0  0  0  0  0  0  0  0  0  0  0  0
   -6.1819    7.9865    9.1694 H   0  0  0  0  0  0  0  0  0  0  0  0
  -12.7369    5.9258   10.1853 H   0  0  0  0  0  0  0  0  0  0  0  0
  -15.0550    5.0250   10.9564 H   0  0  0  0  0  0  0  0  0  0  0  0
  1  2  2  0  0  0  0
  2  3  1  0  0  0  0
  3  4  2  0  0  0  0
  4  5  1  0  0  0  0
  5  6  1  0  0  0  0
  6  7  1  0  0  0  0
  7  8  1  0  0  0  0
  8  9  1  0  0  0  0
  7 10  2  0  0  0  0
 10 11  1  0  0  0  0
 10 12  1  0  0  0  0
 12 13  1  0  0  0  0
  4 14  1  0  0  0  0
 14 15  2  0  0  0  0
 15 16  1  0  0  0  0
 16 17  1  0  0  0  0
 17 18  1  0  0  0  0
 18 19  1  0  0  0  0
 19 20  1  0  0  0  0
 20 21  1  0  0  0  0
 19 22  2  0  0  0  0
 22 23  1  0  0  0  0
 23 24  1  0  0  0  0
 22 25  1  0  0  0  0
 16 26  2  0  0  0  0
 26 27  1  0  0  0  0
 15 28  1  0  0  0  0
 28 29  2  0  0  0  0
 29 30  1  0  0  0  0
 29 31  1  0  0  0  0
 31 32  1  0  0  0  0
 32 33  1  0  0  0  0
 33 34  2  0  0  0  0
 34 35  1  0  0  0  0
 35 36  1  0  0  0  0
 36 37  2  0  0  0  0
 37 38  1  0  0  0  0
 38 39  1  0  0  0  0
 37 40  1  0  0  0  0
 40 41  1  0  0  0  0
 41 42  1  0  0  0  0
 40 43  2  0  0  0  0
 33 44  1  0  0  0  0
 44 45  2  0  0  0  0
 45 46  1  0  0  0  0
 46 47  2  0  0  0  0
 47 48  1  0  0  0  0
 48 49  1  0  0  0  0
 49 50  1  0  0  0  0
 50 51  1  0  0  0  0
 51 52  1  0  0  0  0
 50 53  2  0  0  0  0
 53 54  1  0  0  0  0
 53 55  1  0  0  0  0
 55 56  1  0  0  0  0
 47 57  1  0  0  0  0
 57 58  2  0  0  0  0
 58 59  1  0  0  0  0
 59 60  1  0  0  0  0
 60 61  1  0  0  0  0
 61 62  1  0  0  0  0
 62 63  1  0  0  0  0
 63 64  1  0  0  0  0
 62 65  2  0  0  0  0
 65 66  1  0  0  0  0
 66 67  1  0  0  0  0
 65 68  1  0  0  0  0
 59 69  2  0  0  0  0
 69 70  1  0  0  0  0
 58 71  1  0  0  0  0
 71 72  2  0  0  0  0
 72 73  1  0  0  0  0
 72 74  1  0  0  0  0
 74 75  2  0  0  0  0
 75 76  1  0  0  0  0
 76 77  2  0  0  0  0
 77 78  1  0  0  0  0
 78 79  1  0  0  0  0
 79 80  1  0  0  0  0
 80 81  1  0  0  0  0
 81 82  1  0  0  0  0
 80 83  2  0  0  0  0
 83 84  1  0  0  0  0
 83 85  1  0  0  0  0
 85 86  1  0  0  0  0
 77 87  1  0  0  0  0
 87 88  2  0  0  0  0
 88 89  1  0  0  0  0
 89 90  1  0  0  0  0
 90 91  1  0  0  0  0
 91 92  1  0  0  0  0
 92 93  1  0  0  0  0
 93 94  1  0  0  0  0
 92 95  2  0  0  0  0
 95 96  1  0  0  0  0
 96 97  1  0  0  0  0
 95 98  1  0  0  0  0
 89 99  2  0  0  0  0
 99100  1  0  0  0  0
 88101  1  0  0  0  0
101102  2  0  0  0  0
102103  1  0  0  0  0
102104  1  0  0  0  0
104105  1  0  0  0  0
105106  1  0  0  0  0
106107  2  0  0  0  0
107108  1  0  0  0  0
108109  1  0  0  0  0
109110  2  0  0  0  0
110111  1  0  0  0  0
111112  1  0  0  0  0
110113  1  0  0  0  0
113114  1  0  0  0  0
114115  1  0  0  0  0
113116  2  0  0  0  0
106117  1  0  0  0  0
117118  2  0  0  0  0
118119  1  0  0  0  0
119120  2  0  0  0  0
120121  1  0  0  0  0
121122  1  0  0  0  0
122123  1  0  0  0  0
123124  1  0  0  0  0
124125  1  0  0  0  0
123126  2  0  0  0  0
126127  1  0  0  0  0
126128  1  0  0  0  0
128129  1  0  0  0  0
120130  1  0  0  0  0
130131  2  0  0  0  0
131132  1  0  0  0  0
132133  1  0  0  0  0
133134  1  0  0  0  0
134135  1  0  0  0  0
135136  1  0  0  0  0
136137  1  0  0  0  0
135138  2  0  0  0  0
138139  1  0  0  0  0
139140  1  0  0  0  0
138141  1  0  0  0  0
132142  2  0  0  0  0
142143  1  0  0  0  0
131144  1  0  0  0  0
144145  2  0  0  0  0
145146  1  0  0  0  0
 27  1  1  0  0  0  0
 35 31  2  0  0  0  0
 70 44  1  0  0  0  0
100 74  1  0  0  0  0
108104  2  0  0  0  0
143117  1  0  0  0  0
 26  3  1  0  0  0  0
 43 34  1  0  0  0  0
 69 46  1  0  0  0  0
 99 76  1  0  0  0  0
116107  1  0  0  0  0
142119  1  0  0  0  0
 12  5  2  0  0  0  0
 30 14  1  0  0  0  0
 55 48  2  0  0  0  0
 73 57  1  0  0  0  0
 85 78  2  0  0  0  0
103 87  1  0  0  0  0
128121  2  0  0  0  0
146130  1  0  0  0  0
 23 17  2  0  0  0  0
 66 60  2  0  0  0  0
 96 90  2  0  0  0  0
139133  2  0  0  0  0
  1147  1  0  0  0  0
  2148  1  0  0  0  0
  8149  1  0  0  0  0
  8150  1  0  0  0  0
  9151  1  0  0  0  0
  9152  1  0  0  0  0
  9153  1  0  0  0  0
 20154  1  0  0  0  0
 20155  1  0  0  0  0
 21156  1  0  0  0  0
 21157  1  0  0  0  0
 21158  1  0  0  0  0
 28159  1  0  0  0  0
 36160  1  0  0  0  0
 39161  1  0  0  0  0
 39162  1  0  0  0  0
 39163  1  0  0  0  0
 42164  1  0  0  0  0
 42165  1  0  0  0  0
 42166  1  0  0  0  0
 43167  1  0  0  0  0
 45168  1  0  0  0  0
 51169  1  0  0  0  0
 51170  1  0  0  0  0
 52171  1  0  0  0  0
 52172  1  0  0  0  0
 52173  1  0  0  0  0
 63174  1  0  0  0  0
 63175  1  0  0  0  0
 64176  1  0  0  0  0
 64177  1  0  0  0  0
 64178  1  0  0  0  0
 71179  1  0  0  0  0
 75180  1  0  0  0  0
 81181  1  0  0  0  0
 81182  1  0  0  0  0
 82183  1  0  0  0  0
 82184  1  0  0  0  0
 82185  1  0  0  0  0
 93186  1  0  0  0  0
 93187  1  0  0  0  0
 94188  1  0  0  0  0
 94189  1  0  0  0  0
 94190  1  0  0  0  0
101191  1  0  0  0  0
109192  1  0  0  0  0
112193  1  0  0  0  0
112194  1  0  0  0  0
112195  1  0  0  0  0
115196  1  0  0  0  0
115197  1  0  0  0  0
115198  1  0  0  0  0
116199  1  0  0  0  0
118200  1  0  0  0  0
124201  1  0  0  0  0
124202  1  0  0  0  0
125203  1  0  0  0  0
125204  1  0  0  0  0
125205  1  0  0  0  0
136206  1  0  0  0  0
136207  1  0  0  0  0
137208  1  0  0  0  0
137209  1  0  0  0  0
137210  1  0  0  0  0
144211  1  0  0  0  0
145212  1  0  0  0  0
M  END
