215

C          1.68550       -4.74430       11.71130
S          0.34590       -5.04870       10.70000
C          0.72290       -3.70030        9.66440
C          1.86890       -3.04700       10.11770
C          2.41510       -3.65610       11.29460
C          3.58590       -3.12620       11.89340
C          4.19390       -2.03770       11.34410
O          5.31510       -1.43430       11.81260
C          5.91650       -1.95880       12.96930
C          3.64890       -1.42500       10.15510
O          4.35370       -0.35580        9.71100
C          3.90200        0.30840        8.55670
C          2.52040       -1.92100        9.56760
C         -0.12120       -3.44700        8.54920
C         -1.17280       -4.21990        8.13640
C         -1.83840       -3.73440        6.98640
C         -2.92160       -4.31030        6.29680
C         -3.57320       -5.53490        6.77580
C         -3.77970       -6.61630        5.92490
C         -4.41180       -7.76270        6.36480
C         -4.87430       -7.86360        7.67150
S         -5.69180       -9.26680        8.35700
C         -6.24890      -10.20960        6.89540
C         -7.33730       -9.48880        6.12320
C         -4.64960       -6.77670        8.51800
F         -5.07610       -6.84210        9.79590
C         -4.01290       -5.63200        8.09480
C         -3.33670       -3.66610        5.14240
C         -2.76420       -2.45460        4.68280
C         -1.69190       -1.86930        5.37880
C         -1.07310       -0.62430        4.90570
C          0.29390       -0.54770        4.66050
C          0.87210        0.60990        4.17360
C          0.10370        1.74190        3.92820
S          0.68600        3.27360        3.27920
C          2.41350        2.95560        2.78910
C          3.38910        3.13070        3.93750
C         -1.26210        1.65930        4.21290
C         -1.85370        0.50740        4.67690
F         -2.03890        2.74390        4.01640
C         -1.24500       -2.54290        6.50030
S          0.08860       -2.04740        7.50780
C         -3.33840       -2.02510        3.46790
C         -4.31270       -2.85650        2.98010
S         -4.60060       -4.20800        4.06170
C         -4.93110       -2.71490        1.71140
S         -4.57580       -1.27140        0.81480
C         -5.29700       -1.88250       -0.63720
C         -5.86570       -3.13400       -0.41060
C         -5.67520       -3.60300        0.92690
C         -6.20730       -4.85380        1.27900
C         -6.88900       -5.62730        0.36990
O         -7.32460       -6.81430        0.86680
C         -8.22600       -7.64200        0.16550
C         -7.07040       -5.15330       -0.97610
O         -7.73350       -5.97060       -1.84410
C         -7.88470       -5.56020       -3.18290
C         -6.57540       -3.92690       -1.33300
C         -5.04780       -1.17690       -1.84680
C         -4.77110       -1.68820       -3.08360
C         -4.23300       -0.73830       -3.98910
C         -3.58050       -1.01520       -5.21110
C         -3.68110       -2.35480       -5.79750
C         -2.57460       -3.05320       -6.27070
C         -2.70160       -4.32240       -6.80150
C         -3.94260       -4.94320       -6.88480
S         -4.23570       -6.56470       -7.51080
C         -2.73140       -6.94640       -8.47160
C         -2.61180       -6.09120       -9.71840
C         -5.04360       -4.23490       -6.40160
F         -6.26750       -4.80900       -6.44250
C         -4.93190       -2.97040       -5.87310
C         -2.81550        0.01030       -5.74700
C         -2.83180        1.32260       -5.20910
C         -3.48600        1.60740       -3.99630
C         -3.26880        2.89050       -3.31640
C         -4.30630        3.61970       -2.74340
C         -4.07320        4.84460       -2.14530
C         -2.79510        5.39520       -2.10880
S         -2.39600        6.97120       -1.44570
C         -3.71090        7.22610       -0.19650
C         -3.19540        8.19110        0.85310
C         -1.76090        4.64230       -2.66640
C         -1.97300        3.40560       -3.22610
F         -0.50270        5.13390       -2.66500
C         -4.15120        0.54990       -3.40470
S         -4.77400        0.55640       -1.77700
C         -1.94150        2.18220       -5.87880
C         -1.07870        1.54070       -6.72930
S         -1.60330       -0.11720       -7.01470
C          0.24130        2.02260       -6.93980
S          0.71960        3.27320       -5.82330
C          2.41030        2.98240       -6.05680
C          2.59770        2.05680       -7.08510
C          1.37060        1.49650       -7.57090
C          1.42440        0.48950       -8.54630
C          2.62360        0.04100       -9.04820
O          2.50220       -0.93730       -9.98260
C          3.60750       -1.46720      -10.67880
C          3.85220        0.60970       -8.56190
O          5.01800        0.12980       -9.09110
C          6.23630        0.66580       -8.63580
C          3.81890        1.58900       -7.60420
C          3.26580        3.50220       -5.04650
C          2.81400        3.90760       -3.81960
C          3.83430        4.22820       -2.89870
C          3.67780        4.55810       -1.54240
C          2.35460        4.50000       -0.90530
C          1.59410        3.33720       -0.99980
C          0.34070        3.24790       -0.42740
C         -0.20910        4.33090        0.24980
S         -1.81460        4.36820        0.95640
C         -2.47120        2.69200        0.64160
C         -3.88700        2.62120        1.17910
C          0.57460        5.48240        0.35860
F          0.08330        6.54290        1.02810
C          1.83290        5.57720       -0.19270
C          4.83950        4.86210       -0.85050
C          6.12860        4.79840       -1.43400
C          6.28410        4.39860       -2.77200
C          7.60550        4.22640       -3.38650
C          7.89660        4.79490       -4.62300
C          9.12280        4.60080       -5.22750
C         10.09770        3.81500       -4.62410
S         11.69210        3.48660       -5.30370
C         11.45070        3.74170       -7.09630
C         10.49260        2.72980       -7.69550
C          9.79950        3.26550       -3.37680
C          8.58450        3.45910       -2.75860
F         10.72420        2.50600       -2.75450
C          5.12140        4.13610       -3.47930
S          5.02030        3.56370       -5.13180
C          7.14230        5.16690       -0.49990
C          6.65270        5.45670        0.72250
S          4.93110        5.31180        0.83370
H          1.86740       -5.37800       12.55600
H          3.96730       -3.60840       12.77850
H          5.23830       -1.91840       13.82820
H          6.24610       -2.99210       12.81740
H          6.78260       -1.32830       13.16300
H          2.89630        0.71840        8.69480
H          3.90240       -0.35550        7.68580
H          4.60610        1.12250        8.39260
H          2.11700       -1.46290        8.68220
H         -1.44450       -5.13210        8.63710
H         -3.42260       -6.57170        4.90760
H         -4.53470       -8.58340        5.67720
H         -5.38310      -10.44220        6.27650
H         -6.62670      -11.13800        7.32400
H         -6.97760       -8.53930        5.73260
H         -7.66820      -10.10440        5.28880
H         -8.18860       -9.29280        6.77090
H         -3.88880       -4.81270        8.78550
H          0.91420       -1.41450        4.83080
H          1.93270        0.61980        3.98190
H          2.60250        3.69690        2.01160
H          2.46300        1.96390        2.34150
H          3.32140        4.14220        4.33030
H          3.17960        2.43460        4.74710
H          4.40520        2.96420        3.58490
H         -2.91410        0.50120        4.87610
H         -3.00610       -1.15150        2.93560
H         -6.09890       -5.23600        2.28040
H         -8.49010       -8.42890        0.87230
H         -7.76640       -8.08700       -0.71920
H         -9.12800       -7.10180       -0.12890
H         -8.48640       -4.64970       -3.25990
H         -8.40400       -6.37680       -3.68110
H         -6.91770       -5.40220       -3.66840
H         -6.72880       -3.53740       -2.32460
H         -4.81520       -2.74050       -3.29620
H         -1.59260       -2.61310       -6.20100
H         -1.81410       -4.83250       -7.13880
H         -2.85790       -7.99740       -8.73160
H         -1.86530       -6.85390       -7.81740
H         -3.48280       -6.23150      -10.35420
H         -2.53880       -5.03580       -9.46410
H         -1.72260       -6.37590      -10.27760
H         -5.82230       -2.45890       -5.54150
H         -5.31460        3.23710       -2.78950
H         -4.90250        5.39180       -1.72640
H         -4.59560        7.61840       -0.69960
H         -3.92070        6.25440        0.24750
H         -3.95370        8.34400        1.61790
H         -2.30120        7.78640        1.32030
H         -2.95020        9.15160        0.40530
H         -1.12250        2.84460       -3.58040
H         -1.85280        3.23060       -5.66050
H          0.51520        0.05140       -8.92560
H          4.29780       -1.98730      -10.01130
H          3.17750       -2.18000      -11.38270
H          4.14950       -0.69580      -11.22960
H          6.30900        1.73680       -8.84900
H          7.01030        0.13380       -9.18710
H          6.37450        0.49940       -7.56300
H          4.72770        2.02760       -7.22770
H          1.77090        3.96030       -3.56720
H          1.99650        2.48140       -1.52210
H         -0.21370        2.32850       -0.52450
H         -2.45870        2.51290       -0.43400
H         -1.82450        1.97940        1.15420
H         -4.28130        1.61670        1.04290
H         -4.52850        3.31890        0.64600
H         -3.90130        2.86900        2.23720
H          2.38280        6.49930       -0.09130
H          7.16050        5.41490       -5.11140
H          9.31750        5.07500       -6.17590
H         11.13070        4.76860       -7.26800
H         12.45310        3.61860       -7.50590
H         10.85290        1.72000       -7.51370
H          9.50080        2.82490       -7.25740
H         10.41480        2.88470       -8.76990
H          8.39620        2.98550       -1.80770
H          8.18590        5.22320       -0.75160
H          7.19690        5.76100        1.59510
