133

C          7.18880       -3.80800        1.90040
S          7.52860       -3.31980        3.51590
C          6.22950       -2.14700        3.54420
C          5.60300       -2.11980        2.30220
C          6.15030       -3.09130        1.40040
S          5.32830       -3.10320       -0.12910
C          4.27880       -1.79640        0.41800
C          3.16250       -1.30260       -0.38370
O          2.45700       -0.39810        0.01720
C          2.89960       -2.02270       -1.68770
C          2.20730       -3.35940       -1.41300
C          4.57490       -1.37170        1.68230
C          6.04640       -1.40910        4.74360
C          4.94680       -0.77570        5.22800
C          3.60300       -0.81630        4.77990
S          2.55460        0.53640        5.21070
C          1.19020       -0.10400        4.34310
C          1.52870       -1.34000        3.78730
C          2.86440       -1.73990        4.06530
S          3.17040       -3.34760        3.48510
C          1.54580       -3.43450        2.81450
C          1.02870       -4.59300        2.09570
O         -0.12160       -4.58910        1.70050
C          1.98290       -5.74040        1.87190
C          1.25830       -7.00300        1.42550
C          0.81480       -2.30490        3.05640
C         -0.06010        0.52130        4.23080
C         -0.50350        1.58990        4.94860
C         -1.78300        2.14220        4.76200
S         -2.80190        1.66570        3.41250
C         -4.10230        2.72900        3.86570
C         -3.75930        3.40260        5.05240
C         -2.45910        3.08320        5.51780
S         -2.04300        3.95890        6.94820
C         -3.61050        4.75990        6.92500
C         -4.00240        5.74830        7.92640
O         -5.06500        6.33030        7.84260
C         -3.03890        5.97340        9.06990
C         -3.21660        4.87040       10.11600
C         -4.38730        4.36310        5.87030
C         -5.28050        2.98240        3.14210
C         -5.64320        2.73910        1.84540
C         -5.03040        2.05530        0.77490
S         -3.99470        0.66410        0.89820
C         -3.73480        0.58600       -0.81480
C         -4.45580        1.59410       -1.47420
C         -5.21500        2.39680       -0.58090
C         -5.99990        3.44890       -1.09260
C         -6.05160        3.67840       -2.44190
O         -6.77450        4.64970       -3.04630
C         -7.54040        5.51580       -2.24580
C         -5.30180        2.84920       -3.34590
O         -5.44480        3.17170       -4.65170
C         -4.72120        2.43270       -5.60660
C         -4.52510        1.83190       -2.86140
C         -2.86180       -0.37950       -1.36550
S         -1.93010       -0.04200       -2.81550
C         -1.16100       -1.60800       -2.81680
C         -1.63740       -2.36480       -1.74630
C         -2.54980       -1.65310       -0.92240
S         -3.13210       -2.63890        0.38140
C         -2.21320       -4.01020       -0.22450
C         -2.29500       -5.35050        0.37480
O         -1.79130       -6.30130       -0.18030
C         -3.06700       -5.43910        1.66780
C         -3.21180       -6.87480        2.14900
C         -1.47130       -3.70270       -1.32620
C         -0.18040       -1.97550       -3.75250
C          0.30330       -1.16600       -4.73230
C          1.35760       -1.51050       -5.60070
S          2.25660       -3.00470       -5.48500
C          3.31640       -2.60550       -6.80840
C          2.98130       -1.35450       -7.32350
C          1.88630       -0.75900       -6.63380
S          1.45590        0.79160       -7.26690
C          2.74560        0.65500       -8.45290
C          2.88590        1.78010       -9.37390
O          2.09040        2.69530       -9.36120
C          4.08200        1.75700      -10.30270
C          5.34990        2.12680       -9.53040
C          3.44760       -0.51230       -8.36280
C          4.32300       -3.55760       -7.15950
C          5.24210       -3.43950       -8.12030
H          7.76540       -4.58180        1.43730
H          2.25210       -1.39580       -2.30310
H          3.84020       -2.19780       -2.21340
H          1.27760       -3.20290       -0.87000
H          1.99020       -3.86230       -2.35180
H          2.84730       -4.01110       -0.82360
H          4.05110       -0.54900        2.13230
H          6.93620       -1.35500        5.35930
H          5.10020       -0.13920        6.09110
H          2.55490       -5.91410        2.78710
H          2.69480       -5.41900        1.10490
H          0.57380       -6.77640        0.61140
H          1.96840       -7.75670        1.09600
H          0.67470       -7.41000        2.24790
H         -0.19890       -2.19700        2.71580
H         -0.73530        0.07040        3.51400
H          0.11690        2.03000        5.71880
H         -2.01130        5.97330        8.70220
H         -3.26190        6.94160        9.52030
H         -2.98600        3.89520        9.69320
H         -4.24200        4.85930       10.47830
H         -2.55230        5.04710       10.95830
H         -5.37310        4.76370        5.71760
H         -5.97570        3.59850        3.70060
H         -6.55100        3.24930        1.54280
H         -6.55850        4.06740       -0.41060
H         -8.01850        6.20790       -2.93660
H         -6.91260        6.07740       -1.54640
H         -8.30980        4.97190       -1.68780
H         -5.01840        1.37910       -5.60780
H         -3.64250        2.50490       -5.43620
H         -4.96640        2.87830       -6.56890
H         -3.96730        1.20000       -3.52990
H         -2.52200       -4.84180        2.40260
H         -4.04640       -4.97450        1.52370
H         -3.75420       -6.91000        3.09080
H         -2.22900       -7.31710        2.28810
H         -3.74660       -7.46790        1.41070
H         -0.85770       -4.43370       -1.82000
H          0.22790       -2.97140       -3.64390
H         -0.11270       -0.17540       -4.86780
H          3.90890        2.49150      -11.09050
H          4.18770        0.77050      -10.75550
H          6.20570        2.13480      -10.20120
H          5.54130        1.41660       -8.72900
H          5.24520        3.11700       -9.09320
H          4.25880       -0.76200       -9.01990
H          4.30700       -4.45670       -6.55590
H          5.95600       -4.22380       -8.29810
H          5.31690       -2.57390       -8.75190
