
  xtb     03032201003D
 energy: -317.525334499267 gnorm: 0.000237991238 xtb: 6.4.1 (unknown)
170187  0     0  0            999 V2000
    3.5836   -2.6101   14.0311 C   0  0  0  0  0  0  0  0  0  0  0  0
    2.9019   -1.4694   13.8034 C   0  0  0  0  0  0  0  0  0  0  0  0
    2.9272   -1.0732   12.4346 C   0  0  0  0  0  0  0  0  0  0  0  0
    2.3401    0.0586   11.8419 C   0  0  0  0  0  0  0  0  0  0  0  0
    1.6653    1.0703   12.6383 C   0  0  0  0  0  0  0  0  0  0  0  0
    0.0515    1.5972   12.2617 S   0  0  0  0  0  0  0  0  0  0  0  0
    0.0307    2.7290   13.5712 C   0  0  0  0  0  0  0  0  0  0  0  0
   -1.1803    3.5432   13.8666 C   0  0  0  0  0  0  0  0  0  0  0  0
   -2.1815    2.7508   14.7104 C   0  0  0  0  0  0  0  0  0  0  0  0
    1.2099    2.6860   14.2525 C   0  0  0  0  0  0  0  0  0  0  0  0
    1.5654    3.6684   15.6143 Cl  0  0  0  0  0  0  0  0  0  0  0  0
    2.1409    1.7516   13.7236 C   0  0  0  0  0  0  0  0  0  0  0  0
    3.7288    1.5749   14.3523 Cl  0  0  0  0  0  0  0  0  0  0  0  0
    2.4427    0.1708   10.4641 C   0  0  0  0  0  0  0  0  0  0  0  0
    3.1394   -0.7646    9.6615 C   0  0  0  0  0  0  0  0  0  0  0  0
    3.7833   -1.8614   10.2615 C   0  0  0  0  0  0  0  0  0  0  0  0
    4.5484   -2.7991    9.4591 C   0  0  0  0  0  0  0  0  0  0  0  0
    4.2608   -4.5125    9.5461 S   0  0  0  0  0  0  0  0  0  0  0  0
    5.4579   -4.8558    8.3452 C   0  0  0  0  0  0  0  0  0  0  0  0
    5.6997   -6.2454    7.8685 C   0  0  0  0  0  0  0  0  0  0  0  0
    4.7519   -6.6020    6.7206 C   0  0  0  0  0  0  0  0  0  0  0  0
    6.0358   -3.7008    7.9102 C   0  0  0  0  0  0  0  0  0  0  0  0
    5.5272   -2.5344    8.5401 C   0  0  0  0  0  0  0  0  0  0  0  0
    6.1583   -0.9700    8.2154 Cl  0  0  0  0  0  0  0  0  0  0  0  0
    7.2729   -3.6399    6.7211 Cl  0  0  0  0  0  0  0  0  0  0  0  0
    3.6375   -2.0001   11.6368 C   0  0  0  0  0  0  0  0  0  0  0  0
    4.2955   -3.2883   12.6067 S   0  0  0  0  0  0  0  0  0  0  0  0
    3.0587   -0.4447    8.2901 C   0  0  0  0  0  0  0  0  0  0  0  0
    2.3704    0.7094    8.0201 C   0  0  0  0  0  0  0  0  0  0  0  0
    1.7650    1.4493    9.4942 S   0  0  0  0  0  0  0  0  0  0  0  0
    2.1797    1.2613    6.7314 C   0  0  0  0  0  0  0  0  0  0  0  0
    3.0668    0.5510    5.4169 S   0  0  0  0  0  0  0  0  0  0  0  0
    2.3782    1.6223    4.2333 C   0  0  0  0  0  0  0  0  0  0  0  0
    1.4918    2.5152    4.8593 C   0  0  0  0  0  0  0  0  0  0  0  0
    1.3862    2.3137    6.2679 C   0  0  0  0  0  0  0  0  0  0  0  0
    0.5238    3.1298    7.0285 C   0  0  0  0  0  0  0  0  0  0  0  0
   -0.1988    4.1197    6.4228 C   0  0  0  0  0  0  0  0  0  0  0  0
   -1.0571    4.9567    7.0520 O   0  0  0  0  0  0  0  0  0  0  0  0
   -1.2274    4.8144    8.4414 C   0  0  0  0  0  0  0  0  0  0  0  0
   -0.0718    4.3438    5.0074 C   0  0  0  0  0  0  0  0  0  0  0  0
   -0.8256    5.3628    4.5295 O   0  0  0  0  0  0  0  0  0  0  0  0
   -0.7815    5.6358    3.1497 C   0  0  0  0  0  0  0  0  0  0  0  0
    0.7591    3.5580    4.2567 C   0  0  0  0  0  0  0  0  0  0  0  0
    2.6665    1.4491    2.8623 C   0  0  0  0  0  0  0  0  0  0  0  0
    1.5602    2.0049    1.6416 S   0  0  0  0  0  0  0  0  0  0  0  0
    2.4496    1.2628    0.3507 C   0  0  0  0  0  0  0  0  0  0  0  0
    3.6154    0.6637    0.8409 C   0  0  0  0  0  0  0  0  0  0  0  0
    3.7310    0.7552    2.2597 C   0  0  0  0  0  0  0  0  0  0  0  0
    4.8556    0.1939    2.8973 C   0  0  0  0  0  0  0  0  0  0  0  0
    5.8138   -0.4595    2.1711 C   0  0  0  0  0  0  0  0  0  0  0  0
    6.9140   -1.0533    2.6881 O   0  0  0  0  0  0  0  0  0  0  0  0
    7.0783   -1.0532    4.0865 C   0  0  0  0  0  0  0  0  0  0  0  0
    5.7059   -0.5344    0.7394 C   0  0  0  0  0  0  0  0  0  0  0  0
    6.7291   -1.1803    0.1288 O   0  0  0  0  0  0  0  0  0  0  0  0
    6.6994   -1.3058   -1.2713 C   0  0  0  0  0  0  0  0  0  0  0  0
    4.6392    0.0348    0.1010 C   0  0  0  0  0  0  0  0  0  0  0  0
    1.8755    1.2542   -0.9445 C   0  0  0  0  0  0  0  0  0  0  0  0
    2.1468    0.4390   -2.0113 C   0  0  0  0  0  0  0  0  0  0  0  0
    1.2702    0.6111   -3.1039 C   0  0  0  0  0  0  0  0  0  0  0  0
    1.2730   -0.0737   -4.3363 C   0  0  0  0  0  0  0  0  0  0  0  0
    2.2839   -1.0635   -4.6651 C   0  0  0  0  0  0  0  0  0  0  0  0
    2.6768   -2.3707   -3.5824 S   0  0  0  0  0  0  0  0  0  0  0  0
    3.8395   -3.0421   -4.6754 C   0  0  0  0  0  0  0  0  0  0  0  0
    4.5714   -4.2973   -4.3504 C   0  0  0  0  0  0  0  0  0  0  0  0
    3.7517   -5.5274   -4.7473 C   0  0  0  0  0  0  0  0  0  0  0  0
    3.9004   -2.2942   -5.8119 C   0  0  0  0  0  0  0  0  0  0  0  0
    4.9373   -2.6471   -7.1337 Cl  0  0  0  0  0  0  0  0  0  0  0  0
    3.0284   -1.1721   -5.8081 C   0  0  0  0  0  0  0  0  0  0  0  0
    3.0123   -0.0335   -7.0896 Cl  0  0  0  0  0  0  0  0  0  0  0  0
    0.2402    0.2199   -5.2155 C   0  0  0  0  0  0  0  0  0  0  0  0
   -0.7554    1.1923   -4.9519 C   0  0  0  0  0  0  0  0  0  0  0  0
   -0.6935    1.9497   -3.7651 C   0  0  0  0  0  0  0  0  0  0  0  0
   -1.6387    3.0209   -3.5130 C   0  0  0  0  0  0  0  0  0  0  0  0
   -2.5062    3.1467   -2.0109 S   0  0  0  0  0  0  0  0  0  0  0  0
   -3.3255    4.5850   -2.5140 C   0  0  0  0  0  0  0  0  0  0  0  0
   -4.3429    5.2403   -1.6466 C   0  0  0  0  0  0  0  0  0  0  0  0
   -5.7407    4.6849   -1.9309 C   0  0  0  0  0  0  0  0  0  0  0  0
   -2.9426    4.9328   -3.7750 C   0  0  0  0  0  0  0  0  0  0  0  0
   -1.9842    4.0526   -4.3432 C   0  0  0  0  0  0  0  0  0  0  0  0
   -1.2821    4.3274   -5.8850 Cl  0  0  0  0  0  0  0  0  0  0  0  0
   -3.5382    6.3100   -4.6077 Cl  0  0  0  0  0  0  0  0  0  0  0  0
    0.2968    1.6099   -2.8559 C   0  0  0  0  0  0  0  0  0  0  0  0
    0.5192    2.3232   -1.2841 S   0  0  0  0  0  0  0  0  0  0  0  0
   -1.7618    1.2014   -5.9401 C   0  0  0  0  0  0  0  0  0  0  0  0
   -1.5687    0.2929   -6.9489 C   0  0  0  0  0  0  0  0  0  0  0  0
   -0.0863   -0.6155   -6.7056 S   0  0  0  0  0  0  0  0  0  0  0  0
   -2.4442    0.0466   -8.0345 C   0  0  0  0  0  0  0  0  0  0  0  0
   -3.9916    0.8450   -8.0457 S   0  0  0  0  0  0  0  0  0  0  0  0
   -4.4956    0.0394   -9.4940 C   0  0  0  0  0  0  0  0  0  0  0  0
   -3.4736   -0.7728   -9.9854 C   0  0  0  0  0  0  0  0  0  0  0  0
   -2.3156   -0.7843   -9.1510 C   0  0  0  0  0  0  0  0  0  0  0  0
   -1.2046   -1.5680   -9.5300 C   0  0  0  0  0  0  0  0  0  0  0  0
   -1.2314   -2.2888  -10.6911 C   0  0  0  0  0  0  0  0  0  0  0  0
   -0.2249   -3.0728  -11.1450 O   0  0  0  0  0  0  0  0  0  0  0  0
    0.9525   -3.1565  -10.3784 C   0  0  0  0  0  0  0  0  0  0  0  0
   -2.3813   -2.2321  -11.5577 C   0  0  0  0  0  0  0  0  0  0  0  0
   -2.2625   -2.9595  -12.6984 O   0  0  0  0  0  0  0  0  0  0  0  0
   -3.3183   -2.9176  -13.6251 C   0  0  0  0  0  0  0  0  0  0  0  0
   -3.4668   -1.4821  -11.2088 C   0  0  0  0  0  0  0  0  0  0  0  0
   -5.8060    0.2309  -10.0178 C   0  0  0  0  0  0  0  0  0  0  0  0
   -6.5464    1.8032  -10.0207 S   0  0  0  0  0  0  0  0  0  0  0  0
   -7.9586    1.2167  -10.7834 C   0  0  0  0  0  0  0  0  0  0  0  0
   -7.9003   -0.1375  -11.0157 C   0  0  0  0  0  0  0  0  0  0  0  0
   -6.6709   -0.7151  -10.5626 C   0  0  0  0  0  0  0  0  0  0  0  0
   -6.4985   -2.1178  -10.6272 C   0  0  0  0  0  0  0  0  0  0  0  0
   -7.4686   -2.8966  -11.1868 C   0  0  0  0  0  0  0  0  0  0  0  0
   -7.4156   -4.2483  -11.3088 O   0  0  0  0  0  0  0  0  0  0  0  0
   -6.2976   -4.9205  -10.7862 C   0  0  0  0  0  0  0  0  0  0  0  0
   -8.6810   -2.3058  -11.7063 C   0  0  0  0  0  0  0  0  0  0  0  0
   -9.5419   -3.2043  -12.2487 O   0  0  0  0  0  0  0  0  0  0  0  0
  -10.7696   -2.7320  -12.7429 C   0  0  0  0  0  0  0  0  0  0  0  0
   -8.8908   -0.9631  -11.6068 C   0  0  0  0  0  0  0  0  0  0  0  0
    3.7207   -3.1214   14.9637 H   0  0  0  0  0  0  0  0  0  0  0  0
    2.3819   -0.9236   14.5688 H   0  0  0  0  0  0  0  0  0  0  0  0
   -1.6524    3.8423   12.9290 H   0  0  0  0  0  0  0  0  0  0  0  0
   -0.8750    4.4405   14.4079 H   0  0  0  0  0  0  0  0  0  0  0  0
   -1.7319    2.4639   15.6576 H   0  0  0  0  0  0  0  0  0  0  0  0
   -3.0616    3.3555   14.9115 H   0  0  0  0  0  0  0  0  0  0  0  0
   -2.4882    1.8503   14.1836 H   0  0  0  0  0  0  0  0  0  0  0  0
    5.5489   -6.9419    8.6947 H   0  0  0  0  0  0  0  0  0  0  0  0
    6.7332   -6.3251    7.5259 H   0  0  0  0  0  0  0  0  0  0  0  0
    4.9379   -7.6187    6.3851 H   0  0  0  0  0  0  0  0  0  0  0  0
    3.7178   -6.5254    7.0480 H   0  0  0  0  0  0  0  0  0  0  0  0
    4.9027   -5.9256    5.8831 H   0  0  0  0  0  0  0  0  0  0  0  0
    3.4717   -1.0578    7.5102 H   0  0  0  0  0  0  0  0  0  0  0  0
    0.4445    2.9553    8.0872 H   0  0  0  0  0  0  0  0  0  0  0  0
   -1.9420    5.5837    8.7288 H   0  0  0  0  0  0  0  0  0  0  0  0
   -0.2870    4.9707    8.9797 H   0  0  0  0  0  0  0  0  0  0  0  0
   -1.6286    3.8287    8.6985 H   0  0  0  0  0  0  0  0  0  0  0  0
   -1.0975    4.7709    2.5576 H   0  0  0  0  0  0  0  0  0  0  0  0
   -1.4771    6.4583    2.9920 H   0  0  0  0  0  0  0  0  0  0  0  0
    0.2204    5.9427    2.8326 H   0  0  0  0  0  0  0  0  0  0  0  0
    0.8710    3.7349    3.2018 H   0  0  0  0  0  0  0  0  0  0  0  0
    4.9629    0.3004    3.9617 H   0  0  0  0  0  0  0  0  0  0  0  0
    7.2007   -0.0385    4.4783 H   0  0  0  0  0  0  0  0  0  0  0  0
    7.9856   -1.6238    4.2760 H   0  0  0  0  0  0  0  0  0  0  0  0
    6.2340   -1.5342    4.5897 H   0  0  0  0  0  0  0  0  0  0  0  0
    7.5874   -1.8781   -1.5339 H   0  0  0  0  0  0  0  0  0  0  0  0
    5.8068   -1.8443   -1.6083 H   0  0  0  0  0  0  0  0  0  0  0  0
    6.7398   -0.3292   -1.7647 H   0  0  0  0  0  0  0  0  0  0  0  0
    4.5821    0.0374   -0.9722 H   0  0  0  0  0  0  0  0  0  0  0  0
    2.9054   -0.3176   -1.9957 H   0  0  0  0  0  0  0  0  0  0  0  0
    4.7786   -4.3304   -3.2793 H   0  0  0  0  0  0  0  0  0  0  0  0
    5.5195   -4.2996   -4.8917 H   0  0  0  0  0  0  0  0  0  0  0  0
    3.5522   -5.5180   -5.8158 H   0  0  0  0  0  0  0  0  0  0  0  0
    2.8030   -5.5354   -4.2159 H   0  0  0  0  0  0  0  0  0  0  0  0
    4.2973   -6.4345   -4.5021 H   0  0  0  0  0  0  0  0  0  0  0  0
   -4.3320    6.3146   -1.8412 H   0  0  0  0  0  0  0  0  0  0  0  0
   -4.0879    5.0697   -0.5996 H   0  0  0  0  0  0  0  0  0  0  0  0
   -6.0114    4.8613   -2.9687 H   0  0  0  0  0  0  0  0  0  0  0  0
   -6.4731    5.1706   -1.2918 H   0  0  0  0  0  0  0  0  0  0  0  0
   -5.7663    3.6144   -1.7420 H   0  0  0  0  0  0  0  0  0  0  0  0
   -2.6280    1.8367   -5.9020 H   0  0  0  0  0  0  0  0  0  0  0  0
   -0.3328   -1.5772   -8.9006 H   0  0  0  0  0  0  0  0  0  0  0  0
    0.7559   -3.5695   -9.3836 H   0  0  0  0  0  0  0  0  0  0  0  0
    1.4341   -2.1793  -10.2728 H   0  0  0  0  0  0  0  0  0  0  0  0
    1.6119   -3.8275  -10.9261 H   0  0  0  0  0  0  0  0  0  0  0  0
   -3.4894   -1.9011  -13.9942 H   0  0  0  0  0  0  0  0  0  0  0  0
   -3.0100   -3.5555  -14.4516 H   0  0  0  0  0  0  0  0  0  0  0  0
   -4.2502   -3.3037  -13.1973 H   0  0  0  0  0  0  0  0  0  0  0  0
   -4.3230   -1.3937  -11.8559 H   0  0  0  0  0  0  0  0  0  0  0  0
   -8.7553    1.8939  -11.0171 H   0  0  0  0  0  0  0  0  0  0  0  0
   -5.6037   -2.5469  -10.2086 H   0  0  0  0  0  0  0  0  0  0  0  0
   -6.4687   -5.9766  -10.9875 H   0  0  0  0  0  0  0  0  0  0  0  0
   -6.2040   -4.7661   -9.7063 H   0  0  0  0  0  0  0  0  0  0  0  0
   -5.3686   -4.6049  -11.2737 H   0  0  0  0  0  0  0  0  0  0  0  0
  -10.6260   -2.0213  -13.5636 H   0  0  0  0  0  0  0  0  0  0  0  0
  -11.3642   -2.2584  -11.9546 H   0  0  0  0  0  0  0  0  0  0  0  0
  -11.2956   -3.6102  -13.1135 H   0  0  0  0  0  0  0  0  0  0  0  0
   -9.7984   -0.4995  -11.9567 H   0  0  0  0  0  0  0  0  0  0  0  0
  1  2  2  0  0  0  0
  2  3  1  0  0  0  0
  3  4  2  0  0  0  0
  4  5  1  0  0  0  0
  5  6  1  0  0  0  0
  6  7  1  0  0  0  0
  7  8  1  0  0  0  0
  8  9  1  0  0  0  0
  7 10  2  0  0  0  0
 10 11  1  0  0  0  0
 10 12  1  0  0  0  0
 12 13  1  0  0  0  0
  4 14  1  0  0  0  0
 14 15  2  0  0  0  0
 15 16  1  0  0  0  0
 16 17  1  0  0  0  0
 17 18  1  0  0  0  0
 18 19  1  0  0  0  0
 19 20  1  0  0  0  0
 20 21  1  0  0  0  0
 19 22  2  0  0  0  0
 22 23  1  0  0  0  0
 23 24  1  0  0  0  0
 22 25  1  0  0  0  0
 16 26  2  0  0  0  0
 26 27  1  0  0  0  0
 15 28  1  0  0  0  0
 28 29  2  0  0  0  0
 29 30  1  0  0  0  0
 29 31  1  0  0  0  0
 31 32  1  0  0  0  0
 32 33  1  0  0  0  0
 33 34  2  0  0  0  0
 34 35  1  0  0  0  0
 35 36  1  0  0  0  0
 36 37  2  0  0  0  0
 37 38  1  0  0  0  0
 38 39  1  0  0  0  0
 37 40  1  0  0  0  0
 40 41  1  0  0  0  0
 41 42  1  0  0  0  0
 40 43  2  0  0  0  0
 33 44  1  0  0  0  0
 44 45  1  0  0  0  0
 45 46  1  0  0  0  0
 46 47  2  0  0  0  0
 47 48  1  0  0  0  0
 48 49  1  0  0  0  0
 49 50  2  0  0  0  0
 50 51  1  0  0  0  0
 51 52  1  0  0  0  0
 50 53  1  0  0  0  0
 53 54  1  0  0  0  0
 54 55  1  0  0  0  0
 53 56  2  0  0  0  0
 46 57  1  0  0  0  0
 57 58  2  0  0  0  0
 58 59  1  0  0  0  0
 59 60  2  0  0  0  0
 60 61  1  0  0  0  0
 61 62  1  0  0  0  0
 62 63  1  0  0  0  0
 63 64  1  0  0  0  0
 64 65  1  0  0  0  0
 63 66  2  0  0  0  0
 66 67  1  0  0  0  0
 66 68  1  0  0  0  0
 68 69  1  0  0  0  0
 60 70  1  0  0  0  0
 70 71  2  0  0  0  0
 71 72  1  0  0  0  0
 72 73  1  0  0  0  0
 73 74  1  0  0  0  0
 74 75  1  0  0  0  0
 75 76  1  0  0  0  0
 76 77  1  0  0  0  0
 75 78  2  0  0  0  0
 78 79  1  0  0  0  0
 79 80  1  0  0  0  0
 78 81  1  0  0  0  0
 72 82  2  0  0  0  0
 82 83  1  0  0  0  0
 71 84  1  0  0  0  0
 84 85  2  0  0  0  0
 85 86  1  0  0  0  0
 85 87  1  0  0  0  0
 87 88  1  0  0  0  0
 88 89  1  0  0  0  0
 89 90  2  0  0  0  0
 90 91  1  0  0  0  0
 91 92  1  0  0  0  0
 92 93  2  0  0  0  0
 93 94  1  0  0  0  0
 94 95  1  0  0  0  0
 93 96  1  0  0  0  0
 96 97  1  0  0  0  0
 97 98  1  0  0  0  0
 96 99  2  0  0  0  0
 89100  1  0  0  0  0
100101  1  0  0  0  0
101102  1  0  0  0  0
102103  2  0  0  0  0
103104  1  0  0  0  0
104105  1  0  0  0  0
105106  2  0  0  0  0
106107  1  0  0  0  0
107108  1  0  0  0  0
106109  1  0  0  0  0
109110  1  0  0  0  0
110111  1  0  0  0  0
109112  2  0  0  0  0
 27  1  1  0  0  0  0
 35 31  2  0  0  0  0
 48 44  2  0  0  0  0
 83 57  1  0  0  0  0
 91 87  2  0  0  0  0
104100  2  0  0  0  0
 26  3  1  0  0  0  0
 43 34  1  0  0  0  0
 56 47  1  0  0  0  0
 82 59  1  0  0  0  0
 99 90  1  0  0  0  0
112103  1  0  0  0  0
 12  5  2  0  0  0  0
 30 14  1  0  0  0  0
 68 61  2  0  0  0  0
 86 70  1  0  0  0  0
 23 17  2  0  0  0  0
 79 73  2  0  0  0  0
  1113  1  0  0  0  0
  2114  1  0  0  0  0
  8115  1  0  0  0  0
  8116  1  0  0  0  0
  9117  1  0  0  0  0
  9118  1  0  0  0  0
  9119  1  0  0  0  0
 20120  1  0  0  0  0
 20121  1  0  0  0  0
 21122  1  0  0  0  0
 21123  1  0  0  0  0
 21124  1  0  0  0  0
 28125  1  0  0  0  0
 36126  1  0  0  0  0
 39127  1  0  0  0  0
 39128  1  0  0  0  0
 39129  1  0  0  0  0
 42130  1  0  0  0  0
 42131  1  0  0  0  0
 42132  1  0  0  0  0
 43133  1  0  0  0  0
 49134  1  0  0  0  0
 52135  1  0  0  0  0
 52136  1  0  0  0  0
 52137  1  0  0  0  0
 55138  1  0  0  0  0
 55139  1  0  0  0  0
 55140  1  0  0  0  0
 56141  1  0  0  0  0
 58142  1  0  0  0  0
 64143  1  0  0  0  0
 64144  1  0  0  0  0
 65145  1  0  0  0  0
 65146  1  0  0  0  0
 65147  1  0  0  0  0
 76148  1  0  0  0  0
 76149  1  0  0  0  0
 77150  1  0  0  0  0
 77151  1  0  0  0  0
 77152  1  0  0  0  0
 84153  1  0  0  0  0
 92154  1  0  0  0  0
 95155  1  0  0  0  0
 95156  1  0  0  0  0
 95157  1  0  0  0  0
 98158  1  0  0  0  0
 98159  1  0  0  0  0
 98160  1  0  0  0  0
 99161  1  0  0  0  0
102162  1  0  0  0  0
105163  1  0  0  0  0
108164  1  0  0  0  0
108165  1  0  0  0  0
108166  1  0  0  0  0
111167  1  0  0  0  0
111168  1  0  0  0  0
111169  1  0  0  0  0
112170  1  0  0  0  0
M  END
