215

C         -6.53380      -11.92320      -10.56950
S         -5.43850      -12.35790       -9.33540
C         -5.33580      -10.72740       -8.72240
C         -6.16200       -9.88770       -9.48570
C         -6.83670      -10.58290      -10.54070
C         -7.70160       -9.88670      -11.42210
C         -7.89410       -8.54660      -11.26740
O         -8.68250       -7.76240      -12.04400
C         -9.38420       -8.36660      -13.10100
C         -7.23920       -7.84540      -10.19030
O         -7.52420       -6.52130      -10.13290
C         -6.94280       -5.75190       -9.10850
C         -6.41100       -8.50740       -9.32740
C         -4.46060      -10.39870       -7.65820
S         -4.04380       -8.73790       -7.36530
C         -2.97080       -9.11730       -6.05150
C         -2.92700      -10.49810       -5.85450
C         -3.77210      -11.22190       -6.75150
C         -3.85610      -12.62500       -6.62300
C         -3.11730      -13.28200       -5.67890
O         -3.12620      -14.62170       -5.47100
C         -3.95200      -15.41870       -6.28360
C         -2.24360      -12.55160       -4.79930
O         -1.55970      -13.31950       -3.91940
C         -0.69080      -12.68240       -3.01420
C         -2.16640      -11.19040       -4.88940
C         -2.36840       -8.02710       -5.38000
C         -2.64460       -6.70950       -5.63810
C         -1.94130       -5.79400       -4.82930
C         -2.03140       -4.39030       -4.84930
C         -2.90850       -3.73630       -5.82850
C         -2.81180       -4.04560       -7.18270
C         -3.69800       -3.52160       -8.10330
C         -4.71560       -2.66470       -7.70050
S         -5.96830       -2.00150       -8.74880
C         -5.32680       -2.25980      -10.43960
C         -4.14280       -1.36290      -10.74650
C         -4.78130       -2.33800       -6.34470
F         -5.75590       -1.51030       -5.92040
C         -3.90150       -2.85050       -5.41750
C         -1.30080       -3.70910       -3.89090
C         -0.46300       -4.36610       -2.95520
C         -0.33520       -5.76740       -2.96960
C          0.58490       -6.43520       -2.04160
C          0.17080       -7.47980       -1.21860
C          1.04050       -8.03760       -0.30550
C          2.35870       -7.59860       -0.19490
S          3.37960       -8.36960        1.02580
C          4.39500       -6.99090        1.68000
C          3.54770       -5.84170        2.18620
C          2.77720       -6.60440       -1.07430
C          1.90810       -6.01160       -1.96620
F          4.05950       -6.17720       -1.08370
C         -1.10370       -6.45050       -3.89360
S         -1.18370       -8.18520       -4.09090
C          0.12920       -3.45540       -2.04790
C         -0.19340       -2.15280       -2.28740
S         -1.26140       -1.97760       -3.66920
C          0.20890       -1.01540       -1.52940
C          0.06470        0.30340       -1.83810
C          0.54870        1.17930       -0.83390
C          0.54550        2.58390       -0.83520
C         -0.00030        3.36480       -1.95200
C          0.74780        4.38620       -2.52970
C          0.24370        5.14780       -3.56600
C         -1.03170        4.91280       -4.06560
S         -1.81470        5.81690       -5.35820
C         -0.48310        6.85060       -6.06010
C          0.50500        6.04350       -6.88150
C         -1.77310        3.88770       -3.47330
F         -3.01930        3.64200       -3.92270
C         -1.28250        3.12150       -2.44030
C          1.07730        3.20470        0.28250
C          1.58610        2.50540        1.40450
C          1.59740        1.09830        1.40240
C          2.08660        0.33310        2.55570
C          1.65510        0.62960        3.84850
C          2.10330       -0.10360        4.92690
C          2.99740       -1.15730        4.76040
S          3.55700       -2.01630        6.20640
C          3.38540       -3.77750        5.74130
C          1.96450       -4.11840        5.34110
C          3.43160       -1.43450        3.46880
C          2.98260       -0.71740        2.37920
F          4.32250       -2.42580        3.24340
C          1.09380        0.47540        0.26990
S          0.97770       -1.24940        0.03140
C          2.04030        3.38870        2.41140
C          1.86820        4.71560        2.11770
S          1.14880        4.92900        0.53030
C          2.17010        5.80490        2.97680
S          2.56240        5.46030        4.63020
C          2.72210        7.13590        5.04430
C          2.50740        7.94120        3.92010
C          2.18180        7.18420        2.75130
C          1.92620        7.85300        1.53500
C          1.97890        9.21640        1.46980
O          1.74180        9.95700        0.36160
C          1.40330        9.28610       -0.82770
C          2.32330        9.98060        2.63960
O          2.35980       11.32100        2.44430
C          2.67790       12.15070        3.53440
C          2.58680        9.34810        3.82170
C          2.99860        7.46340        6.40060
C          3.02360        8.67170        7.03840
C          3.31270        8.59110        8.42280
C          3.40390        9.65000        9.34030
C          3.13600       11.03170        8.92230
C          1.95570       11.35480        8.25760
C          1.70220       12.64490        7.83390
C          2.62080       13.66240        8.06470
S          2.44040       15.33500        7.53740
C          0.64790       15.51450        7.23670
C         -0.16170       15.43380        8.51680
C          3.79730       13.32520        8.73640
F          4.71530       14.28420        8.96660
C          4.06120       12.04380        9.16580
C          3.74970        9.31580       10.64140
C          3.95040        7.98120       11.07040
C          3.82470        6.92050       10.16010
C          3.94310        5.51560       10.56730
C          4.74130        4.62730        9.85220
C          4.79360        3.28880       10.18530
C          4.03810        2.78620       11.23880
S          4.00620        1.09110       11.72170
C          4.40480        0.21100       10.17000
C          3.36430        0.44480        9.09310
C          3.26890        3.69310       11.96840
C          3.21180        5.03180       11.65030
F          2.53770        3.24950       13.01080
C          3.53660        7.25970        8.84660
S          3.34160        6.14590        7.51940
C          4.29110        7.92240       12.45460
C          4.31980        9.13590       13.04120
S          3.94290       10.43750       11.96400
H         -6.89380      -12.67230      -11.24520
H         -8.18750      -10.44760      -12.20360
H        -10.07780       -9.13190      -12.73710
H         -9.94760       -7.56580      -13.57660
H         -8.70250       -8.81500      -13.83160
H         -7.29790       -4.73450       -9.26380
H         -7.25700       -6.09480       -8.11770
H         -5.84860       -5.77180       -9.16110
H         -5.95620       -7.97750       -8.51100
H         -4.52020      -13.17170       -7.26760
H         -3.79150      -16.44230       -5.94920
H         -3.67930      -15.33330       -7.34050
H         -5.00840      -15.15810       -6.16140
H          0.10580      -12.14110       -3.53440
H         -0.25550      -13.47980       -2.41470
H         -1.22970      -11.98830       -2.36140
H         -1.52870      -10.62540       -4.23180
H         -3.36620       -6.41090       -6.37700
H         -2.02690       -4.70490       -7.52210
H         -3.59610       -3.80070       -9.13950
H         -6.17770       -2.00890      -11.07300
H         -5.09820       -3.31630      -10.57310
H         -4.42200       -0.31920      -10.62340
H         -3.81690       -1.51800      -11.77330
H         -3.30860       -1.57410      -10.08060
H         -4.01440       -2.57940       -4.37990
H         -0.84920       -7.82780       -1.26920
H          0.70920       -8.82440        0.35410
H          5.09550       -6.67230        0.91130
H          4.95030       -7.45790        2.49350
H          2.97160       -5.39410        1.37850
H          2.85580       -6.18510        2.95240
H          4.19140       -5.07280        2.60730
H          2.28150       -5.23750       -2.61900
H          0.75980       -3.75200       -1.22860
H         -0.36550        0.63600       -2.76570
H          1.74910        4.57910       -2.17600
H          0.85750        5.93230       -3.97730
H         -0.00470        7.40030       -5.25050
H         -1.01900        7.56040       -6.69020
H          1.00120        5.29180       -6.27160
H         -0.01050        5.53740       -7.69410
H          1.26040        6.70270       -7.30530
H         -1.91130        2.35930       -2.00750
H          0.93750        1.42010        4.00430
H          1.76110        0.12710        5.92390
H          4.09940       -4.00450        4.95280
H          3.67800       -4.30590        6.64850
H          1.68630       -3.60700        4.42100
H          1.26790       -3.82600        6.12410
H          1.87600       -5.19080        5.18010
H          3.36420       -0.96830        1.40200
H          2.49890        3.06190        3.32760
H          1.69230        7.27120        0.66150
H          0.48620        8.69930       -0.71210
H          2.21230        8.62730       -1.16000
H          1.24400       10.06740       -1.56880
H          1.96010       12.03250        4.35340
H          3.68780       11.95630        3.91010
H          2.62690       13.16910        3.15360
H          2.87760        9.91940        4.68300
H          2.83610        9.61280        6.56130
H          1.21600       10.58720        8.08450
H          0.77930       12.85100        7.31550
H          0.56650       16.50440        6.78790
H          0.33740       14.77510        6.49940
H         -1.21640       15.58930        8.29760
H          0.16530       16.19980        9.21590
H         -0.04480       14.46270        8.99340
H          4.99180       11.83960        9.67090
H          5.34380        4.98970        9.03360
H          5.43210        2.63290        9.61600
H          5.40550        0.49560        9.84790
H          4.42320       -0.83590       10.47170
H          2.38170        0.14690        9.45130
H          3.60940       -0.14710        8.21360
H          3.32490        1.49460        8.80810
H          2.56900        5.68170       12.22320
H          4.51800        7.00630       12.96880
H          4.54860        9.36950       14.06260
