233

C         -2.91350       -4.80130        8.50840
C         -2.19060       -4.05560        7.64910
C         -2.60350       -4.21750        6.29380
C         -2.12080       -3.56590        5.15120
C         -1.01620       -2.61930        5.20990
S         -1.19130       -0.99430        4.61290
C          0.42120       -0.56590        5.07050
C          0.91390        0.83100        4.92480
C          0.41190        1.70850        6.07380
C          1.05410       -1.63480        5.63080
Cl         2.67780       -1.59900        6.18760
C          0.24220       -2.79930        5.71110
Cl         0.81840       -4.29450        6.33380
C         -2.76470       -3.84090        3.95020
C         -3.85020       -4.74020        3.83570
C         -4.32050       -5.40900        4.97680
C         -5.44330       -6.33010        4.90870
S         -6.96650       -5.83800        4.22740
C         -7.69770       -7.37290        4.54890
C         -9.12990       -7.62920        4.23300
C        -10.03220       -7.18340        5.38610
C         -6.80280       -8.20500        5.15180
C         -5.52380       -7.61970        5.35440
Cl        -4.20750       -8.49540        6.01510
Cl        -7.16200       -9.81570        5.62100
C         -3.68360       -5.12750        6.18140
S         -4.13950       -5.74960        7.74230
C         -4.29300       -4.85520        2.48740
C         -3.57450       -4.09290        1.62620
S         -2.31650       -3.17260        2.41710
C         -3.71390       -3.90150        0.19870
C         -4.70240       -3.23190       -0.44620
C         -4.42930       -3.01480       -1.82390
C         -5.18230       -2.26130       -2.73920
C         -6.47130       -1.70390       -2.36780
S         -6.80970       -0.00900       -2.55560
C         -8.40350       -0.17430       -1.89940
C         -9.31550        0.99880       -1.81030
C         -9.82120        1.40500       -3.19610
C         -8.64860       -1.47440       -1.57290
Cl       -10.12720       -2.03710       -0.90780
C         -7.55220       -2.34290       -1.82810
Cl        -7.62580       -4.03340       -1.54410
C         -4.59820       -2.00600       -3.97200
C         -3.34460       -2.53930       -4.35700
C         -2.62820       -3.36390       -3.47040
C         -1.36220       -3.95700       -3.87200
S         -1.28580       -4.93610       -5.31050
C          0.40020       -5.26040       -5.09800
C          1.14160       -6.15320       -6.03080
C          1.00080       -7.61910       -5.61380
C          0.85910       -4.64180       -3.97420
C         -0.13160       -3.89540       -3.27860
Cl         0.24190       -2.95870       -1.89090
Cl         2.48440       -4.73040       -3.43300
C         -3.17270       -3.55030       -2.20380
S         -2.40710       -4.35930       -0.86800
C         -2.88880       -1.98660       -5.58090
C         -3.73450       -1.04990       -6.10560
S         -5.21910       -0.91870       -5.18000
C         -3.40040       -0.00110       -7.01880
C         -2.17570        0.24950       -7.57350
C         -1.96850        1.61770       -7.88240
C         -0.71560        2.24210       -8.08640
C          0.41110        1.46940       -8.55390
S          2.02600        1.66830       -7.93610
C          2.66200        0.44310       -8.97860
C          4.11440        0.11810       -8.98910
C          4.88150        1.08500       -9.89490
C          1.67510       -0.06940       -9.76850
Cl         1.92980       -1.29430      -10.94360
C          0.39940        0.50190       -9.52900
Cl        -0.98080        0.06570      -10.45020
C         -0.63140        3.56520       -7.66430
C         -1.76720        4.33400       -7.30030
C         -3.05500        3.77360       -7.37620
C         -4.26850        4.48420       -7.01220
S         -4.44460        5.35370       -5.51320
C         -6.10850        5.72060       -5.82460
C         -6.90340        6.53810       -4.86870
C         -6.31020        7.93710       -4.70110
C         -6.49020        5.19200       -7.02050
C         -5.45740        4.47810       -7.68700
Cl        -5.68170        3.74040       -9.21710
Cl        -8.06550        5.34840       -7.68310
C         -3.10670        2.40000       -7.58530
S         -4.45020        1.40390       -7.09760
C         -1.41090        5.50300       -6.58540
C         -0.07990        5.56400       -6.28260
S          0.84520        4.37150       -7.19390
C          0.42430        5.98540       -5.00580
C         -0.37030        5.83970       -3.90110
C          0.35190        5.61680       -2.70950
C         -0.17220        5.02250       -1.54520
C         -1.60830        4.87120       -1.39790
S         -2.34220        3.31810       -1.10840
C         -3.94510        3.96430       -1.21420
C         -5.15380        3.10360       -1.07670
C         -4.94560        1.95920       -0.09130
C         -3.89490        5.30590       -1.44980
Cl        -5.28220        6.30110       -1.59000
C         -2.57740        5.82200       -1.56570
Cl        -2.25710        7.48580       -1.83570
C          0.74970        4.43830       -0.69170
C          2.15380        4.54360       -0.86290
C          2.67170        5.25600       -1.96440
C          4.09200        5.43240       -2.19930
S          5.24600        4.13680       -2.07560
C          6.56260        5.14990       -2.55750
C          7.95660        4.63050       -2.60890
C          8.60180        4.65910       -1.22110
C          6.12210        6.41910       -2.78620
C          4.72430        6.58090       -2.59670
Cl         3.94820        8.09830       -2.77210
Cl         7.14080        7.71330       -3.26660
C          1.74860        5.69940       -2.90910
S          2.11660        6.08980       -4.57540
C          2.85210        3.71920        0.05610
C          2.03690        2.93760        0.82370
S          0.34560        3.35220        0.60330
C          2.41550        1.80240        1.60410
S          3.90290        1.77700        2.48650
C          3.74530        0.09130        2.86100
C          2.57480       -0.43540        2.31660
C          1.80600        0.54700        1.61980
C          0.59390        0.17050        0.99990
C          0.16740       -1.12370        1.05530
O         -0.97840       -1.58350        0.49730
C         -1.84110       -0.65050       -0.10580
C          0.94590       -2.11810        1.75180
O          0.43070       -3.36510        1.69520
C          1.12260       -4.41360        2.32850
C          2.10290       -1.76570        2.38760
C          4.74530       -0.56050        3.64080
C          5.16220       -1.85750        3.58110
C          6.16970       -2.17580        4.52540
C          6.80030       -3.41370        4.73370
C          6.38090       -4.59340        3.99540
S          7.49660       -5.55160        3.06960
C          6.25220       -6.63580        2.54790
C          6.54410       -7.75120        1.60610
C          6.45910       -7.27670        0.15320
C          5.04800       -6.26250        3.06630
Cl         3.57400       -7.09750        2.77430
C          5.11880       -5.10850        3.89050
Cl         3.76360       -4.48940        4.73870
C          7.82070       -3.45220        5.67540
C          8.19970       -2.32780        6.44510
C          7.53040       -1.10500        6.27680
C          7.84910        0.05100        7.09910
S          8.25570        1.58650        6.39400
C          8.46620        2.32850        7.94300
C          8.80380        3.77330        8.06550
C          7.54240        4.63620        7.98170
C          8.21720        1.43040        8.93750
C          7.87280        0.13630        8.46310
Cl         7.45510       -1.15500        9.51450
Cl         8.31250        1.80270       10.61020
C          6.54650       -1.05240        5.29940
S          5.61100        0.34960        4.87080
C          9.28620       -2.63160        7.31690
C          9.68170       -3.91750        7.23140
S          8.77500       -4.84870        6.08860
H         -2.81040       -4.86450        9.57410
H         -1.39730       -3.39710        7.95100
H          2.00500        0.82040        4.92620
H          0.56620        1.24210        3.97560
H         -0.67520        1.72610        6.08790
H          0.77750        2.72440        5.95130
H          0.76700        1.32300        7.02620
H         -9.40370       -7.08710        3.32630
H         -9.26380       -8.69830        4.05730
H         -9.77800       -7.72470        6.29380
H        -11.07290       -7.37970        5.14280
H         -9.91070       -6.11860        5.57030
H         -5.09680       -5.49620        2.17450
H         -5.57050       -2.84940        0.05840
H         -8.78350        1.84000       -1.36030
H        -10.15890        0.73640       -1.16960
H        -10.47920        2.26590       -3.11650
H        -10.37280        0.58640       -3.65120
H         -8.98470        1.66140       -3.84210
H          2.19610       -5.87070       -6.02120
H          0.75240       -6.02430       -7.04210
H          1.55140       -8.25650       -6.30030
H          1.39380       -7.76460       -4.61090
H         -0.04540       -7.91560       -5.62420
H         -1.92560       -2.21000       -6.00080
H         -1.39330       -0.48520       -7.62330
H          4.50750        0.18350       -7.97320
H          4.24320       -0.90340       -9.35150
H          5.93880        0.83450       -9.89740
H          4.76410        2.10630       -9.54040
H          4.50670        1.02450      -10.91360
H         -6.92380        6.04070       -3.89600
H         -7.92580        6.60690       -5.24320
H         -5.29740        7.87180       -4.31040
H         -6.91280        8.51620       -4.00670
H         -6.28280        8.45610       -5.65620
H         -2.12920        6.19020       -6.18020
H         -1.43480        5.71280       -3.97090
H         -5.98490        3.73580       -0.75540
H         -5.41220        2.68730       -2.05640
H         -5.86220        1.38520        0.01300
H         -4.66030        2.34320        0.88520
H         -4.16110        1.29530       -0.44740
H          8.53530        5.25180       -3.29470
H          7.94900        3.60590       -2.98460
H          8.62320        5.67560       -0.83670
H          9.62080        4.28580       -1.27570
H          8.03830        4.03710       -0.52970
H          3.92160        3.62190        0.08170
H          0.02100        0.91440        0.47560
H         -1.38590       -0.19220       -0.99000
H         -2.72450       -1.21060       -0.40770
H         -2.13160        0.13390        0.59980
H          1.19330       -4.25580        3.40800
H          0.53890       -5.31180        2.13370
H          2.12730       -4.53660        1.91320
H          2.66540       -2.48810        2.95140
H          4.81130       -2.55510        2.84450
H          5.81860       -8.54990        1.77210
H          7.54450       -8.13920        1.80400
H          7.17780       -6.48060       -0.02620
H          6.67460       -8.10060       -0.52160
H          5.46230       -6.90080       -0.06340
H          9.29760        3.93800        9.02490
H          9.48970        4.05440        7.26460
H          6.85580        4.37820        8.78400
H          7.04040        4.47800        7.03010
H          7.80290        5.68740        8.07030
H          9.74770       -1.90750        7.96250
H         10.46990       -4.40200        7.77370
