
  xtb     03042203253D
 energy: -290.218234118156 gnorm: 0.000538308027 xtb: 6.4.1 (unknown)
148163  0     0  0            999 V2000
   -0.3212    3.1696    8.5950 C   0  0  0  0  0  0  0  0  0  0  0  0
   -0.8870    1.5701    8.8310 S   0  0  0  0  0  0  0  0  0  0  0  0
   -0.9111    1.2129    7.1156 C   0  0  0  0  0  0  0  0  0  0  0  0
   -0.4881    2.3415    6.4351 C   0  0  0  0  0  0  0  0  0  0  0  0
   -0.2591    2.7143    4.7571 S   0  0  0  0  0  0  0  0  0  0  0  0
    0.3034    4.3446    5.1556 C   0  0  0  0  0  0  0  0  0  0  0  0
    0.6777    5.2097    4.0801 C   0  0  0  0  0  0  0  0  0  0  0  0
    0.8873    6.5728    4.0928 C   0  0  0  0  0  0  0  0  0  0  0  0
    1.2346    7.0811    2.8393 C   0  0  0  0  0  0  0  0  0  0  0  0
    1.2956    6.1145    1.8650 C   0  0  0  0  0  0  0  0  0  0  0  0
    1.6493    6.3159    0.4626 C   0  0  0  0  0  0  0  0  0  0  0  0
    1.8799    7.3964   -0.0260 O   0  0  0  0  0  0  0  0  0  0  0  0
    1.6828    5.1552   -0.2060 O   0  0  0  0  0  0  0  0  0  0  0  0
    2.0652    5.2159   -1.5806 C   0  0  0  0  0  0  0  0  0  0  0  0
    3.5704    5.3780   -1.7319 C   0  0  0  0  0  0  0  0  0  0  0  0
    0.9170    4.5506    2.4888 S   0  0  0  0  0  0  0  0  0  0  0  0
    0.3005    4.5666    6.5050 C   0  0  0  0  0  0  0  0  0  0  0  0
   -0.1448    3.4455    7.2658 C   0  0  0  0  0  0  0  0  0  0  0  0
    0.8048    6.0082    7.2819 Cl  0  0  0  0  0  0  0  0  0  0  0  0
   -1.3525    0.0037    6.5190 C   0  0  0  0  0  0  0  0  0  0  0  0
   -1.5898    0.0610    4.7870 S   0  0  0  0  0  0  0  0  0  0  0  0
   -2.1204   -1.6028    4.6760 C   0  0  0  0  0  0  0  0  0  0  0  0
   -2.1012   -2.1469    5.9435 C   0  0  0  0  0  0  0  0  0  0  0  0
   -2.4216   -3.7485    6.5331 S   0  0  0  0  0  0  0  0  0  0  0  0
   -2.0053   -3.2752    8.1706 C   0  0  0  0  0  0  0  0  0  0  0  0
   -2.1275   -4.2654    9.1941 C   0  0  0  0  0  0  0  0  0  0  0  0
   -1.6478   -4.2759   10.4868 C   0  0  0  0  0  0  0  0  0  0  0  0
   -1.9860   -5.4377   11.1850 C   0  0  0  0  0  0  0  0  0  0  0  0
   -2.7240   -6.3216   10.4365 C   0  0  0  0  0  0  0  0  0  0  0  0
   -3.2432   -7.6169   10.8599 C   0  0  0  0  0  0  0  0  0  0  0  0
   -3.0726   -8.0941   11.9559 O   0  0  0  0  0  0  0  0  0  0  0  0
   -3.9463   -8.1998    9.8758 O   0  0  0  0  0  0  0  0  0  0  0  0
   -4.4984   -9.4857   10.1523 C   0  0  0  0  0  0  0  0  0  0  0  0
   -3.4738  -10.5898    9.9345 C   0  0  0  0  0  0  0  0  0  0  0  0
   -3.0091   -5.7252    8.8422 S   0  0  0  0  0  0  0  0  0  0  0  0
   -1.6297   -1.9579    8.2383 C   0  0  0  0  0  0  0  0  0  0  0  0
   -1.6685   -1.2726    6.9881 C   0  0  0  0  0  0  0  0  0  0  0  0
   -1.1693   -1.2198    9.7141 Cl  0  0  0  0  0  0  0  0  0  0  0  0
   -2.4108   -2.1001    3.3805 C   0  0  0  0  0  0  0  0  0  0  0  0
   -1.7691   -1.1919    2.0428 S   0  0  0  0  0  0  0  0  0  0  0  0
   -2.4194   -2.2861    0.8671 C   0  0  0  0  0  0  0  0  0  0  0  0
   -3.1595   -3.2926    1.4922 C   0  0  0  0  0  0  0  0  0  0  0  0
   -3.1510   -3.1947    2.9172 C   0  0  0  0  0  0  0  0  0  0  0  0
   -3.9051   -4.1180    3.6690 C   0  0  0  0  0  0  0  0  0  0  0  0
   -4.6198   -5.1039    3.0459 C   0  0  0  0  0  0  0  0  0  0  0  0
   -5.3508   -6.0520    3.6740 O   0  0  0  0  0  0  0  0  0  0  0  0
   -5.3709   -6.0593    5.0823 C   0  0  0  0  0  0  0  0  0  0  0  0
   -4.6657   -5.1685    1.6078 C   0  0  0  0  0  0  0  0  0  0  0  0
   -5.4596   -6.1502    1.1133 O   0  0  0  0  0  0  0  0  0  0  0  0
   -5.6257   -6.2354   -0.2803 C   0  0  0  0  0  0  0  0  0  0  0  0
   -3.9589   -4.2705    0.8593 C   0  0  0  0  0  0  0  0  0  0  0  0
   -2.1795   -2.0457   -0.5110 C   0  0  0  0  0  0  0  0  0  0  0  0
   -2.1326   -0.4100   -1.0884 S   0  0  0  0  0  0  0  0  0  0  0  0
   -1.7849   -0.9084   -2.7145 C   0  0  0  0  0  0  0  0  0  0  0  0
   -1.7397   -2.2988   -2.8078 C   0  0  0  0  0  0  0  0  0  0  0  0
   -1.9264   -2.9449   -1.5499 C   0  0  0  0  0  0  0  0  0  0  0  0
   -1.7670   -4.3462   -1.4618 C   0  0  0  0  0  0  0  0  0  0  0  0
   -1.5424   -5.0790   -2.5930 C   0  0  0  0  0  0  0  0  0  0  0  0
   -1.3641   -6.4227   -2.6335 O   0  0  0  0  0  0  0  0  0  0  0  0
   -1.3366   -7.1298   -1.4188 C   0  0  0  0  0  0  0  0  0  0  0  0
   -1.4907   -4.4355   -3.8828 C   0  0  0  0  0  0  0  0  0  0  0  0
   -1.3226   -5.2843   -4.9235 O   0  0  0  0  0  0  0  0  0  0  0  0
   -1.1482   -4.7360   -6.2076 C   0  0  0  0  0  0  0  0  0  0  0  0
   -1.5835   -3.0754   -3.9769 C   0  0  0  0  0  0  0  0  0  0  0  0
   -1.6050    0.0714   -3.7284 C   0  0  0  0  0  0  0  0  0  0  0  0
   -2.6715    1.4535   -3.7915 S   0  0  0  0  0  0  0  0  0  0  0  0
   -1.8718    2.1260   -5.1919 C   0  0  0  0  0  0  0  0  0  0  0  0
   -0.8505    1.2963   -5.5716 C   0  0  0  0  0  0  0  0  0  0  0  0
    0.2833    1.3549   -6.8855 S   0  0  0  0  0  0  0  0  0  0  0  0
    1.0948   -0.0908   -6.2742 C   0  0  0  0  0  0  0  0  0  0  0  0
    2.2389   -0.5717   -6.9709 C   0  0  0  0  0  0  0  0  0  0  0  0
    2.8191    0.0137   -8.0798 C   0  0  0  0  0  0  0  0  0  0  0  0
    3.9166   -0.6968   -8.5647 C   0  0  0  0  0  0  0  0  0  0  0  0
    4.1804   -1.8303   -7.8340 C   0  0  0  0  0  0  0  0  0  0  0  0
    5.2461   -2.7972   -8.0635 C   0  0  0  0  0  0  0  0  0  0  0  0
    6.0587   -2.7210   -8.9540 O   0  0  0  0  0  0  0  0  0  0  0  0
    5.1959   -3.7921   -7.1623 O   0  0  0  0  0  0  0  0  0  0  0  0
    6.1979   -4.8018   -7.2594 C   0  0  0  0  0  0  0  0  0  0  0  0
    7.4890   -4.3732   -6.5767 C   0  0  0  0  0  0  0  0  0  0  0  0
    3.0727   -2.0293   -6.5238 S   0  0  0  0  0  0  0  0  0  0  0  0
    0.4852   -0.5875   -5.1497 C   0  0  0  0  0  0  0  0  0  0  0  0
   -0.6673    0.1457   -4.7488 C   0  0  0  0  0  0  0  0  0  0  0  0
    1.1362   -1.9008   -4.2564 Cl  0  0  0  0  0  0  0  0  0  0  0  0
   -2.2670    3.3722   -5.7765 C   0  0  0  0  0  0  0  0  0  0  0  0
   -3.9033    3.6679   -6.2973 S   0  0  0  0  0  0  0  0  0  0  0  0
   -3.5159    5.2305   -6.9097 C   0  0  0  0  0  0  0  0  0  0  0  0
   -2.2020    5.5093   -6.7133 C   0  0  0  0  0  0  0  0  0  0  0  0
   -1.1976    6.8918   -7.0408 S   0  0  0  0  0  0  0  0  0  0  0  0
    0.1734    6.1170   -6.2342 C   0  0  0  0  0  0  0  0  0  0  0  0
    1.3961    6.8375   -6.1217 C   0  0  0  0  0  0  0  0  0  0  0  0
    1.6452    8.1067   -6.6056 C   0  0  0  0  0  0  0  0  0  0  0  0
    2.9407    8.5507   -6.3395 C   0  0  0  0  0  0  0  0  0  0  0  0
    3.6872    7.6260   -5.6501 C   0  0  0  0  0  0  0  0  0  0  0  0
    5.0718    7.7562   -5.2114 C   0  0  0  0  0  0  0  0  0  0  0  0
    5.7747    8.7110   -5.4377 O   0  0  0  0  0  0  0  0  0  0  0  0
    5.4654    6.6629   -4.5366 O   0  0  0  0  0  0  0  0  0  0  0  0
    6.8036    6.6582   -4.0423 C   0  0  0  0  0  0  0  0  0  0  0  0
    6.9151    7.4038   -2.7205 C   0  0  0  0  0  0  0  0  0  0  0  0
    2.7936    6.1866   -5.3220 S   0  0  0  0  0  0  0  0  0  0  0  0
   -0.1366    4.8619   -5.7806 C   0  0  0  0  0  0  0  0  0  0  0  0
   -1.4750    4.4670   -6.0574 C   0  0  0  0  0  0  0  0  0  0  0  0
    0.9572    3.8958   -4.8848 Cl  0  0  0  0  0  0  0  0  0  0  0  0
   -0.1417    3.8031    9.4394 H   0  0  0  0  0  0  0  0  0  0  0  0
    0.7798    7.1823    4.9696 H   0  0  0  0  0  0  0  0  0  0  0  0
    1.4384    8.1162    2.6335 H   0  0  0  0  0  0  0  0  0  0  0  0
    1.5459    6.0539   -2.0574 H   0  0  0  0  0  0  0  0  0  0  0  0
    1.7208    4.2727   -2.0077 H   0  0  0  0  0  0  0  0  0  0  0  0
    4.0882    4.5738   -1.2137 H   0  0  0  0  0  0  0  0  0  0  0  0
    3.8394    5.3582   -2.7842 H   0  0  0  0  0  0  0  0  0  0  0  0
    3.8774    6.3313   -1.3078 H   0  0  0  0  0  0  0  0  0  0  0  0
   -1.0611   -3.4831   10.9094 H   0  0  0  0  0  0  0  0  0  0  0  0
   -1.7079   -5.6413   12.2032 H   0  0  0  0  0  0  0  0  0  0  0  0
   -4.8563   -9.5011   11.1872 H   0  0  0  0  0  0  0  0  0  0  0  0
   -5.3400   -9.5857    9.4638 H   0  0  0  0  0  0  0  0  0  0  0  0
   -3.0805  -10.5436    8.9217 H   0  0  0  0  0  0  0  0  0  0  0  0
   -3.9422  -11.5571   10.0914 H   0  0  0  0  0  0  0  0  0  0  0  0
   -2.6531  -10.4778   10.6390 H   0  0  0  0  0  0  0  0  0  0  0  0
   -3.9242   -4.0231    4.7382 H   0  0  0  0  0  0  0  0  0  0  0  0
   -4.3658   -6.1714    5.5010 H   0  0  0  0  0  0  0  0  0  0  0  0
   -5.8255   -5.1472    5.4808 H   0  0  0  0  0  0  0  0  0  0  0  0
   -5.9795   -6.9174    5.3611 H   0  0  0  0  0  0  0  0  0  0  0  0
   -6.3013   -7.0727   -0.4453 H   0  0  0  0  0  0  0  0  0  0  0  0
   -4.6767   -6.4300   -0.7919 H   0  0  0  0  0  0  0  0  0  0  0  0
   -6.0707   -5.3222   -0.6884 H   0  0  0  0  0  0  0  0  0  0  0  0
   -4.0179   -4.2657   -0.2157 H   0  0  0  0  0  0  0  0  0  0  0  0
   -1.8003   -4.8080   -0.4896 H   0  0  0  0  0  0  0  0  0  0  0  0
   -0.5332   -6.7753   -0.7653 H   0  0  0  0  0  0  0  0  0  0  0  0
   -1.1537   -8.1686   -1.6875 H   0  0  0  0  0  0  0  0  0  0  0  0
   -2.2904   -7.0572   -0.8844 H   0  0  0  0  0  0  0  0  0  0  0  0
   -0.9808   -5.5841   -6.8690 H   0  0  0  0  0  0  0  0  0  0  0  0
   -2.0387   -4.1900   -6.5362 H   0  0  0  0  0  0  0  0  0  0  0  0
   -0.2802   -4.0698   -6.2428 H   0  0  0  0  0  0  0  0  0  0  0  0
   -1.5408   -2.5718   -4.9278 H   0  0  0  0  0  0  0  0  0  0  0  0
    2.4491    0.9266   -8.5116 H   0  0  0  0  0  0  0  0  0  0  0  0
    4.5074   -0.4102   -9.4154 H   0  0  0  0  0  0  0  0  0  0  0  0
    5.7645   -5.6773   -6.7713 H   0  0  0  0  0  0  0  0  0  0  0  0
    6.3829   -5.0153   -8.3175 H   0  0  0  0  0  0  0  0  0  0  0  0
    7.2964   -4.1113   -5.5389 H   0  0  0  0  0  0  0  0  0  0  0  0
    7.9094   -3.5104   -7.0878 H   0  0  0  0  0  0  0  0  0  0  0  0
    8.2070   -5.1874   -6.6117 H   0  0  0  0  0  0  0  0  0  0  0  0
   -4.2752    5.8332   -7.3629 H   0  0  0  0  0  0  0  0  0  0  0  0
    0.9038    8.6809   -7.1324 H   0  0  0  0  0  0  0  0  0  0  0  0
    3.3342    9.5076   -6.6299 H   0  0  0  0  0  0  0  0  0  0  0  0
    7.4566    7.1186   -4.7913 H   0  0  0  0  0  0  0  0  0  0  0  0
    7.0566    5.6025   -3.9240 H   0  0  0  0  0  0  0  0  0  0  0  0
    6.6535    8.4495   -2.8622 H   0  0  0  0  0  0  0  0  0  0  0  0
    6.2456    6.9672   -1.9837 H   0  0  0  0  0  0  0  0  0  0  0  0
    7.9362    7.3431   -2.3551 H   0  0  0  0  0  0  0  0  0  0  0  0
  1  2  1  0  0  0  0
  2  3  1  0  0  0  0
  3  4  2  0  0  0  0
  4  5  1  0  0  0  0
  5  6  1  0  0  0  0
  6  7  1  0  0  0  0
  7  8  2  0  0  0  0
  8  9  1  0  0  0  0
  9 10  2  0  0  0  0
 10 11  1  0  0  0  0
 11 12  2  0  0  0  0
 11 13  1  0  0  0  0
 13 14  1  0  0  0  0
 14 15  1  0  0  0  0
 10 16  1  0  0  0  0
  6 17  2  0  0  0  0
 17 18  1  0  0  0  0
 17 19  1  0  0  0  0
  3 20  1  0  0  0  0
 20 21  1  0  0  0  0
 21 22  1  0  0  0  0
 22 23  2  0  0  0  0
 23 24  1  0  0  0  0
 24 25  1  0  0  0  0
 25 26  1  0  0  0  0
 26 27  2  0  0  0  0
 27 28  1  0  0  0  0
 28 29  2  0  0  0  0
 29 30  1  0  0  0  0
 30 31  2  0  0  0  0
 30 32  1  0  0  0  0
 32 33  1  0  0  0  0
 33 34  1  0  0  0  0
 29 35  1  0  0  0  0
 25 36  2  0  0  0  0
 36 37  1  0  0  0  0
 36 38  1  0  0  0  0
 22 39  1  0  0  0  0
 39 40  1  0  0  0  0
 40 41  1  0  0  0  0
 41 42  2  0  0  0  0
 42 43  1  0  0  0  0
 43 44  1  0  0  0  0
 44 45  2  0  0  0  0
 45 46  1  0  0  0  0
 46 47  1  0  0  0  0
 45 48  1  0  0  0  0
 48 49  1  0  0  0  0
 49 50  1  0  0  0  0
 48 51  2  0  0  0  0
 41 52  1  0  0  0  0
 52 53  1  0  0  0  0
 53 54  1  0  0  0  0
 54 55  2  0  0  0  0
 55 56  1  0  0  0  0
 56 57  1  0  0  0  0
 57 58  2  0  0  0  0
 58 59  1  0  0  0  0
 59 60  1  0  0  0  0
 58 61  1  0  0  0  0
 61 62  1  0  0  0  0
 62 63  1  0  0  0  0
 61 64  2  0  0  0  0
 54 65  1  0  0  0  0
 65 66  1  0  0  0  0
 66 67  1  0  0  0  0
 67 68  2  0  0  0  0
 68 69  1  0  0  0  0
 69 70  1  0  0  0  0
 70 71  1  0  0  0  0
 71 72  2  0  0  0  0
 72 73  1  0  0  0  0
 73 74  2  0  0  0  0
 74 75  1  0  0  0  0
 75 76  2  0  0  0  0
 75 77  1  0  0  0  0
 77 78  1  0  0  0  0
 78 79  1  0  0  0  0
 74 80  1  0  0  0  0
 70 81  2  0  0  0  0
 81 82  1  0  0  0  0
 81 83  1  0  0  0  0
 67 84  1  0  0  0  0
 84 85  1  0  0  0  0
 85 86  1  0  0  0  0
 86 87  2  0  0  0  0
 87 88  1  0  0  0  0
 88 89  1  0  0  0  0
 89 90  1  0  0  0  0
 90 91  2  0  0  0  0
 91 92  1  0  0  0  0
 92 93  2  0  0  0  0
 93 94  1  0  0  0  0
 94 95  2  0  0  0  0
 94 96  1  0  0  0  0
 96 97  1  0  0  0  0
 97 98  1  0  0  0  0
 93 99  1  0  0  0  0
 89100  2  0  0  0  0
100101  1  0  0  0  0
100102  1  0  0  0  0
 18  1  2  0  0  0  0
 37 20  2  0  0  0  0
 43 39  2  0  0  0  0
 56 52  2  0  0  0  0
 82 65  2  0  0  0  0
101 84  2  0  0  0  0
 18  4  1  0  0  0  0
 37 23  1  0  0  0  0
 51 42  1  0  0  0  0
 64 55  1  0  0  0  0
 82 68  1  0  0  0  0
101 87  1  0  0  0  0
 16  7  1  0  0  0  0
 35 26  1  0  0  0  0
 80 71  1  0  0  0  0
 99 90  1  0  0  0  0
  1103  1  0  0  0  0
  8104  1  0  0  0  0
  9105  1  0  0  0  0
 14106  1  0  0  0  0
 14107  1  0  0  0  0
 15108  1  0  0  0  0
 15109  1  0  0  0  0
 15110  1  0  0  0  0
 27111  1  0  0  0  0
 28112  1  0  0  0  0
 33113  1  0  0  0  0
 33114  1  0  0  0  0
 34115  1  0  0  0  0
 34116  1  0  0  0  0
 34117  1  0  0  0  0
 44118  1  0  0  0  0
 47119  1  0  0  0  0
 47120  1  0  0  0  0
 47121  1  0  0  0  0
 50122  1  0  0  0  0
 50123  1  0  0  0  0
 50124  1  0  0  0  0
 51125  1  0  0  0  0
 57126  1  0  0  0  0
 60127  1  0  0  0  0
 60128  1  0  0  0  0
 60129  1  0  0  0  0
 63130  1  0  0  0  0
 63131  1  0  0  0  0
 63132  1  0  0  0  0
 64133  1  0  0  0  0
 72134  1  0  0  0  0
 73135  1  0  0  0  0
 78136  1  0  0  0  0
 78137  1  0  0  0  0
 79138  1  0  0  0  0
 79139  1  0  0  0  0
 79140  1  0  0  0  0
 86141  1  0  0  0  0
 91142  1  0  0  0  0
 92143  1  0  0  0  0
 97144  1  0  0  0  0
 97145  1  0  0  0  0
 98146  1  0  0  0  0
 98147  1  0  0  0  0
 98148  1  0  0  0  0
M  END
