188

C         11.12060       -4.70110        2.25540
S          9.75050       -4.14850        3.11650
C          8.65610       -4.72680        1.89620
C          9.35900       -5.36070        0.87640
C         10.77640       -5.32460        1.07990
C         11.64060       -5.90930        0.11870
C         11.11570       -6.52870       -0.97520
O         11.82910       -7.11690       -1.97100
C         13.23080       -7.09570       -1.88180
C          9.68370       -6.62590       -1.14350
O          9.30110       -7.31340       -2.25300
C          7.92670       -7.50110       -2.47520
C          8.83630       -6.06310       -0.23580
C          7.25080       -4.51890        2.01930
S          6.46250       -4.67590        3.55590
C          4.90080       -4.31960        2.89540
C          4.98760       -4.10770        1.52270
C          6.32870       -4.18380        1.03130
C          6.60180       -3.84980       -0.31750
C          5.57730       -3.56270       -1.16950
O          5.71020       -3.22330       -2.48070
C          7.00730       -3.11420       -3.00780
C          4.21250       -3.62510       -0.71020
O          3.28970       -3.39370       -1.68410
C          1.93120       -3.38820       -1.32740
C          3.93450       -3.88090        0.59980
C          3.75620       -4.22090        3.77020
C          2.72050       -3.33510        3.48560
C          1.59520       -3.21030        4.29260
C          1.48620       -4.02960        5.42890
C          2.54430       -4.88480        5.74560
C          3.65960       -4.97680        4.94430
N          0.33160       -4.03340        6.22460
C         -0.92690       -4.06420        5.62030
C         -2.01740       -3.42580        6.21190
C         -3.24720       -3.42090        5.58460
C         -3.41320       -4.04440        4.35940
C         -2.33740       -4.68950        3.77250
C         -1.10570       -4.70690        4.39580
C          0.46400       -4.07140        7.61540
C         -0.41940       -4.81210        8.40050
C         -0.27600       -4.83580        9.77400
C          0.75000       -4.13430       10.38610
C          1.63560       -3.40430        9.61010
C          1.49580       -3.36700        8.23670
C          0.61400       -2.22100        3.86820
C         -0.11980       -1.38910        4.61360
C         -1.00730       -0.40790        4.00820
C         -0.73760        0.10830        2.74760
C         -1.60070        0.96190        2.06690
C         -2.77010        1.38360        2.72320
C         -3.01410        0.91950        4.01940
C         -2.16500        0.03640        4.64970
N         -3.66750        2.28670        2.13660
C         -3.19110        3.42350        1.47670
C         -3.91880        3.99110        0.43060
C         -3.44250        5.11280       -0.21860
C         -2.23110        5.67600        0.14540
C         -1.50280        5.11420        1.18040
C         -1.97890        4.00380        1.84870
C         -5.03460        2.13240        2.39590
C         -5.59010        0.85280        2.43950
C         -6.92360        0.68180        2.75420
C         -7.73000        1.77840        3.01240
C         -7.19110        3.05210        2.94270
C         -5.85490        3.23270        2.64370
C         -1.18750        1.27710        0.70740
C         -1.93320        1.37840       -0.39890
C         -1.34890        1.42600       -1.72840
C         -2.09920        1.01330       -2.82640
C         -1.54880        0.87710       -4.09610
C         -0.18040        1.14420       -4.26990
C          0.55730        1.63470       -3.19190
C         -0.01310        1.78240       -1.94990
N          0.45610        0.92820       -5.50100
C         -0.14120        1.37810       -6.68150
C         -0.04680        0.64010       -7.86150
C         -0.67120        1.08550       -9.00930
C         -1.40280        2.26250       -9.00150
C         -1.49180        3.00370       -7.83540
C         -0.85870        2.57330       -6.68650
C          1.71610        0.32100       -5.51300
C          2.03810       -0.65070       -4.56350
C          3.28590       -1.24400       -4.56020
C          4.22620       -0.88750       -5.51360
C          3.91290        0.07120       -6.46270
C          2.67230        0.67900       -6.46280
C         -2.36100        0.38010       -5.20840
C         -3.60070        0.76790       -5.52060
C         -4.37400        1.82080       -4.87280
C         -5.75730        1.69180       -4.77990
C         -6.54390        2.61880       -4.10750
C         -5.91480        3.71950       -3.49870
C         -4.54320        3.89900       -3.66610
C         -3.78650        2.97180       -4.34540
N         -6.64850        4.60890       -2.69910
C         -6.36530        5.97630       -2.75300
C         -6.35980        6.75840       -1.59740
C         -6.07100        8.10720       -1.67240
C         -5.77800        8.69720       -2.89110
C         -5.77730        7.92420       -4.04090
C         -6.07030        6.57610       -3.97780
C         -7.52950        4.09590       -1.74160
C         -7.28820        2.85560       -1.15060
C         -8.18080        2.33270       -0.23720
C         -9.31560        3.04140        0.11850
C         -9.55420        4.27980       -0.45370
C         -8.67530        4.80440       -1.38050
C         -7.99900        2.47760       -4.06560
C         -8.65170        1.32470       -4.03310
H         12.10020       -4.54080        2.65850
H         12.70340       -5.85040        0.28670
H         13.59100       -7.60990       -2.77130
H         13.61770       -6.07100       -1.87280
H         13.58490       -7.62270       -0.98950
H          7.46060       -8.06550       -1.66090
H          7.85290       -8.07150       -3.39960
H          7.39970       -6.54790       -2.59510
H          7.76730       -6.15380       -0.33020
H          7.62960       -3.81020       -0.63680
H          7.58550       -2.33790       -2.49580
H          7.55250       -4.06270       -2.94820
H          6.87880       -2.83970       -4.05330
H          1.38490       -3.18740       -2.24760
H          1.71040       -2.60210       -0.59740
H          1.61540       -4.35580       -0.92340
H          2.91790       -3.94430        0.94780
H          2.81640       -2.66800        2.64280
H          2.46660       -5.49970        6.63070
H          4.45630       -5.65840        5.20330
H         -1.89050       -2.92560        7.16130
H         -4.08060       -2.91540        6.05040
H         -4.37380       -4.02970        3.86730
H         -2.45980       -5.18940        2.82260
H         -0.27160       -5.21820        3.93760
H         -1.21160       -5.37180        7.92510
H         -0.96570       -5.41510       10.37040
H          0.85970       -4.15820       11.45960
H          2.43750       -2.85270       10.07830
H          2.18270       -2.79160        7.63300
H          0.53840       -2.13420        2.79110
H         -0.09410       -1.42650        5.69330
H          0.17930       -0.17200        2.25060
H         -3.89730        1.26940        4.53450
H         -2.39650       -0.31730        5.64330
H         -4.86010        3.55150        0.13390
H         -4.02310        5.55460       -1.01450
H         -1.86150        6.54910       -0.37090
H         -0.56150        5.55170        1.47990
H         -1.41640        3.58340        2.66950
H         -4.96250       -0.00360        2.23860
H         -7.33720       -0.31580        2.79390
H         -8.77070        1.64100        3.26290
H         -7.81300        3.91320        3.13750
H         -5.43410        4.22710        2.61730
H         -0.11110        1.27200        0.58870
H         -3.01120        1.31090       -0.35170
H         -3.13600        0.74430       -2.68490
H          1.59630        1.88860       -3.34640
H          0.58170        2.18460       -1.14470
H          0.50930       -0.28630       -7.86600
H         -0.59540        0.50300       -9.91600
H         -1.89660        2.60050       -9.89980
H         -2.05060        3.92780       -7.82090
H         -0.90550        3.16310       -5.78300
H          1.30040       -0.93290       -3.82600
H          3.52750       -1.98850       -3.81610
H          5.19950       -1.35410       -5.51480
H          4.64400        0.35910       -7.20450
H          2.43940        1.43980       -7.19360
H         -1.89650       -0.39520       -5.80550
H         -4.11490        0.24880       -6.32030
H         -6.23900        0.84450       -5.24640
H         -4.06640        4.76830       -3.23860
H         -2.72780        3.13480       -4.45760
H         -6.57410        6.30060       -0.64260
H         -6.06440        8.69920       -0.76900
H         -5.55060        9.75100       -2.94420
H         -5.55370        8.37610       -4.99610
H         -6.07390        5.97490       -4.87550
H         -6.40170        2.29980       -1.41950
H         -7.98180        1.36930        0.20670
H        -10.01010        2.63050        0.83480
H        -10.43970        4.83820       -0.18680
H         -8.87630        5.76130       -1.84020
H         -8.55560        3.40650       -4.06750
H         -8.13970        0.37790       -3.99190
H         -9.72720        1.28560       -4.02500
