170

C          6.81150       -7.22110       10.93280
S          6.44950       -5.77970       10.08920
C          6.21370       -6.62820        8.59080
C          6.37600       -7.99870        8.77760
C          6.73780       -8.33010       10.12300
C          6.95890       -9.68500       10.47970
C          6.79050      -10.66570        9.54880
O          6.97530      -11.99460        9.75520
C          7.37200      -12.41850       11.03480
C          6.35450      -10.33610        8.21080
O          6.17720      -11.41540        7.40540
C          5.70340      -11.20080        6.09990
C          6.14930       -9.03810        7.84500
C          5.89690       -5.92280        7.39470
S          4.79350       -4.58880        7.41560
C          4.86640       -4.39010        5.69180
C          5.76650       -5.29830        5.12650
C          6.35810       -6.15970        6.09890
C          7.36750       -7.07090        5.71110
C          7.72800       -7.17270        4.39890
O          8.67220       -8.01550        3.90650
C          9.37750       -8.82500        4.81320
C          7.11100       -6.32600        3.40930
O          7.56290       -6.52340        2.14850
C          7.02590       -5.73460        1.11410
C          6.17430       -5.40070        3.77800
C          4.05290       -3.40930        5.06710
C          3.60780       -3.35810        3.77440
C          2.81340       -2.22610        3.48650
C          2.20150       -1.88830        2.26470
C          2.47090       -2.64290        1.05450
S          1.19400       -3.20440        0.01850
C          2.30780       -3.89880       -1.11160
C          1.82280       -4.53870       -2.36530
C          1.32250       -3.48440       -3.35540
C          3.59020       -3.69700       -0.69740
Cl         4.97850       -4.23670       -1.55550
C          3.68630       -2.98710        0.52890
Cl         5.19450       -2.52260        1.20620
C          1.36280       -0.78310        2.26280
C          1.15920        0.03210        3.40180
C          1.78720       -0.29530        4.61940
C          1.54500        0.49370        5.81460
S          2.84740        1.13520        6.76940
C          1.76200        1.88670        7.88820
C          2.26800        2.71480        9.01710
C          2.49480        4.16250        8.57550
C          0.46910        1.64860        7.52800
C          0.34270        0.85380        6.35870
Cl        -1.18020        0.32960        5.76000
Cl        -0.89350        2.23490        8.39580
C          2.61030       -1.41140        4.62730
S          3.45690       -2.04700        6.00880
C          0.32730        1.14110        3.12240
C         -0.15220        1.16440        1.84200
S          0.48000       -0.17760        0.89320
C         -1.05460        2.06290        1.21410
S         -1.10970        2.10240       -0.51710
C         -2.37830        3.28650       -0.54190
C         -2.74390        3.63840        0.76110
C         -2.00060        2.93620        1.75980
C         -2.31330        3.13490        3.12210
C         -3.29390        4.01600        3.48500
O         -3.67490        4.28360        4.75500
C         -3.01370        3.62110        5.80610
C         -4.02090        4.74650        2.47830
O         -4.96560        5.58530        2.96200
C         -5.75740        6.29880        2.04240
C         -3.74550        4.55050        1.15410
C         -2.89780        3.67670       -1.80160
C         -2.50310        3.17430       -3.01490
C         -3.23770        3.66640       -4.11330
C         -3.07030        3.36700       -5.47940
C         -2.06710        2.41760       -5.92920
S         -1.95290        0.83030       -5.22180
C         -0.64690        0.36870       -6.26000
C         -0.04530       -0.99060       -6.17930
C         -0.97100       -2.04340       -6.79170
C         -0.33720        1.38960       -7.10660
Cl         0.90160        1.31200       -8.29300
C         -1.13240        2.55250       -6.91870
Cl        -0.84360        3.99550       -7.79760
C         -3.92390        4.00530       -6.36800
C         -4.91880        4.93180       -5.96880
C         -5.07720        5.23930       -4.60390
C         -6.06990        6.19870       -4.15070
S         -6.13900        7.80000       -4.82960
C         -7.43010        8.27860       -3.78150
C         -8.05280        9.62680       -3.88680
C         -9.11870        9.64940       -4.98510
C         -7.78280        7.24480       -2.96760
C         -7.01450        6.06700       -3.17060
Cl        -7.33780        4.61530       -2.31780
Cl        -9.02940        7.33520       -1.79070
C         -4.22970        4.59570       -3.71340
S         -4.19840        4.83740       -1.99100
C         -5.67790        5.39720       -7.06540
C         -5.30080        4.87130       -8.27230
S         -3.97310        3.74150       -8.08500
C         -5.87620        5.15950       -9.53850
S         -7.32060        6.12980       -9.59970
C         -7.39550        6.04510      -11.30270
C         -6.36010        5.31240      -11.83340
C         -5.47950        4.79890      -10.82610
C         -4.35430        4.04400      -11.22270
C         -4.12040        3.80190      -12.54630
O         -3.07150        3.09940      -13.03480
C         -2.13320        2.58000      -12.12290
C         -5.01920        4.30660      -13.55900
O         -4.66260        3.98040      -14.82620
C         -5.47200        4.43470      -15.88140
C         -6.10800        5.04440      -13.20270
H          7.05570       -7.17860       11.97510
H          7.25060       -9.90430       11.49360
H          7.45820      -13.50200       10.97290
H          8.34070      -11.99240       11.31690
H          6.62730      -12.15630       11.79360
H          6.39320      -10.58430        5.51300
H          5.62980      -12.18830        5.64760
H          4.71620      -10.72720        6.10300
H          5.79590       -8.77940        6.86110
H          7.85230       -7.65390        6.47570
H          9.93590       -8.22400        5.53830
H         10.07450       -9.40420        4.21010
H          8.71130       -9.50740        5.35280
H          7.24390       -4.67260        1.26160
H          7.50820       -6.07780        0.20060
H          5.94340       -5.87160        1.02550
H          5.76840       -4.71530        3.05650
H          3.77600       -4.14320        3.06290
H          2.64310       -5.10520       -2.80880
H          1.00850       -5.22760       -2.13160
H          0.96780       -3.96380       -4.26390
H          2.12590       -2.79830       -3.61270
H          0.50620       -2.91630       -2.91500
H          1.53620        2.69060        9.82660
H          3.20680        2.29400        9.38010
H          1.56350        4.60000        8.22510
H          3.22270        4.20050        7.76870
H          2.86520        4.75340        9.40860
H          0.14440        1.91970        3.83700
H         -1.79500        2.55750        3.86540
H         -3.14970        2.53710        5.74930
H         -3.46820        3.99380        6.72220
H         -1.94320        3.85070        5.81400
H         -6.31440        5.62510        1.38390
H         -6.45620        6.87740        2.64390
H         -5.15210        6.97790        1.43330
H         -4.29300        5.08200        0.39640
H         -1.70590        2.45880       -3.10130
H          0.90660       -0.98050       -6.71270
H          0.14320       -1.24140       -5.13350
H         -1.92040       -2.06280       -6.26220
H         -0.51370       -3.02690       -6.72630
H         -1.16080       -1.81680       -7.83790
H         -7.28280       10.36650       -4.11240
H         -8.50970        9.87690       -2.92760
H         -9.56830       10.63660       -5.04910
H         -8.67450        9.40410       -5.94690
H         -9.89880        8.92440       -4.76730
H         -6.48460        6.10200       -6.97560
H         -8.19230        6.53680      -11.82380
H         -3.68060        3.67200      -10.47180
H         -1.65010        3.37490      -11.54620
H         -1.38760        2.06830      -12.72890
H         -2.59530        1.86610      -11.43360
H         -5.00360        4.06560      -16.79220
H         -5.51470        5.52850      -15.91250
H         -6.48900        4.03510      -15.80810
H         -6.79360        5.44120      -13.93340
