96

C          2.18280        8.55210        9.20670
S          3.14960        7.47350        8.26760
C          1.81990        7.18820        7.16900
C          0.71780        7.90680        7.53600
C          0.93630        8.68460        8.69510
N          2.00210        6.30100        6.13800
C          1.39620        6.31530        4.90150
C          0.61840        7.28410        4.38980
C          0.00510        7.21390        3.10350
S          0.18190        5.81140        2.06540
C         -0.79540        6.55640        0.83110
C         -1.22410        7.79960        1.21220
C         -0.77040        8.16290        2.49210
N         -1.06790        5.91660       -0.34610
C         -0.59540        4.68770       -0.71500
C         -0.95880        4.06310       -1.85040
C         -0.46780        2.78410       -2.25070
S         -1.20980        1.96860       -3.61510
C         -0.15930        0.59280       -3.41840
C          0.70740        0.77530       -2.37400
C          0.53000        2.00710       -1.72290
N         -0.29380       -0.47770       -4.26420
C          0.34200       -1.67320       -4.09590
C          0.15230       -2.77120       -4.85070
C          0.82070       -4.00030       -4.56790
S          2.10990       -4.04390       -3.38770
C          2.15430       -5.78350       -3.44250
C          1.30310       -6.27040       -4.39840
C          0.55260       -5.26210       -5.03060
N          3.01390       -6.50970       -2.65640
C          3.64970       -6.08290       -1.51120
C          3.23220       -5.16060       -0.61960
C          1.95520       -4.52270       -0.51340
S          0.46800       -5.34130       -0.86940
C         -0.51570       -3.96480       -0.45230
C          0.30220       -2.90580       -0.03900
C          1.69170       -3.23170       -0.06130
C          2.65140       -2.25860        0.30180
C          2.24950       -1.01610        0.69710
O          3.07310        0.00040        1.07380
C          4.45720       -0.23580        1.07280
C          0.84940       -0.68320        0.72200
O          0.58390        0.58300        1.13760
C         -0.75960        0.98600        1.22830
C         -0.08740       -1.60280        0.34440
C         -1.93050       -4.06010       -0.47220
S         -2.90310       -2.99300        0.50830
C         -4.35960       -3.77640        0.07670
C         -4.14150       -4.81920       -0.78960
C         -2.75660       -4.98640       -1.11830
C         -2.39570       -5.99620       -2.03880
C         -3.34950       -6.82430       -2.55810
O         -3.11920       -7.83340       -3.43940
C         -1.79730       -8.05270       -3.86160
C         -4.73690       -6.67880       -2.19140
O         -5.56490       -7.58480       -2.77610
C         -6.93320       -7.52450       -2.46540
C         -5.11790       -5.68840       -1.33860
H          2.60880        9.00930       10.07630
H         -0.22720        7.84930        7.02970
H          0.17980        9.30920        9.13590
H          2.78060        5.66840        6.24370
H          1.60160        5.42810        4.31710
H          0.44060        8.19770        4.93620
H         -1.84180        8.42620        0.59370
H         -1.00680        9.10410        2.95590
H         -1.69700        6.38830       -0.98120
H          0.10140        4.24440       -0.02040
H         -1.68070        4.52900       -2.50820
H          1.44880        0.05880       -2.07290
H          1.12870        2.30630       -0.88280
H         -0.98720       -0.40780       -4.99510
H          1.03760       -1.70300       -3.27120
H         -0.55980       -2.77570       -5.66420
H          1.19950       -7.31990       -4.61240
H         -0.19350       -5.45920       -5.78050
H          3.30440       -7.39970       -3.03370
H          4.60960       -6.55850       -1.35280
H          3.95210       -4.86200        0.13110
H          3.69420       -2.52480        0.25230
H          4.91570        0.69360        1.40700
H          4.72860       -1.04250        1.76220
H          4.82370       -0.48040        0.06980
H         -1.32560        0.34300        1.91020
H         -1.24450        0.99040        0.24690
H         -0.73700        2.00150        1.62100
H         -1.12960       -1.33890        0.32430
H         -5.28860       -3.42640        0.47900
H         -1.36520       -6.09270       -2.33330
H         -1.84340       -8.90080       -4.54320
H         -1.14090       -8.29540       -3.01890
H         -1.39660       -7.18060       -4.38640
H         -7.37520       -6.57130       -2.77550
H         -7.39860       -8.33600       -3.02220
H         -7.10880       -7.67120       -1.39410
H         -6.14740       -5.53780       -1.05720
