
  xtb     03032206583D
 energy: -213.135612678492 gnorm: 0.000281995650 xtb: 6.4.1 (unknown)
148159  0     0  0            999 V2000
    6.7141    0.1693   -1.5053 C   0  0  0  0  0  0  0  0  0  0  0  0
    5.3257   -0.4576   -0.7121 S   0  0  0  0  0  0  0  0  0  0  0  0
    4.4558    1.0322   -0.9766 C   0  0  0  0  0  0  0  0  0  0  0  0
    5.2433    1.9415   -1.6520 C   0  0  0  0  0  0  0  0  0  0  0  0
    6.5362    1.4467   -1.9444 C   0  0  0  0  0  0  0  0  0  0  0  0
    7.5676    2.2415   -2.6936 C   0  0  0  0  0  0  0  0  0  0  0  0
    8.9619    2.0876   -2.1483 C   0  0  0  0  0  0  0  0  0  0  0  0
    9.2606    1.9283   -0.8727 C   0  0  0  0  0  0  0  0  0  0  0  0
    7.1829    3.7303   -2.6859 C   0  0  0  0  0  0  0  0  0  0  0  0
    5.7261    3.9064   -3.0958 C   0  0  0  0  0  0  0  0  0  0  0  0
    4.8032    3.3205   -2.0311 C   0  0  0  0  0  0  0  0  0  0  0  0
    3.1385    1.2276   -0.4845 C   0  0  0  0  0  0  0  0  0  0  0  0
    2.3739    0.2764    0.1008 C   0  0  0  0  0  0  0  0  0  0  0  0
    1.0971    0.5129    0.6605 C   0  0  0  0  0  0  0  0  0  0  0  0
    0.4282    2.1099    0.7572 S   0  0  0  0  0  0  0  0  0  0  0  0
   -1.0222    1.5759    1.5526 C   0  0  0  0  0  0  0  0  0  0  0  0
   -0.9805    0.1851    1.7318 C   0  0  0  0  0  0  0  0  0  0  0  0
    0.2129   -0.4105    1.2254 C   0  0  0  0  0  0  0  0  0  0  0  0
    0.3970   -1.8075    1.3035 C   0  0  0  0  0  0  0  0  0  0  0  0
   -0.5732   -2.5942    1.8541 C   0  0  0  0  0  0  0  0  0  0  0  0
   -0.5155   -3.9494    1.9769 O   0  0  0  0  0  0  0  0  0  0  0  0
    0.6891   -4.5841    1.6349 C   0  0  0  0  0  0  0  0  0  0  0  0
   -1.7767   -2.0002    2.3638 C   0  0  0  0  0  0  0  0  0  0  0  0
   -2.6562   -2.8846    2.9077 O   0  0  0  0  0  0  0  0  0  0  0  0
   -3.8017   -2.3692    3.5379 C   0  0  0  0  0  0  0  0  0  0  0  0
   -1.9669   -0.6503    2.2989 C   0  0  0  0  0  0  0  0  0  0  0  0
   -2.0611    2.4946    1.8726 C   0  0  0  0  0  0  0  0  0  0  0  0
   -3.2530    2.0967    3.0934 S   0  0  0  0  0  0  0  0  0  0  0  0
   -4.2140    3.4927    2.6941 C   0  0  0  0  0  0  0  0  0  0  0  0
   -3.5649    4.2837    1.7832 C   0  0  0  0  0  0  0  0  0  0  0  0
   -2.3537    3.7271    1.3122 C   0  0  0  0  0  0  0  0  0  0  0  0
   -1.5274    4.4132    0.2687 C   0  0  0  0  0  0  0  0  0  0  0  0
   -0.3193    5.0949    0.8583 C   0  0  0  0  0  0  0  0  0  0  0  0
   -0.1297    5.3532    2.1385 C   0  0  0  0  0  0  0  0  0  0  0  0
   -2.3753    5.4430   -0.4960 C   0  0  0  0  0  0  0  0  0  0  0  0
   -3.1081    6.3543    0.4796 C   0  0  0  0  0  0  0  0  0  0  0  0
   -4.1548    5.5485    1.2409 C   0  0  0  0  0  0  0  0  0  0  0  0
   -5.5685    3.6282    3.1960 C   0  0  0  0  0  0  0  0  0  0  0  0
   -6.5255    2.7051    2.9983 C   0  0  0  0  0  0  0  0  0  0  0  0
   -6.3641    1.5126    2.2100 C   0  0  0  0  0  0  0  0  0  0  0  0
   -5.2754    1.4649    0.8608 S   0  0  0  0  0  0  0  0  0  0  0  0
   -5.4728   -0.2596    0.6802 C   0  0  0  0  0  0  0  0  0  0  0  0
   -6.4482   -0.7305    1.5451 C   0  0  0  0  0  0  0  0  0  0  0  0
   -6.9571    0.2788    2.3915 C   0  0  0  0  0  0  0  0  0  0  0  0
   -7.9551    0.0133    3.4829 C   0  0  0  0  0  0  0  0  0  0  0  0
   -7.2455    0.0120    4.8096 C   0  0  0  0  0  0  0  0  0  0  0  0
   -7.6110    0.7403    5.8468 C   0  0  0  0  0  0  0  0  0  0  0  0
   -8.6780   -1.3178    3.2309 C   0  0  0  0  0  0  0  0  0  0  0  0
   -7.6915   -2.4300    2.8999 C   0  0  0  0  0  0  0  0  0  0  0  0
   -6.9665   -2.1357    1.5883 C   0  0  0  0  0  0  0  0  0  0  0  0
   -4.4680   -0.8543   -0.1312 C   0  0  0  0  0  0  0  0  0  0  0  0
   -4.1146   -2.1497   -0.2893 C   0  0  0  0  0  0  0  0  0  0  0  0
   -2.8766   -2.5152   -0.8860 C   0  0  0  0  0  0  0  0  0  0  0  0
   -1.7405   -1.2901   -1.3769 S   0  0  0  0  0  0  0  0  0  0  0  0
   -0.5698   -2.4872   -1.8529 C   0  0  0  0  0  0  0  0  0  0  0  0
   -1.0698   -3.7663   -1.6696 C   0  0  0  0  0  0  0  0  0  0  0  0
   -2.3588   -3.7817   -1.1030 C   0  0  0  0  0  0  0  0  0  0  0  0
   -3.1115   -5.0486   -0.7930 C   0  0  0  0  0  0  0  0  0  0  0  0
   -3.6147   -5.0720    0.6236 C   0  0  0  0  0  0  0  0  0  0  0  0
   -4.8208   -5.4822    0.9713 C   0  0  0  0  0  0  0  0  0  0  0  0
   -2.2108   -6.2761   -0.9994 C   0  0  0  0  0  0  0  0  0  0  0  0
   -1.4017   -6.1453   -2.2824 C   0  0  0  0  0  0  0  0  0  0  0  0
   -0.3850   -5.0189   -2.1226 C   0  0  0  0  0  0  0  0  0  0  0  0
    0.6720   -2.0119   -2.3573 C   0  0  0  0  0  0  0  0  0  0  0  0
    1.8275   -2.7053   -2.4607 C   0  0  0  0  0  0  0  0  0  0  0  0
    3.0247   -2.1793   -3.0194 C   0  0  0  0  0  0  0  0  0  0  0  0
    3.0707   -0.6142   -3.7799 S   0  0  0  0  0  0  0  0  0  0  0  0
    4.7471   -0.8161   -4.2017 C   0  0  0  0  0  0  0  0  0  0  0  0
    5.2331   -2.0239   -3.7447 C   0  0  0  0  0  0  0  0  0  0  0  0
    4.2581   -2.8017   -3.0921 C   0  0  0  0  0  0  0  0  0  0  0  0
    4.5334   -4.1595   -2.5074 C   0  0  0  0  0  0  0  0  0  0  0  0
    4.4668   -4.0925   -1.0058 C   0  0  0  0  0  0  0  0  0  0  0  0
    3.7957   -4.9465   -0.2563 C   0  0  0  0  0  0  0  0  0  0  0  0
    5.9080   -4.6785   -2.9613 C   0  0  0  0  0  0  0  0  0  0  0  0
    6.9652   -3.5835   -2.9016 C   0  0  0  0  0  0  0  0  0  0  0  0
    6.6419   -2.4978   -3.9236 C   0  0  0  0  0  0  0  0  0  0  0  0
    5.4478    0.1684   -4.9722 C   0  0  0  0  0  0  0  0  0  0  0  0
    4.9102    1.2864   -5.4571 C   0  0  0  0  0  0  0  0  0  0  0  0
    7.5930   -0.4387   -1.5869 H   0  0  0  0  0  0  0  0  0  0  0  0
    7.5607    1.8971   -3.7364 H   0  0  0  0  0  0  0  0  0  0  0  0
    9.7538    2.1777   -2.8810 H   0  0  0  0  0  0  0  0  0  0  0  0
    8.4977    1.8472   -0.1163 H   0  0  0  0  0  0  0  0  0  0  0  0
   10.2798    1.8632   -0.5315 H   0  0  0  0  0  0  0  0  0  0  0  0
    7.8399    4.2751   -3.3670 H   0  0  0  0  0  0  0  0  0  0  0  0
    7.3325    4.1319   -1.6808 H   0  0  0  0  0  0  0  0  0  0  0  0
    5.5533    3.3934   -4.0441 H   0  0  0  0  0  0  0  0  0  0  0  0
    5.5000    4.9656   -3.2345 H   0  0  0  0  0  0  0  0  0  0  0  0
    3.7749    3.2971   -2.3985 H   0  0  0  0  0  0  0  0  0  0  0  0
    4.8206    3.9583   -1.1399 H   0  0  0  0  0  0  0  0  0  0  0  0
    2.7415    2.2301   -0.5771 H   0  0  0  0  0  0  0  0  0  0  0  0
    2.7533   -0.7351    0.1651 H   0  0  0  0  0  0  0  0  0  0  0  0
    1.3045   -2.2307    0.9060 H   0  0  0  0  0  0  0  0  0  0  0  0
    0.9423   -4.4293    0.5815 H   0  0  0  0  0  0  0  0  0  0  0  0
    0.5307   -5.6453    1.8223 H   0  0  0  0  0  0  0  0  0  0  0  0
    1.5175   -4.2251    2.2549 H   0  0  0  0  0  0  0  0  0  0  0  0
   -4.3457   -3.2369    3.9086 H   0  0  0  0  0  0  0  0  0  0  0  0
   -4.4299   -1.8120    2.8378 H   0  0  0  0  0  0  0  0  0  0  0  0
   -3.5343   -1.7178    4.3773 H   0  0  0  0  0  0  0  0  0  0  0  0
   -2.8760   -0.2142    2.6695 H   0  0  0  0  0  0  0  0  0  0  0  0
   -1.1678    3.6679   -0.4522 H   0  0  0  0  0  0  0  0  0  0  0  0
    0.4130    5.4113    0.1264 H   0  0  0  0  0  0  0  0  0  0  0  0
    0.7503    5.8659    2.4886 H   0  0  0  0  0  0  0  0  0  0  0  0
   -0.8378    5.0542    2.8936 H   0  0  0  0  0  0  0  0  0  0  0  0
   -1.7243    6.0283   -1.1482 H   0  0  0  0  0  0  0  0  0  0  0  0
   -3.1025    4.9194   -1.1202 H   0  0  0  0  0  0  0  0  0  0  0  0
   -2.3875    6.7822    1.1799 H   0  0  0  0  0  0  0  0  0  0  0  0
   -3.5912    7.1744   -0.0549 H   0  0  0  0  0  0  0  0  0  0  0  0
   -4.5783    6.1392    2.0572 H   0  0  0  0  0  0  0  0  0  0  0  0
   -4.9794    5.2881    0.5685 H   0  0  0  0  0  0  0  0  0  0  0  0
   -5.8046    4.5320    3.7439 H   0  0  0  0  0  0  0  0  0  0  0  0
   -7.4924    2.8402    3.4648 H   0  0  0  0  0  0  0  0  0  0  0  0
   -8.7013    0.8163    3.4948 H   0  0  0  0  0  0  0  0  0  0  0  0
   -6.3783   -0.6314    4.8742 H   0  0  0  0  0  0  0  0  0  0  0  0
   -8.4654    1.3969    5.8089 H   0  0  0  0  0  0  0  0  0  0  0  0
   -7.0755    0.7131    6.7805 H   0  0  0  0  0  0  0  0  0  0  0  0
   -9.3698   -1.1922    2.3943 H   0  0  0  0  0  0  0  0  0  0  0  0
   -9.2611   -1.5792    4.1163 H   0  0  0  0  0  0  0  0  0  0  0  0
   -8.2208   -3.3812    2.8129 H   0  0  0  0  0  0  0  0  0  0  0  0
   -6.9651   -2.5274    3.7082 H   0  0  0  0  0  0  0  0  0  0  0  0
   -7.6595   -2.2710    0.7503 H   0  0  0  0  0  0  0  0  0  0  0  0
   -6.1549   -2.8514    1.4542 H   0  0  0  0  0  0  0  0  0  0  0  0
   -3.8049   -0.1204   -0.5786 H   0  0  0  0  0  0  0  0  0  0  0  0
   -4.7171   -2.9621    0.0813 H   0  0  0  0  0  0  0  0  0  0  0  0
   -3.9650   -5.1211   -1.4808 H   0  0  0  0  0  0  0  0  0  0  0  0
   -2.8999   -4.7580    1.3717 H   0  0  0  0  0  0  0  0  0  0  0  0
   -5.1338   -5.5222    2.0013 H   0  0  0  0  0  0  0  0  0  0  0  0
   -5.5508   -5.7976    0.2412 H   0  0  0  0  0  0  0  0  0  0  0  0
   -1.5289   -6.3644   -0.1505 H   0  0  0  0  0  0  0  0  0  0  0  0
   -2.8339   -7.1720   -1.0234 H   0  0  0  0  0  0  0  0  0  0  0  0
   -2.0699   -5.9238   -3.1176 H   0  0  0  0  0  0  0  0  0  0  0  0
   -0.8842   -7.0813   -2.5018 H   0  0  0  0  0  0  0  0  0  0  0  0
    0.1302   -4.8283   -3.0679 H   0  0  0  0  0  0  0  0  0  0  0  0
    0.3683   -5.3266   -1.3897 H   0  0  0  0  0  0  0  0  0  0  0  0
    0.6788   -0.9681   -2.6483 H   0  0  0  0  0  0  0  0  0  0  0  0
    1.8948   -3.7176   -2.0955 H   0  0  0  0  0  0  0  0  0  0  0  0
    3.7703   -4.8664   -2.8556 H   0  0  0  0  0  0  0  0  0  0  0  0
    5.0193   -3.2828   -0.5501 H   0  0  0  0  0  0  0  0  0  0  0  0
    3.2357   -5.7638   -0.6844 H   0  0  0  0  0  0  0  0  0  0  0  0
    3.7853   -4.8793    0.8184 H   0  0  0  0  0  0  0  0  0  0  0  0
    6.1945   -5.5202   -2.3274 H   0  0  0  0  0  0  0  0  0  0  0  0
    5.8308   -5.0413   -3.9893 H   0  0  0  0  0  0  0  0  0  0  0  0
    7.9509   -4.0044   -3.1105 H   0  0  0  0  0  0  0  0  0  0  0  0
    6.9886   -3.1490   -1.9010 H   0  0  0  0  0  0  0  0  0  0  0  0
    7.3371   -1.6624   -3.8187 H   0  0  0  0  0  0  0  0  0  0  0  0
    6.7606   -2.9018   -4.9353 H   0  0  0  0  0  0  0  0  0  0  0  0
    6.4848   -0.0645   -5.1778 H   0  0  0  0  0  0  0  0  0  0  0  0
    3.8777    1.5350   -5.2767 H   0  0  0  0  0  0  0  0  0  0  0  0
    5.4800    1.9717   -6.0604 H   0  0  0  0  0  0  0  0  0  0  0  0
  1  2  1  0  0  0  0
  2  3  1  0  0  0  0
  3  4  2  0  0  0  0
  4  5  1  0  0  0  0
  5  6  1  0  0  0  0
  6  7  1  0  0  0  0
  7  8  2  0  0  0  0
  6  9  1  0  0  0  0
  9 10  1  0  0  0  0
 10 11  1  0  0  0  0
  3 12  1  0  0  0  0
 12 13  2  0  0  0  0
 13 14  1  0  0  0  0
 14 15  1  0  0  0  0
 15 16  1  0  0  0  0
 16 17  2  0  0  0  0
 17 18  1  0  0  0  0
 18 19  1  0  0  0  0
 19 20  2  0  0  0  0
 20 21  1  0  0  0  0
 21 22  1  0  0  0  0
 20 23  1  0  0  0  0
 23 24  1  0  0  0  0
 24 25  1  0  0  0  0
 23 26  2  0  0  0  0
 16 27  1  0  0  0  0
 27 28  1  0  0  0  0
 28 29  1  0  0  0  0
 29 30  2  0  0  0  0
 30 31  1  0  0  0  0
 31 32  1  0  0  0  0
 32 33  1  0  0  0  0
 33 34  2  0  0  0  0
 32 35  1  0  0  0  0
 35 36  1  0  0  0  0
 36 37  1  0  0  0  0
 29 38  1  0  0  0  0
 38 39  2  0  0  0  0
 39 40  1  0  0  0  0
 40 41  1  0  0  0  0
 41 42  1  0  0  0  0
 42 43  2  0  0  0  0
 43 44  1  0  0  0  0
 44 45  1  0  0  0  0
 45 46  1  0  0  0  0
 46 47  2  0  0  0  0
 45 48  1  0  0  0  0
 48 49  1  0  0  0  0
 49 50  1  0  0  0  0
 42 51  1  0  0  0  0
 51 52  2  0  0  0  0
 52 53  1  0  0  0  0
 53 54  1  0  0  0  0
 54 55  1  0  0  0  0
 55 56  2  0  0  0  0
 56 57  1  0  0  0  0
 57 58  1  0  0  0  0
 58 59  1  0  0  0  0
 59 60  2  0  0  0  0
 58 61  1  0  0  0  0
 61 62  1  0  0  0  0
 62 63  1  0  0  0  0
 55 64  1  0  0  0  0
 64 65  2  0  0  0  0
 65 66  1  0  0  0  0
 66 67  1  0  0  0  0
 67 68  1  0  0  0  0
 68 69  2  0  0  0  0
 69 70  1  0  0  0  0
 70 71  1  0  0  0  0
 71 72  1  0  0  0  0
 72 73  2  0  0  0  0
 71 74  1  0  0  0  0
 74 75  1  0  0  0  0
 75 76  1  0  0  0  0
 68 77  1  0  0  0  0
 77 78  2  0  0  0  0
  5  1  2  0  0  0  0
 18 14  2  0  0  0  0
 31 27  2  0  0  0  0
 44 40  2  0  0  0  0
 57 53  2  0  0  0  0
 70 66  2  0  0  0  0
 11  4  1  0  0  0  0
 26 17  1  0  0  0  0
 37 30  1  0  0  0  0
 50 43  1  0  0  0  0
 63 56  1  0  0  0  0
 76 69  1  0  0  0  0
  1 79  1  0  0  0  0
  6 80  1  0  0  0  0
  7 81  1  0  0  0  0
  8 82  1  0  0  0  0
  8 83  1  0  0  0  0
  9 84  1  0  0  0  0
  9 85  1  0  0  0  0
 10 86  1  0  0  0  0
 10 87  1  0  0  0  0
 11 88  1  0  0  0  0
 11 89  1  0  0  0  0
 12 90  1  0  0  0  0
 13 91  1  0  0  0  0
 19 92  1  0  0  0  0
 22 93  1  0  0  0  0
 22 94  1  0  0  0  0
 22 95  1  0  0  0  0
 25 96  1  0  0  0  0
 25 97  1  0  0  0  0
 25 98  1  0  0  0  0
 26 99  1  0  0  0  0
 32100  1  0  0  0  0
 33101  1  0  0  0  0
 34102  1  0  0  0  0
 34103  1  0  0  0  0
 35104  1  0  0  0  0
 35105  1  0  0  0  0
 36106  1  0  0  0  0
 36107  1  0  0  0  0
 37108  1  0  0  0  0
 37109  1  0  0  0  0
 38110  1  0  0  0  0
 39111  1  0  0  0  0
 45112  1  0  0  0  0
 46113  1  0  0  0  0
 47114  1  0  0  0  0
 47115  1  0  0  0  0
 48116  1  0  0  0  0
 48117  1  0  0  0  0
 49118  1  0  0  0  0
 49119  1  0  0  0  0
 50120  1  0  0  0  0
 50121  1  0  0  0  0
 51122  1  0  0  0  0
 52123  1  0  0  0  0
 58124  1  0  0  0  0
 59125  1  0  0  0  0
 60126  1  0  0  0  0
 60127  1  0  0  0  0
 61128  1  0  0  0  0
 61129  1  0  0  0  0
 62130  1  0  0  0  0
 62131  1  0  0  0  0
 63132  1  0  0  0  0
 63133  1  0  0  0  0
 64134  1  0  0  0  0
 65135  1  0  0  0  0
 71136  1  0  0  0  0
 72137  1  0  0  0  0
 73138  1  0  0  0  0
 73139  1  0  0  0  0
 74140  1  0  0  0  0
 74141  1  0  0  0  0
 75142  1  0  0  0  0
 75143  1  0  0  0  0
 76144  1  0  0  0  0
 76145  1  0  0  0  0
 77146  1  0  0  0  0
 78147  1  0  0  0  0
 78148  1  0  0  0  0
M  END
