
  xtb     03042219563D
 energy: -197.548871143484 gnorm: 0.000638546059 xtb: 6.4.1 (unknown)
108115  0     0  0            999 V2000
    1.9610   -0.6362    2.7334 C   0  0  0  0  0  0  0  0  0  0  0  0
    2.7018    0.4966    2.7371 O   0  0  0  0  0  0  0  0  0  0  0  0
    3.6921    0.3514    1.8443 C   0  0  0  0  0  0  0  0  0  0  0  0
    3.5948   -0.9054    1.2443 C   0  0  0  0  0  0  0  0  0  0  0  0
    2.4636   -1.5429    1.8372 C   0  0  0  0  0  0  0  0  0  0  0  0
    2.0773   -2.7896    1.5217 O   0  0  0  0  0  0  0  0  0  0  0  0
    0.9978   -3.3277    2.2530 C   0  0  0  0  0  0  0  0  0  0  0  0
    4.4050   -1.4105    0.2253 C   0  0  0  0  0  0  0  0  0  0  0  0
    5.0656   -1.8033   -0.6276 N   0  0  0  0  0  0  0  0  0  0  0  0
    4.7295    1.3044    1.6381 C   0  0  0  0  0  0  0  0  0  0  0  0
    4.8081    2.5961    2.0455 C   0  0  0  0  0  0  0  0  0  0  0  0
    3.8386    3.4366    2.6452 C   0  0  0  0  0  0  0  0  0  0  0  0
    2.5164    3.1490    2.7707 O   0  0  0  0  0  0  0  0  0  0  0  0
    1.9035    4.1933    3.3441 C   0  0  0  0  0  0  0  0  0  0  0  0
    2.8438    5.2061    3.6148 C   0  0  0  0  0  0  0  0  0  0  0  0
    4.0853    4.7194    3.1476 C   0  0  0  0  0  0  0  0  0  0  0  0
    5.3085    5.2740    3.1402 O   0  0  0  0  0  0  0  0  0  0  0  0
    5.4391    6.5697    3.6874 C   0  0  0  0  0  0  0  0  0  0  0  0
    2.5342    6.4261    4.2229 C   0  0  0  0  0  0  0  0  0  0  0  0
    2.2558    7.4197    4.7280 N   0  0  0  0  0  0  0  0  0  0  0  0
    0.5321    4.2358    3.6950 C   0  0  0  0  0  0  0  0  0  0  0  0
   -0.4643    3.3642    3.3838 C   0  0  0  0  0  0  0  0  0  0  0  0
   -0.4547    2.2757    2.4848 C   0  0  0  0  0  0  0  0  0  0  0  0
    0.4986    2.0773    1.5324 O   0  0  0  0  0  0  0  0  0  0  0  0
    0.2065    0.9520    0.8661 C   0  0  0  0  0  0  0  0  0  0  0  0
   -0.9734    0.3805    1.3855 C   0  0  0  0  0  0  0  0  0  0  0  0
   -1.4079    1.2543    2.4086 C   0  0  0  0  0  0  0  0  0  0  0  0
   -2.4836    1.2019    3.2127 O   0  0  0  0  0  0  0  0  0  0  0  0
   -3.3848    0.1317    3.0199 C   0  0  0  0  0  0  0  0  0  0  0  0
   -1.4699   -0.8653    1.0127 C   0  0  0  0  0  0  0  0  0  0  0  0
   -1.8181   -1.9303    0.7498 N   0  0  0  0  0  0  0  0  0  0  0  0
    0.9767    0.4612   -0.2041 C   0  0  0  0  0  0  0  0  0  0  0  0
    2.0908    1.0568   -0.7175 C   0  0  0  0  0  0  0  0  0  0  0  0
    2.8077    0.4652   -1.7839 C   0  0  0  0  0  0  0  0  0  0  0  0
    2.2995   -0.7085   -2.2734 O   0  0  0  0  0  0  0  0  0  0  0  0
    3.0911   -1.1743   -3.2452 C   0  0  0  0  0  0  0  0  0  0  0  0
    4.1762   -0.3067   -3.4052 C   0  0  0  0  0  0  0  0  0  0  0  0
    3.9851    0.7568   -2.4827 C   0  0  0  0  0  0  0  0  0  0  0  0
    4.8413    1.7846   -2.4291 O   0  0  0  0  0  0  0  0  0  0  0  0
    4.5325    2.9052   -1.6342 C   0  0  0  0  0  0  0  0  0  0  0  0
    5.2222   -0.4415   -4.3236 C   0  0  0  0  0  0  0  0  0  0  0  0
    6.0632   -0.5565   -5.0958 N   0  0  0  0  0  0  0  0  0  0  0  0
    2.8013   -2.3781   -3.9316 C   0  0  0  0  0  0  0  0  0  0  0  0
    1.6214   -3.0646   -3.9723 C   0  0  0  0  0  0  0  0  0  0  0  0
    0.3251   -2.6992   -3.5514 C   0  0  0  0  0  0  0  0  0  0  0  0
   -0.1326   -1.0916   -3.0836 S   0  0  0  0  0  0  0  0  0  0  0  0
   -1.8003   -1.5030   -2.8923 C   0  0  0  0  0  0  0  0  0  0  0  0
   -2.0185   -2.8450   -3.2185 C   0  0  0  0  0  0  0  0  0  0  0  0
   -0.8181   -3.5237   -3.5768 C   0  0  0  0  0  0  0  0  0  0  0  0
   -0.8762   -4.8929   -3.9034 C   0  0  0  0  0  0  0  0  0  0  0  0
   -2.0784   -5.5495   -3.9157 C   0  0  0  0  0  0  0  0  0  0  0  0
   -2.2532   -6.8617   -4.2021 O   0  0  0  0  0  0  0  0  0  0  0  0
   -1.1206   -7.6419   -4.4958 C   0  0  0  0  0  0  0  0  0  0  0  0
   -3.2972   -4.8397   -3.6322 C   0  0  0  0  0  0  0  0  0  0  0  0
   -4.4228   -5.5929   -3.7344 O   0  0  0  0  0  0  0  0  0  0  0  0
   -5.6611   -4.9709   -3.5003 C   0  0  0  0  0  0  0  0  0  0  0  0
   -3.2586   -3.5158   -3.2968 C   0  0  0  0  0  0  0  0  0  0  0  0
   -2.6973   -0.5064   -2.4209 C   0  0  0  0  0  0  0  0  0  0  0  0
   -2.4488    1.1527   -2.8853 S   0  0  0  0  0  0  0  0  0  0  0  0
   -3.7606    1.6950   -1.9341 C   0  0  0  0  0  0  0  0  0  0  0  0
   -4.3640    0.6661   -1.2494 C   0  0  0  0  0  0  0  0  0  0  0  0
   -3.7542   -0.6023   -1.5164 C   0  0  0  0  0  0  0  0  0  0  0  0
   -4.1693   -1.7360   -0.7836 C   0  0  0  0  0  0  0  0  0  0  0  0
   -5.1632   -1.6202    0.1455 C   0  0  0  0  0  0  0  0  0  0  0  0
   -5.5936   -2.6214    0.9525 O   0  0  0  0  0  0  0  0  0  0  0  0
   -4.8766   -3.8338    0.9316 C   0  0  0  0  0  0  0  0  0  0  0  0
   -5.8374   -0.3588    0.3525 C   0  0  0  0  0  0  0  0  0  0  0  0
   -6.8278   -0.4061    1.2809 O   0  0  0  0  0  0  0  0  0  0  0  0
   -7.5247    0.7801    1.5685 C   0  0  0  0  0  0  0  0  0  0  0  0
   -5.4386    0.7536   -0.3274 C   0  0  0  0  0  0  0  0  0  0  0  0
    1.1373   -0.6786    3.4172 H   0  0  0  0  0  0  0  0  0  0  0  0
    1.1829   -3.2698    3.3298 H   0  0  0  0  0  0  0  0  0  0  0  0
    0.0621   -2.8164    2.0122 H   0  0  0  0  0  0  0  0  0  0  0  0
    0.9272   -4.3701    1.9490 H   0  0  0  0  0  0  0  0  0  0  0  0
    5.5740    0.8958    1.0986 H   0  0  0  0  0  0  0  0  0  0  0  0
    5.7451    3.1135    1.8861 H   0  0  0  0  0  0  0  0  0  0  0  0
    4.8277    7.2951    3.1436 H   0  0  0  0  0  0  0  0  0  0  0  0
    6.4913    6.8283    3.5857 H   0  0  0  0  0  0  0  0  0  0  0  0
    5.1572    6.5860    4.7436 H   0  0  0  0  0  0  0  0  0  0  0  0
    0.2824    5.0738    4.3317 H   0  0  0  0  0  0  0  0  0  0  0  0
   -1.4179    3.4920    3.8773 H   0  0  0  0  0  0  0  0  0  0  0  0
   -4.2145    0.3131    3.7002 H   0  0  0  0  0  0  0  0  0  0  0  0
   -2.9201   -0.8283    3.2618 H   0  0  0  0  0  0  0  0  0  0  0  0
   -3.7534    0.0990    1.9906 H   0  0  0  0  0  0  0  0  0  0  0  0
    0.6349   -0.4739   -0.6205 H   0  0  0  0  0  0  0  0  0  0  0  0
    2.4326    1.9872   -0.2958 H   0  0  0  0  0  0  0  0  0  0  0  0
    4.5593    2.6576   -0.5690 H   0  0  0  0  0  0  0  0  0  0  0  0
    3.5540    3.3184   -1.8962 H   0  0  0  0  0  0  0  0  0  0  0  0
    5.3075    3.6380   -1.8546 H   0  0  0  0  0  0  0  0  0  0  0  0
    3.6440   -2.7880   -4.4698 H   0  0  0  0  0  0  0  0  0  0  0  0
    1.6643   -4.0325   -4.4561 H   0  0  0  0  0  0  0  0  0  0  0  0
    0.0363   -5.4134   -4.1410 H   0  0  0  0  0  0  0  0  0  0  0  0
   -1.4952   -8.6493   -4.6689 H   0  0  0  0  0  0  0  0  0  0  0  0
   -0.6097   -7.2860   -5.3964 H   0  0  0  0  0  0  0  0  0  0  0  0
   -0.4145   -7.6558   -3.6592 H   0  0  0  0  0  0  0  0  0  0  0  0
   -5.7268   -4.5679   -2.4836 H   0  0  0  0  0  0  0  0  0  0  0  0
   -6.4106   -5.7499   -3.6281 H   0  0  0  0  0  0  0  0  0  0  0  0
   -5.8487   -4.1648   -4.2172 H   0  0  0  0  0  0  0  0  0  0  0  0
   -4.1591   -2.9545   -3.1139 H   0  0  0  0  0  0  0  0  0  0  0  0
   -4.0162    2.7356   -1.9227 H   0  0  0  0  0  0  0  0  0  0  0  0
   -3.6465   -2.6636   -0.9303 H   0  0  0  0  0  0  0  0  0  0  0  0
   -4.9971   -4.3564   -0.0234 H   0  0  0  0  0  0  0  0  0  0  0  0
   -3.8120   -3.6666    1.1186 H   0  0  0  0  0  0  0  0  0  0  0  0
   -5.3024   -4.4410    1.7284 H   0  0  0  0  0  0  0  0  0  0  0  0
   -6.8582    1.5506    1.9707 H   0  0  0  0  0  0  0  0  0  0  0  0
   -8.0355    1.1715    0.6827 H   0  0  0  0  0  0  0  0  0  0  0  0
   -8.2633    0.5124    2.3220 H   0  0  0  0  0  0  0  0  0  0  0  0
   -5.8985    1.7154   -0.1700 H   0  0  0  0  0  0  0  0  0  0  0  0
  1  2  1  0  0  0  0
  2  3  1  0  0  0  0
  3  4  2  0  0  0  0
  4  5  1  0  0  0  0
  5  6  1  0  0  0  0
  6  7  1  0  0  0  0
  4  8  1  0  0  0  0
  8  9  3  0  0  0  0
  3 10  1  0  0  0  0
 10 11  2  0  0  0  0
 11 12  1  0  0  0  0
 12 13  1  0  0  0  0
 13 14  1  0  0  0  0
 14 15  2  0  0  0  0
 15 16  1  0  0  0  0
 16 17  1  0  0  0  0
 17 18  1  0  0  0  0
 15 19  1  0  0  0  0
 19 20  3  0  0  0  0
 14 21  1  0  0  0  0
 21 22  2  0  0  0  0
 22 23  1  0  0  0  0
 23 24  1  0  0  0  0
 24 25  1  0  0  0  0
 25 26  2  0  0  0  0
 26 27  1  0  0  0  0
 27 28  1  0  0  0  0
 28 29  1  0  0  0  0
 26 30  1  0  0  0  0
 30 31  3  0  0  0  0
 25 32  1  0  0  0  0
 32 33  2  0  0  0  0
 33 34  1  0  0  0  0
 34 35  1  0  0  0  0
 35 36  1  0  0  0  0
 36 37  2  0  0  0  0
 37 38  1  0  0  0  0
 38 39  1  0  0  0  0
 39 40  1  0  0  0  0
 37 41  1  0  0  0  0
 41 42  3  0  0  0  0
 36 43  1  0  0  0  0
 43 44  2  0  0  0  0
 44 45  1  0  0  0  0
 45 46  1  0  0  0  0
 46 47  1  0  0  0  0
 47 48  2  0  0  0  0
 48 49  1  0  0  0  0
 49 50  1  0  0  0  0
 50 51  2  0  0  0  0
 51 52  1  0  0  0  0
 52 53  1  0  0  0  0
 51 54  1  0  0  0  0
 54 55  1  0  0  0  0
 55 56  1  0  0  0  0
 54 57  2  0  0  0  0
 47 58  1  0  0  0  0
 58 59  1  0  0  0  0
 59 60  1  0  0  0  0
 60 61  2  0  0  0  0
 61 62  1  0  0  0  0
 62 63  1  0  0  0  0
 63 64  2  0  0  0  0
 64 65  1  0  0  0  0
 65 66  1  0  0  0  0
 64 67  1  0  0  0  0
 67 68  1  0  0  0  0
 68 69  1  0  0  0  0
 67 70  2  0  0  0  0
  5  1  2  0  0  0  0
 16 12  2  0  0  0  0
 27 23  2  0  0  0  0
 38 34  2  0  0  0  0
 49 45  2  0  0  0  0
 62 58  2  0  0  0  0
 57 48  1  0  0  0  0
 70 61  1  0  0  0  0
  1 71  1  0  0  0  0
  7 72  1  0  0  0  0
  7 73  1  0  0  0  0
  7 74  1  0  0  0  0
 10 75  1  0  0  0  0
 11 76  1  0  0  0  0
 18 77  1  0  0  0  0
 18 78  1  0  0  0  0
 18 79  1  0  0  0  0
 21 80  1  0  0  0  0
 22 81  1  0  0  0  0
 29 82  1  0  0  0  0
 29 83  1  0  0  0  0
 29 84  1  0  0  0  0
 32 85  1  0  0  0  0
 33 86  1  0  0  0  0
 40 87  1  0  0  0  0
 40 88  1  0  0  0  0
 40 89  1  0  0  0  0
 43 90  1  0  0  0  0
 44 91  1  0  0  0  0
 50 92  1  0  0  0  0
 53 93  1  0  0  0  0
 53 94  1  0  0  0  0
 53 95  1  0  0  0  0
 56 96  1  0  0  0  0
 56 97  1  0  0  0  0
 56 98  1  0  0  0  0
 57 99  1  0  0  0  0
 60100  1  0  0  0  0
 63101  1  0  0  0  0
 66102  1  0  0  0  0
 66103  1  0  0  0  0
 66104  1  0  0  0  0
 69105  1  0  0  0  0
 69106  1  0  0  0  0
 69107  1  0  0  0  0
 70108  1  0  0  0  0
M  END
