273

C          0.01790        7.85490        2.98580
C          0.33130        6.65050        3.50360
C         -0.72370        5.69970        3.36840
C         -0.74110        4.35220        3.75470
C          0.41430        3.66970        4.35620
C          0.85980        2.46810        3.80400
C          1.92330        1.78830        4.35450
C          2.59360        2.27690        5.47330
S          3.99970        1.35750        6.02850
C          3.89530        1.39610        7.85200
C          2.62450        0.74470        8.35640
C          2.15430        3.48680        6.00240
F          2.76280        4.03030        7.07610
C          1.08130        4.17370        5.46640
C         -1.90370        3.64740        3.47090
C         -2.99800        4.18240        2.75530
C         -2.96390        5.51990        2.34130
C         -4.03500        6.07890        1.50780
C         -4.36140        5.45020        0.31090
C         -5.35660        5.94430       -0.50630
C         -6.07880        7.07360       -0.14150
S         -7.39200        7.78340       -1.07790
C         -7.73450        6.53810       -2.36890
C         -8.40050        5.29140       -1.81640
C         -5.72730        7.70460        1.05320
C         -4.72070        7.23500        1.86830
F         -6.39930        8.81180        1.43090
C         -1.84150        6.25530        2.69690
S         -1.56430        7.92710        2.28790
C         -4.03460        3.21890        2.55030
C         -3.77600        2.02360        3.12080
S         -2.21260        2.00070        3.94300
C         -4.39600        0.71450        3.08280
C         -4.85770       -0.01050        4.13000
C         -4.83610       -1.41810        3.90390
C         -4.92600       -2.42750        4.87060
C         -5.35130       -2.17880        6.25880
C         -4.62140       -1.34470        7.10150
C         -5.01330       -1.15590        8.40880
C         -6.14020       -1.79240        8.92970
S         -6.49760       -1.48430       10.63110
C         -8.32180       -1.57780       10.76440
C         -9.01430       -0.57560        9.86280
C         -6.83450       -2.65300        8.08480
F         -7.90850       -3.34860        8.52070
C         -6.45810       -2.84280        6.76960
C         -4.38320       -3.65500        4.53360
C         -3.82780       -3.95730        3.26400
C         -3.87420       -2.98760        2.25040
C         -3.17760       -3.08760        0.95780
C         -3.82780       -2.72590       -0.22020
C         -3.13330       -2.61070       -1.40750
C         -1.76300       -2.83950       -1.45580
S         -0.80190       -2.61070       -2.92380
C         -1.46760       -1.02030       -3.53420
C         -1.31840        0.08640       -2.51070
C         -1.13320       -3.24870       -0.28340
C         -1.81460       -3.36560        0.91000
F          0.19050       -3.49190       -0.28540
C         -4.35970       -1.73660        2.61210
S         -4.07370       -0.29080        1.67110
C         -2.96780       -5.08900        3.32470
C         -2.74720       -5.51960        4.60340
S         -3.88330       -4.81390        5.74420
C         -1.43050       -5.86810        5.07520
C         -0.81880       -5.02560        5.95990
C          0.58210       -4.92810        5.77550
C          1.35720       -3.81190        6.13730
C          0.70930       -2.70140        6.85940
C          0.46810       -1.50340        6.19330
C         -0.27240       -0.49240        6.77740
C         -0.78720       -0.64670        8.05900
S         -1.78740        0.52070        8.91930
C         -2.25990        1.75460        7.65710
C         -1.25620        2.88390        7.53980
C         -0.50060       -1.83720        8.73170
F         -0.96750       -2.00620        9.98390
C          0.21960       -2.85830        8.15250
C          2.59980       -3.70450        5.54070
C          3.11650       -4.70160        4.67510
C          2.32850       -5.79850        4.28860
C          2.78580       -6.68660        3.20340
C          3.02400       -8.03860        3.42140
C          3.50350       -8.84120        2.40360
C          3.75380       -8.31660        1.14220
S          4.37810       -9.29660       -0.19670
C          5.80870      -10.11080        0.59970
C          6.84490       -9.10360        1.05590
C          3.46830       -6.97180        0.92500
C          2.99810       -6.15680        1.93290
F          3.67070       -6.44090       -0.29600
C          1.05220       -5.85910        4.81640
S         -0.26970       -6.80100        4.14820
C          4.31510       -4.28490        4.05130
C          4.64380       -2.98370        4.30710
S          3.61060       -2.27640        5.53670
C          5.38940       -2.17870        3.39190
C          5.22320       -0.84690        3.14110
C          5.53860       -0.48590        1.80210
C          5.15760        0.69240        1.13170
C          4.79010        1.89400        1.88850
C          3.67490        2.67340        1.58720
C          3.42250        3.83830        2.28160
C          4.26510        4.26750        3.30220
S          3.86600        5.77490        4.14000
C          5.47290        6.64380        4.24040
C          6.08020        6.86570        2.87020
C          5.34800        3.45710        3.62820
F          6.18360        3.79550        4.63090
C          5.61810        2.29700        2.93430
C          5.13680        0.62850       -0.25710
C          5.60100       -0.49160       -0.99440
C          6.07520       -1.62710       -0.32320
C          6.38510       -2.90670       -0.97610
C          5.43430       -3.53290       -1.77620
C          5.62210       -4.82280       -2.23340
C          6.77410       -5.53020       -1.91080
S          7.11490       -7.19710       -2.35970
C          5.59730       -7.76810       -3.19410
C          5.55130       -7.36350       -4.65550
C          7.73590       -4.87460       -1.13930
C          7.55550       -3.59550       -0.66470
F          8.87490       -5.52670       -0.82170
C          6.00820       -1.59400        1.05940
S          6.18200       -3.01080        2.05860
C          5.38610       -0.34730       -2.39000
C          4.71460        0.78930       -2.71930
S          4.42940        1.81550       -1.32410
C          4.09790        1.09570       -3.97750
S          2.40360        1.43420       -4.00220
C          2.33800        1.41140       -5.73560
C          3.61520        1.23580       -6.27240
C          4.60830        1.01980       -5.26630
C          5.95580        0.79700       -5.63320
C          6.31230        0.81990       -6.95040
O          7.56170        0.62350       -7.43510
C          8.59680        0.36070       -6.51970
C          5.32350        1.09870       -7.96380
O          5.82140        1.15810       -9.22330
C          4.94660        1.49770      -10.26900
C          4.01420        1.29310       -7.62550
C          1.06030        1.44310       -6.35910
C          0.68500        1.07880       -7.62140
C         -0.71570        1.12760       -7.84600
C         -1.41850        0.77890       -9.01180
C         -0.72290        0.40470      -10.24750
C          0.33900        1.16350      -10.73700
C          0.98410        0.81960      -11.90880
C          0.59390       -0.29920      -12.63660
S          1.30280       -0.79830      -14.17420
C          3.03950       -0.24660      -14.03450
C          3.78360       -1.01690      -12.96140
C         -0.47480       -1.04630      -12.14060
F         -0.88340       -2.13690      -12.81580
C         -1.12440       -0.71580      -10.97250
C         -2.80680        0.81180       -8.93350
C         -3.50940        1.14020       -7.75030
C         -2.80650        1.47600       -6.58410
C         -3.48190        1.70130       -5.30020
C         -4.35930        0.74660       -4.79300
C         -4.92830        0.88500       -3.54090
C         -4.65350        1.99800       -2.75500
S         -5.26620        2.29630       -1.12870
C         -6.39150        0.90300       -0.79240
C         -7.73360        1.05870       -1.48240
C         -3.79330        2.95950       -3.28950
C         -3.20490        2.82560       -4.52640
F         -3.52060        4.06230       -2.56170
C         -1.42440        1.50280       -6.67800
S         -0.33000        1.88190       -5.37520
C         -4.92130        1.12660       -7.95130
C         -5.26750        0.81170       -9.21570
S         -3.91420        0.49960      -10.24670
H          0.62630        8.73790        2.96370
H          1.27930        6.42410        3.95520
H          0.37780        2.07180        2.92390
H          2.26280        0.86160        3.91850
H          4.77590        0.83300        8.16150
H          3.99410        2.42530        8.18950
H          2.53260       -0.26790        7.96770
H          1.74950        1.31240        8.04590
H          2.63710        0.70440        9.44350
H          0.77500        5.09650        5.93310
H         -3.81370        4.57600       -0.00240
H         -5.55000        5.43670       -1.43520
H         -6.80510        6.31560       -2.89180
H         -8.40220        7.06060       -3.05420
H         -8.62960        4.60510       -2.63010
H         -7.75120        4.78550       -1.10510
H         -9.32690        5.55440       -1.31090
H         -4.49560        7.75910        2.78380
H         -4.93360        3.43280        2.00110
H         -5.11880        0.42750        5.07680
H         -3.73060       -0.86160        6.72960
H         -4.44080       -0.51730        9.06360
H         -8.50140       -1.34820       11.81480
H         -8.64330       -2.59750       10.56570
H         -8.65210        0.43080       10.06190
H        -10.08730       -0.60380       10.04130
H         -8.83600       -0.80650        8.81450
H         -7.03270       -3.51950        6.15580
H         -4.88980       -2.53050       -0.19860
H         -3.65480       -2.32350       -2.30750
H         -2.50450       -1.15730       -3.83810
H         -0.86890       -0.81620       -4.42110
H         -0.27710        0.18540       -2.21280
H         -1.91820       -0.11770       -1.62510
H         -1.64510        1.03030       -2.94070
H         -1.26210       -3.61130        1.80350
H         -2.39790       -5.44960        2.48770
H         -1.36780       -4.35950        6.60100
H          0.83990       -1.36570        5.18970
H         -0.45110        0.40910        6.21270
H         -3.22140        2.13120        8.00680
H         -2.40700        1.24030        6.70860
H         -0.28580        2.51160        7.22050
H         -1.13560        3.38510        8.49730
H         -1.60180        3.60890        6.80540
H          0.38920       -3.76810        8.70700
H          2.84330       -8.46130        4.39810
H          3.68610       -9.88810        2.59050
H          6.20660      -10.75920       -0.18030
H          5.44660      -10.72730        1.42170
H          7.17760       -8.49420        0.21850
H          6.43390       -8.44790        1.82200
H          7.70630       -9.62290        1.47060
H          2.79720       -5.11830        1.71930
H          4.84490       -4.88710        3.33550
H          4.75830       -0.17600        3.84260
H          2.99280        2.36400        0.81150
H          2.56280        4.44300        2.03710
H          5.21790        7.58980        4.71810
H          6.13480        6.08280        4.89640
H          5.38750        7.40590        2.22790
H          6.32220        5.91650        2.39470
H          6.99550        7.44630        2.96520
H          6.48530        1.71810        3.21100
H          4.50910       -3.02520       -2.00340
H          4.84040       -5.28120       -2.81480
H          4.74380       -7.40620       -2.62440
H          5.63920       -8.85280       -3.09620
H          4.63800       -7.74070       -5.11180
H          5.57410       -6.28180       -4.76820
H          6.40360       -7.77940       -5.18840
H          8.32180       -3.14690       -0.05190
H          5.64910       -1.10270       -3.10820
H          6.67680        0.63120       -4.85000
H          8.74260        1.19680       -5.82810
H          8.40400       -0.55260       -5.94760
H          9.49440        0.22820       -7.12090
H          5.55320        1.49430      -11.17290
H          4.13790        0.76630      -10.37030
H          4.51640        2.49460      -10.12400
H          3.28000        1.53340       -8.37390
H          1.37010        0.70230       -8.35640
H          0.64000        2.05740      -10.21140
H          1.78940        1.44250      -12.26640
H          3.45370       -0.45070      -15.02130
H          3.06130        0.82890      -13.86420
H          4.81970       -0.68850      -12.91270
H          3.32150       -0.86400      -11.98790
H          3.76520       -2.08120      -13.18370
H         -1.92570       -1.34870      -10.62630
H         -4.57920       -0.13350       -5.37930
H         -5.58230        0.10820       -3.17920
H         -6.50860        0.92470        0.29110
H         -5.87860       -0.01930       -1.06190
H         -8.37120        0.20870       -1.24680
H         -8.22730        1.96610       -1.14240
H         -7.61820        1.11780       -2.56250
H         -2.54480        3.60090       -4.88140
H         -5.62850        1.36780       -7.17820
H         -6.25350        0.73740       -9.63130
