
  xtb     03022223043D
 energy: -317.522589256226 gnorm: 0.000562128878 xtb: 6.4.1 (unknown)
170187  0     0  0            999 V2000
   10.7053   -9.8983    3.8612 C   0  0  0  0  0  0  0  0  0  0  0  0
    9.3825   -9.0694    4.5588 S   0  0  0  0  0  0  0  0  0  0  0  0
    8.6253   -8.8229    3.0119 C   0  0  0  0  0  0  0  0  0  0  0  0
    9.4243   -9.3391    1.9937 C   0  0  0  0  0  0  0  0  0  0  0  0
   10.6071   -9.9740    2.4919 C   0  0  0  0  0  0  0  0  0  0  0  0
   11.5207  -10.5701    1.5854 C   0  0  0  0  0  0  0  0  0  0  0  0
   11.2872  -10.4997    0.2446 C   0  0  0  0  0  0  0  0  0  0  0  0
   12.0731  -11.0319   -0.7256 O   0  0  0  0  0  0  0  0  0  0  0  0
   13.2363  -11.7171   -0.3359 C   0  0  0  0  0  0  0  0  0  0  0  0
   10.1344   -9.7890   -0.2598 C   0  0  0  0  0  0  0  0  0  0  0  0
   10.0580   -9.7477   -1.6154 O   0  0  0  0  0  0  0  0  0  0  0  0
    9.0038   -9.0260   -2.2009 C   0  0  0  0  0  0  0  0  0  0  0  0
    9.2363   -9.2225    0.5968 C   0  0  0  0  0  0  0  0  0  0  0  0
    7.3691   -8.1657    2.9134 C   0  0  0  0  0  0  0  0  0  0  0  0
    7.0021   -6.8091    3.9256 S   0  0  0  0  0  0  0  0  0  0  0  0
    5.4473   -6.5352    3.1810 C   0  0  0  0  0  0  0  0  0  0  0  0
    5.2193   -7.5156    2.1975 C   0  0  0  0  0  0  0  0  0  0  0  0
    6.2951   -8.4428    2.0671 C   0  0  0  0  0  0  0  0  0  0  0  0
    6.1759   -9.5523    1.1997 C   0  0  0  0  0  0  0  0  0  0  0  0
    5.0673   -9.6926    0.4162 C   0  0  0  0  0  0  0  0  0  0  0  0
    4.8477  -10.7033   -0.4639 O   0  0  0  0  0  0  0  0  0  0  0  0
    5.8124  -11.7209   -0.5598 C   0  0  0  0  0  0  0  0  0  0  0  0
    4.0046   -8.7274    0.4992 C   0  0  0  0  0  0  0  0  0  0  0  0
    2.9651   -8.9651   -0.3378 O   0  0  0  0  0  0  0  0  0  0  0  0
    1.8770   -8.0742   -0.3251 C   0  0  0  0  0  0  0  0  0  0  0  0
    4.0774   -7.6900    1.3882 C   0  0  0  0  0  0  0  0  0  0  0  0
    4.6695   -5.4118    3.5331 C   0  0  0  0  0  0  0  0  0  0  0  0
    3.3716   -4.8740    2.5046 S   0  0  0  0  0  0  0  0  0  0  0  0
    3.0585   -3.4515    3.4541 C   0  0  0  0  0  0  0  0  0  0  0  0
    3.9169   -3.4108    4.5560 C   0  0  0  0  0  0  0  0  0  0  0  0
    4.8130   -4.5197    4.6127 C   0  0  0  0  0  0  0  0  0  0  0  0
    5.6937   -4.6285    5.7084 C   0  0  0  0  0  0  0  0  0  0  0  0
    5.7177   -3.6669    6.6811 C   0  0  0  0  0  0  0  0  0  0  0  0
    6.5228   -3.6789    7.7715 O   0  0  0  0  0  0  0  0  0  0  0  0
    7.4222   -4.7492    7.9263 C   0  0  0  0  0  0  0  0  0  0  0  0
    4.8364   -2.5342    6.6026 C   0  0  0  0  0  0  0  0  0  0  0  0
    4.9614   -1.6487    7.6191 O   0  0  0  0  0  0  0  0  0  0  0  0
    4.1285   -0.5148    7.6197 C   0  0  0  0  0  0  0  0  0  0  0  0
    3.9520   -2.4274    5.5656 C   0  0  0  0  0  0  0  0  0  0  0  0
    2.0525   -2.5665    3.0040 C   0  0  0  0  0  0  0  0  0  0  0  0
    1.1463   -2.8258    2.0063 C   0  0  0  0  0  0  0  0  0  0  0  0
    0.2990   -1.7435    1.6934 C   0  0  0  0  0  0  0  0  0  0  0  0
   -0.7428   -1.6959    0.7456 C   0  0  0  0  0  0  0  0  0  0  0  0
   -1.0981   -2.8539   -0.0554 C   0  0  0  0  0  0  0  0  0  0  0  0
    0.0906   -3.7346   -0.9723 S   0  0  0  0  0  0  0  0  0  0  0  0
   -1.0904   -4.8277   -1.6103 C   0  0  0  0  0  0  0  0  0  0  0  0
   -0.7268   -5.9434   -2.5299 C   0  0  0  0  0  0  0  0  0  0  0  0
    0.5567   -5.6713   -3.3037 C   0  0  0  0  0  0  0  0  0  0  0  0
   -2.3258   -4.5185   -1.1252 C   0  0  0  0  0  0  0  0  0  0  0  0
   -3.7483   -5.3918   -1.5248 Cl  0  0  0  0  0  0  0  0  0  0  0  0
   -2.3362   -3.4030   -0.2466 C   0  0  0  0  0  0  0  0  0  0  0  0
   -3.7611   -2.8809    0.5497 Cl  0  0  0  0  0  0  0  0  0  0  0  0
   -1.4081   -0.4840    0.6006 C   0  0  0  0  0  0  0  0  0  0  0  0
   -1.0977    0.6542    1.3824 C   0  0  0  0  0  0  0  0  0  0  0  0
   -0.1136    0.5839    2.3876 C   0  0  0  0  0  0  0  0  0  0  0  0
    0.1483    1.7427    3.2227 C   0  0  0  0  0  0  0  0  0  0  0  0
    1.7489    2.3944    3.4160 S   0  0  0  0  0  0  0  0  0  0  0  0
    1.1795    3.7175    4.3755 C   0  0  0  0  0  0  0  0  0  0  0  0
    2.0988    4.7910    4.8435 C   0  0  0  0  0  0  0  0  0  0  0  0
    2.1618    5.9305    3.8230 C   0  0  0  0  0  0  0  0  0  0  0  0
   -0.1720    3.6409    4.5353 C   0  0  0  0  0  0  0  0  0  0  0  0
   -0.7587    2.5203    3.8905 C   0  0  0  0  0  0  0  0  0  0  0  0
   -2.4340    2.1613    4.0171 Cl  0  0  0  0  0  0  0  0  0  0  0  0
   -1.0966    4.7848    5.4187 Cl  0  0  0  0  0  0  0  0  0  0  0  0
    0.5786   -0.6087    2.4971 C   0  0  0  0  0  0  0  0  0  0  0  0
    1.8610   -0.9346    3.6282 S   0  0  0  0  0  0  0  0  0  0  0  0
   -1.8249    1.7924    0.9752 C   0  0  0  0  0  0  0  0  0  0  0  0
   -2.6865    1.5527   -0.0570 C   0  0  0  0  0  0  0  0  0  0  0  0
   -2.6233   -0.1110   -0.5916 S   0  0  0  0  0  0  0  0  0  0  0  0
   -3.5302    2.5331   -0.6572 C   0  0  0  0  0  0  0  0  0  0  0  0
   -3.7767    3.7744   -0.1454 C   0  0  0  0  0  0  0  0  0  0  0  0
   -4.5552    4.5938   -0.9923 C   0  0  0  0  0  0  0  0  0  0  0  0
   -4.9527    5.9255   -0.7710 C   0  0  0  0  0  0  0  0  0  0  0  0
   -4.5016    6.6445    0.4079 C   0  0  0  0  0  0  0  0  0  0  0  0
   -5.6212    7.4759    1.4454 S   0  0  0  0  0  0  0  0  0  0  0  0
   -4.3702    7.9664    2.5358 C   0  0  0  0  0  0  0  0  0  0  0  0
   -4.6693    8.8209    3.7174 C   0  0  0  0  0  0  0  0  0  0  0  0
   -4.7486   10.2954    3.3145 C   0  0  0  0  0  0  0  0  0  0  0  0
   -3.1594    7.5187    2.0990 C   0  0  0  0  0  0  0  0  0  0  0  0
   -1.6798    7.8030    2.9185 Cl  0  0  0  0  0  0  0  0  0  0  0  0
   -3.2285    6.7693    0.8949 C   0  0  0  0  0  0  0  0  0  0  0  0
   -1.8204    6.1751    0.1098 Cl  0  0  0  0  0  0  0  0  0  0  0  0
   -5.7669    6.5043   -1.7322 C   0  0  0  0  0  0  0  0  0  0  0  0
   -6.1717    5.8230   -2.9065 C   0  0  0  0  0  0  0  0  0  0  0  0
   -5.7884    4.4851   -3.1167 C   0  0  0  0  0  0  0  0  0  0  0  0
   -6.2777    3.7426   -4.2644 C   0  0  0  0  0  0  0  0  0  0  0  0
   -5.2151    2.8421   -5.3042 S   0  0  0  0  0  0  0  0  0  0  0  0
   -6.5209    2.3029   -6.3039 C   0  0  0  0  0  0  0  0  0  0  0  0
   -6.2759    1.4602   -7.5064 C   0  0  0  0  0  0  0  0  0  0  0  0
   -5.9278    2.3242   -8.7207 C   0  0  0  0  0  0  0  0  0  0  0  0
   -7.7043    2.8044   -5.8501 C   0  0  0  0  0  0  0  0  0  0  0  0
   -7.5715    3.6137   -4.6916 C   0  0  0  0  0  0  0  0  0  0  0  0
   -8.9287    4.2714   -3.8693 Cl  0  0  0  0  0  0  0  0  0  0  0  0
   -9.2261    2.4877   -6.5833 Cl  0  0  0  0  0  0  0  0  0  0  0  0
   -4.9578    3.9094   -2.1641 C   0  0  0  0  0  0  0  0  0  0  0  0
   -4.3213    2.2878   -2.1993 S   0  0  0  0  0  0  0  0  0  0  0  0
   -6.9089    6.6595   -3.7772 C   0  0  0  0  0  0  0  0  0  0  0  0
   -7.1197    7.9185   -3.2902 C   0  0  0  0  0  0  0  0  0  0  0  0
   -6.3631    8.1382   -1.7175 S   0  0  0  0  0  0  0  0  0  0  0  0
   -7.8222    9.0020   -3.8877 C   0  0  0  0  0  0  0  0  0  0  0  0
   -7.4676   10.6297   -3.3957 S   0  0  0  0  0  0  0  0  0  0  0  0
   -8.5771   11.2868   -4.5111 C   0  0  0  0  0  0  0  0  0  0  0  0
   -9.2232   10.3138   -5.2383 C   0  0  0  0  0  0  0  0  0  0  0  0
   -8.8033    8.9916   -4.8794 C   0  0  0  0  0  0  0  0  0  0  0  0
   -9.4268    7.8845   -5.4973 C   0  0  0  0  0  0  0  0  0  0  0  0
  -10.3775    8.0817   -6.4585 C   0  0  0  0  0  0  0  0  0  0  0  0
  -11.0364    7.1012   -7.1191 O   0  0  0  0  0  0  0  0  0  0  0  0
  -10.7104    5.7635   -6.8294 C   0  0  0  0  0  0  0  0  0  0  0  0
  -10.7645    9.4174   -6.8517 C   0  0  0  0  0  0  0  0  0  0  0  0
  -11.7050    9.4543   -7.8284 O   0  0  0  0  0  0  0  0  0  0  0  0
  -12.1597   10.7105   -8.2642 C   0  0  0  0  0  0  0  0  0  0  0  0
  -10.2064   10.5007   -6.2423 C   0  0  0  0  0  0  0  0  0  0  0  0
   11.4825  -10.2808    4.4916 H   0  0  0  0  0  0  0  0  0  0  0  0
   12.3910  -11.0616    1.9881 H   0  0  0  0  0  0  0  0  0  0  0  0
   13.9290  -11.0598    0.2003 H   0  0  0  0  0  0  0  0  0  0  0  0
   13.7022  -12.0561   -1.2596 H   0  0  0  0  0  0  0  0  0  0  0  0
   13.0012  -12.5834    0.2918 H   0  0  0  0  0  0  0  0  0  0  0  0
    9.1470   -9.1162   -3.2762 H   0  0  0  0  0  0  0  0  0  0  0  0
    8.0265   -9.4408   -1.9302 H   0  0  0  0  0  0  0  0  0  0  0  0
    9.0334   -7.9690   -1.9169 H   0  0  0  0  0  0  0  0  0  0  0  0
    8.3898   -8.6634    0.2353 H   0  0  0  0  0  0  0  0  0  0  0  0
    6.9673  -10.2824    1.1933 H   0  0  0  0  0  0  0  0  0  0  0  0
    5.4372  -12.4122   -1.3124 H   0  0  0  0  0  0  0  0  0  0  0  0
    6.7852  -11.3310   -0.8793 H   0  0  0  0  0  0  0  0  0  0  0  0
    5.9351  -12.2495    0.3911 H   0  0  0  0  0  0  0  0  0  0  0  0
    2.1895   -7.0526   -0.5645 H   0  0  0  0  0  0  0  0  0  0  0  0
    1.3655   -8.0763    0.6430 H   0  0  0  0  0  0  0  0  0  0  0  0
    1.1978   -8.4381   -1.0941 H   0  0  0  0  0  0  0  0  0  0  0  0
    3.2527   -7.0085    1.4874 H   0  0  0  0  0  0  0  0  0  0  0  0
    6.3334   -5.4888    5.7861 H   0  0  0  0  0  0  0  0  0  0  0  0
    8.1236   -4.8101    7.0879 H   0  0  0  0  0  0  0  0  0  0  0  0
    6.8973   -5.7048    8.0266 H   0  0  0  0  0  0  0  0  0  0  0  0
    7.9702   -4.5406    8.8435 H   0  0  0  0  0  0  0  0  0  0  0  0
    3.0717   -0.7930    7.6844 H   0  0  0  0  0  0  0  0  0  0  0  0
    4.4078    0.0534    8.5053 H   0  0  0  0  0  0  0  0  0  0  0  0
    4.2845    0.0991    6.7268 H   0  0  0  0  0  0  0  0  0  0  0  0
    3.2672   -1.6000    5.5066 H   0  0  0  0  0  0  0  0  0  0  0  0
    1.1005   -3.7812    1.5163 H   0  0  0  0  0  0  0  0  0  0  0  0
   -0.6135   -6.8614   -1.9437 H   0  0  0  0  0  0  0  0  0  0  0  0
   -1.5593   -6.1001   -3.2203 H   0  0  0  0  0  0  0  0  0  0  0  0
    0.4505   -4.7758   -3.9104 H   0  0  0  0  0  0  0  0  0  0  0  0
    1.3889   -5.5241   -2.6194 H   0  0  0  0  0  0  0  0  0  0  0  0
    0.7872   -6.5091   -3.9562 H   0  0  0  0  0  0  0  0  0  0  0  0
    1.7339    5.1774    5.7973 H   0  0  0  0  0  0  0  0  0  0  0  0
    3.0968    4.3756    4.9906 H   0  0  0  0  0  0  0  0  0  0  0  0
    2.8295    6.7121    4.1754 H   0  0  0  0  0  0  0  0  0  0  0  0
    1.1736    6.3579    3.6741 H   0  0  0  0  0  0  0  0  0  0  0  0
    2.5278    5.5617    2.8678 H   0  0  0  0  0  0  0  0  0  0  0  0
   -1.6812    2.7671    1.4003 H   0  0  0  0  0  0  0  0  0  0  0  0
   -3.4316    4.0849    0.8218 H   0  0  0  0  0  0  0  0  0  0  0  0
   -5.6199    8.5134    4.1565 H   0  0  0  0  0  0  0  0  0  0  0  0
   -3.8801    8.6838    4.4590 H   0  0  0  0  0  0  0  0  0  0  0  0
   -4.9731   10.9086    4.1830 H   0  0  0  0  0  0  0  0  0  0  0  0
   -5.5290   10.4408    2.5713 H   0  0  0  0  0  0  0  0  0  0  0  0
   -3.8017   10.6223    2.8920 H   0  0  0  0  0  0  0  0  0  0  0  0
   -5.4542    0.7719   -7.3027 H   0  0  0  0  0  0  0  0  0  0  0  0
   -7.1760    0.8796   -7.7168 H   0  0  0  0  0  0  0  0  0  0  0  0
   -5.7504    1.6946   -9.5883 H   0  0  0  0  0  0  0  0  0  0  0  0
   -6.7448    3.0051   -8.9457 H   0  0  0  0  0  0  0  0  0  0  0  0
   -5.0320    2.9080   -8.5230 H   0  0  0  0  0  0  0  0  0  0  0  0
   -7.2062    6.3518   -4.7609 H   0  0  0  0  0  0  0  0  0  0  0  0
   -8.6972   12.3494   -4.5797 H   0  0  0  0  0  0  0  0  0  0  0  0
   -9.1685    6.8916   -5.1762 H   0  0  0  0  0  0  0  0  0  0  0  0
  -10.9262    5.5108   -5.7870 H   0  0  0  0  0  0  0  0  0  0  0  0
  -11.3359    5.1587   -7.4836 H   0  0  0  0  0  0  0  0  0  0  0  0
   -9.6569    5.5537   -7.0402 H   0  0  0  0  0  0  0  0  0  0  0  0
  -11.3449   11.3081   -8.6866 H   0  0  0  0  0  0  0  0  0  0  0  0
  -12.6342   11.2699   -7.4512 H   0  0  0  0  0  0  0  0  0  0  0  0
  -12.8962   10.5050   -9.0390 H   0  0  0  0  0  0  0  0  0  0  0  0
  -10.4899   11.5089   -6.4961 H   0  0  0  0  0  0  0  0  0  0  0  0
  1  2  1  0  0  0  0
  2  3  1  0  0  0  0
  3  4  2  0  0  0  0
  4  5  1  0  0  0  0
  5  6  1  0  0  0  0
  6  7  2  0  0  0  0
  7  8  1  0  0  0  0
  8  9  1  0  0  0  0
  7 10  1  0  0  0  0
 10 11  1  0  0  0  0
 11 12  1  0  0  0  0
 10 13  2  0  0  0  0
  3 14  1  0  0  0  0
 14 15  1  0  0  0  0
 15 16  1  0  0  0  0
 16 17  2  0  0  0  0
 17 18  1  0  0  0  0
 18 19  1  0  0  0  0
 19 20  2  0  0  0  0
 20 21  1  0  0  0  0
 21 22  1  0  0  0  0
 20 23  1  0  0  0  0
 23 24  1  0  0  0  0
 24 25  1  0  0  0  0
 23 26  2  0  0  0  0
 16 27  1  0  0  0  0
 27 28  1  0  0  0  0
 28 29  1  0  0  0  0
 29 30  2  0  0  0  0
 30 31  1  0  0  0  0
 31 32  1  0  0  0  0
 32 33  2  0  0  0  0
 33 34  1  0  0  0  0
 34 35  1  0  0  0  0
 33 36  1  0  0  0  0
 36 37  1  0  0  0  0
 37 38  1  0  0  0  0
 36 39  2  0  0  0  0
 29 40  1  0  0  0  0
 40 41  2  0  0  0  0
 41 42  1  0  0  0  0
 42 43  2  0  0  0  0
 43 44  1  0  0  0  0
 44 45  1  0  0  0  0
 45 46  1  0  0  0  0
 46 47  1  0  0  0  0
 47 48  1  0  0  0  0
 46 49  2  0  0  0  0
 49 50  1  0  0  0  0
 49 51  1  0  0  0  0
 51 52  1  0  0  0  0
 43 53  1  0  0  0  0
 53 54  2  0  0  0  0
 54 55  1  0  0  0  0
 55 56  1  0  0  0  0
 56 57  1  0  0  0  0
 57 58  1  0  0  0  0
 58 59  1  0  0  0  0
 59 60  1  0  0  0  0
 58 61  2  0  0  0  0
 61 62  1  0  0  0  0
 62 63  1  0  0  0  0
 61 64  1  0  0  0  0
 55 65  2  0  0  0  0
 65 66  1  0  0  0  0
 54 67  1  0  0  0  0
 67 68  2  0  0  0  0
 68 69  1  0  0  0  0
 68 70  1  0  0  0  0
 70 71  2  0  0  0  0
 71 72  1  0  0  0  0
 72 73  2  0  0  0  0
 73 74  1  0  0  0  0
 74 75  1  0  0  0  0
 75 76  1  0  0  0  0
 76 77  1  0  0  0  0
 77 78  1  0  0  0  0
 76 79  2  0  0  0  0
 79 80  1  0  0  0  0
 79 81  1  0  0  0  0
 81 82  1  0  0  0  0
 73 83  1  0  0  0  0
 83 84  2  0  0  0  0
 84 85  1  0  0  0  0
 85 86  1  0  0  0  0
 86 87  1  0  0  0  0
 87 88  1  0  0  0  0
 88 89  1  0  0  0  0
 89 90  1  0  0  0  0
 88 91  2  0  0  0  0
 91 92  1  0  0  0  0
 92 93  1  0  0  0  0
 91 94  1  0  0  0  0
 85 95  2  0  0  0  0
 95 96  1  0  0  0  0
 84 97  1  0  0  0  0
 97 98  2  0  0  0  0
 98 99  1  0  0  0  0
 98100  1  0  0  0  0
100101  1  0  0  0  0
101102  1  0  0  0  0
102103  2  0  0  0  0
103104  1  0  0  0  0
104105  1  0  0  0  0
105106  2  0  0  0  0
106107  1  0  0  0  0
107108  1  0  0  0  0
106109  1  0  0  0  0
109110  1  0  0  0  0
110111  1  0  0  0  0
109112  2  0  0  0  0
  5  1  2  0  0  0  0
 18 14  2  0  0  0  0
 31 27  2  0  0  0  0
 66 40  1  0  0  0  0
 96 70  1  0  0  0  0
104100  2  0  0  0  0
 13  4  1  0  0  0  0
 26 17  1  0  0  0  0
 39 30  1  0  0  0  0
 65 42  1  0  0  0  0
 95 72  1  0  0  0  0
112103  1  0  0  0  0
 51 44  2  0  0  0  0
 69 53  1  0  0  0  0
 81 74  2  0  0  0  0
 99 83  1  0  0  0  0
 62 56  2  0  0  0  0
 92 86  2  0  0  0  0
  1113  1  0  0  0  0
  6114  1  0  0  0  0
  9115  1  0  0  0  0
  9116  1  0  0  0  0
  9117  1  0  0  0  0
 12118  1  0  0  0  0
 12119  1  0  0  0  0
 12120  1  0  0  0  0
 13121  1  0  0  0  0
 19122  1  0  0  0  0
 22123  1  0  0  0  0
 22124  1  0  0  0  0
 22125  1  0  0  0  0
 25126  1  0  0  0  0
 25127  1  0  0  0  0
 25128  1  0  0  0  0
 26129  1  0  0  0  0
 32130  1  0  0  0  0
 35131  1  0  0  0  0
 35132  1  0  0  0  0
 35133  1  0  0  0  0
 38134  1  0  0  0  0
 38135  1  0  0  0  0
 38136  1  0  0  0  0
 39137  1  0  0  0  0
 41138  1  0  0  0  0
 47139  1  0  0  0  0
 47140  1  0  0  0  0
 48141  1  0  0  0  0
 48142  1  0  0  0  0
 48143  1  0  0  0  0
 59144  1  0  0  0  0
 59145  1  0  0  0  0
 60146  1  0  0  0  0
 60147  1  0  0  0  0
 60148  1  0  0  0  0
 67149  1  0  0  0  0
 71150  1  0  0  0  0
 77151  1  0  0  0  0
 77152  1  0  0  0  0
 78153  1  0  0  0  0
 78154  1  0  0  0  0
 78155  1  0  0  0  0
 89156  1  0  0  0  0
 89157  1  0  0  0  0
 90158  1  0  0  0  0
 90159  1  0  0  0  0
 90160  1  0  0  0  0
 97161  1  0  0  0  0
102162  1  0  0  0  0
105163  1  0  0  0  0
108164  1  0  0  0  0
108165  1  0  0  0  0
108166  1  0  0  0  0
111167  1  0  0  0  0
111168  1  0  0  0  0
111169  1  0  0  0  0
112170  1  0  0  0  0
M  END
