93

C         11.10390       -3.64930       -1.65380
N         11.21920       -3.68860       -3.03210
C          9.94030       -3.65210       -3.47780
N          9.13030       -3.64850       -4.56150
C          7.83000       -3.58480       -4.05540
N          7.81890       -3.55240       -2.73190
C          9.11820       -3.59270       -2.34840
N          9.87870       -3.59280       -1.22020
C          6.73430       -3.56050       -4.96680
C          5.39820       -3.47690       -4.74390
C          4.66560       -3.39020       -3.53510
N          5.23410       -3.39390       -2.26270
C          4.19780       -3.29220       -1.42680
N          3.81680       -3.21970       -0.13860
C          2.41510       -3.11510       -0.17590
N          1.93760       -3.11980       -1.40560
C          3.01500       -3.22930       -2.21290
N          3.33860       -3.29260       -3.51560
C          1.60170       -2.98700        0.97910
C          2.02170       -2.89560        2.26060
C          1.10800       -2.67010        3.32710
N          1.54830       -2.43380        4.63890
C          0.42730       -2.14430        5.33420
N         -0.07430       -1.68440        6.50380
C         -1.44120       -1.47660        6.24950
N         -1.78900       -1.83300        5.03910
C         -0.64950       -2.23410        4.43170
N         -0.20020       -2.56930        3.20480
C         -2.29790       -0.79550        7.19010
C         -3.23920        0.08990        6.80570
C         -3.41080        0.52290        5.44410
S         -4.97510        0.55310        4.70550
C         -4.31290        0.76840        3.12380
C         -2.91460        0.82050        3.16200
C         -2.42000        0.76840        4.49710
C         -1.03960        0.95990        4.74130
C         -0.16230        0.98090        3.70010
O          1.19090        1.12730        3.80700
C          1.72420        1.37610        5.07940
C         -0.63830        0.79550        2.35520
O          0.34170        0.65950        1.42790
C         -0.02320        0.22850        0.13690
C         -1.98170        0.78400        2.09940
C         -5.22760        0.86830        2.04510
N         -4.86010        1.26290        0.74910
C         -6.00910        1.25590        0.04590
N         -6.56240        1.46820       -1.14920
C         -7.91550        1.19120       -0.96840
N         -8.21220        0.82480        0.27920
C         -7.04170        0.85380        0.93500
N         -6.51940        0.62900        2.16310
C         -8.89290        1.27780       -1.98630
C         -8.77830        1.61440       -3.29850
C         -7.64000        1.98930       -4.06590
N         -7.80210        2.26850       -5.42780
C         -6.56970        2.58550       -5.88200
N         -5.83200        2.95530       -6.95030
C         -4.52540        3.07340       -6.46390
N         -4.43330        2.80320       -5.17940
C         -5.69140        2.49580       -4.79220
N         -6.37910        2.12680       -3.68450
C         -3.44640        3.45260       -7.33080
C         -2.18310        3.55700       -6.92570
H         11.96630       -3.66520       -1.01940
H         12.07330       -3.73200       -3.56180
H          9.37450       -3.68110       -5.53670
H          7.04770       -3.61310       -6.00230
H          4.75100       -3.46800       -5.60980
H          6.25730       -3.45730       -2.13410
H          4.39060       -3.23740        0.68610
H          0.54170       -2.93320        0.78860
H          3.06980       -2.93640        2.52870
H          2.50530       -2.43790        4.94930
H          0.39970       -1.50470        7.37330
H         -2.15870       -1.02250        8.23870
H         -3.94030        0.46900        7.53770
H         -0.71210        1.05400        5.76410
H          1.30480        2.28570        5.52290
H          2.79550        1.50770        4.93220
H          1.55170        0.53690        5.76330
H          0.90750       -0.01290       -0.37330
H         -0.64810       -0.66700        0.18130
H         -0.54430        1.01710       -0.41710
H         -2.32880        0.65810        1.08800
H         -3.94860        1.56790        0.45660
H         -6.19300        1.75910       -2.07050
H         -9.87930        1.02200       -1.62570
H         -9.69190        1.59810       -3.88030
H         -8.67190        2.22280       -5.93100
H         -6.12440        3.11110       -7.90040
H         -3.72220        3.65240       -8.35890
H         -1.39370        3.84230       -7.59820
H         -1.92520        3.35160       -5.90260
