96

C          4.89800        0.57190        2.28790
S          4.96100        2.24660        1.95300
C          5.21270        1.96940        0.26030
C          5.29560        0.61210       -0.00870
C          5.08450       -0.19170        1.15990
C          5.04900       -1.60610        1.04580
C          5.21990       -2.19050       -0.17410
O          5.17330       -3.51660       -0.43250
C          4.89600       -4.39650        0.62880
C          5.49910       -1.37980       -1.34140
O          5.68370       -2.09670       -2.47320
C          5.96010       -1.40630       -3.66710
C          5.55630       -0.02040       -1.24930
C          5.26590        3.08720       -0.65030
C          5.89880        4.28660       -0.41710
O          5.80350        5.10880       -1.45920
C          5.09950        4.45920       -2.40630
N          4.86320        5.12620       -3.62270
O          4.24950        4.51340       -4.48170
O          5.28770        6.25650       -3.74000
C          4.70740        3.19880       -1.96920
C          3.90890        2.24840       -2.69760
C          3.13210        1.33570       -2.09300
C          2.42250        0.27540       -2.75400
C          2.27920        0.01590       -4.09850
O          1.59080       -1.10050       -4.30750
C          1.26100       -1.60100       -3.09520
N          0.60420       -2.83980       -3.07160
O          0.33580       -3.31190       -1.97640
O          0.33820       -3.36150       -4.13800
C          1.73320       -0.78590       -2.07500
C          1.67950       -0.94860       -0.64590
C          0.62080       -1.28410        0.12030
C         -0.74340       -1.42140       -0.24630
S         -1.38880       -0.85900       -1.75440
C         -3.00340       -1.29490       -1.33260
C         -3.05130       -1.88010       -0.07330
C         -1.77190       -1.92590        0.55920
C         -1.66850       -2.44180        1.86780
C         -2.78830       -2.86940        2.52760
O         -2.82460       -3.34690        3.78890
C         -1.62200       -3.43900        4.51390
C         -4.07440       -2.85230        1.87200
O         -5.09010       -3.31400        2.63460
C         -6.38510       -3.33360        2.08440
C         -4.18890       -2.39530        0.59150
C         -4.06830       -1.04710       -2.27470
C         -3.99480       -1.28300       -3.62980
O         -5.14030       -1.00460       -4.24120
C         -5.99680       -0.57300       -3.29620
N         -7.29780       -0.21520       -3.70310
O         -7.56540       -0.30530       -4.88150
O         -8.06860        0.15650       -2.83310
C         -5.39600       -0.55280       -2.04190
C         -5.99880       -0.10730       -0.81420
C         -5.28420        0.32720        0.23520
C         -5.83500        0.67800        1.51660
C         -7.15260        0.88660        1.85980
O         -7.27780        1.12900        3.15660
C         -6.04380        1.06570        3.70550
N         -5.98740        1.37340        5.08660
O         -4.90760        1.32430        5.64280
O         -7.03210        1.67790        5.62080
C         -5.08710        0.79370        2.73790
C         -3.65080        0.63850        2.82220
C         -2.96570        0.16260        3.85460
H          4.72450        0.23820        3.29120
H          4.87650       -2.18710        1.93660
H          3.91480       -4.19220        1.06950
H          4.89420       -5.39300        0.19120
H          5.66480       -4.34200        1.40640
H          6.03900       -2.17160       -4.43700
H          6.90470       -0.85700       -3.60300
H          5.15360       -0.71090       -3.92330
H          5.80640        0.58890       -2.09990
H          6.43900        4.63150        0.44320
H          3.95720        2.31650       -3.77450
H          3.02960        1.35160       -1.01850
H          2.60700        0.55990       -4.96320
H          2.62040       -0.75530       -0.14770
H          0.81190       -1.42930        1.17530
H         -0.70020       -2.49190        2.33570
H         -0.91000       -4.11090        4.02440
H         -1.89590       -3.84780        5.48460
H         -1.16160       -2.45570        4.65220
H         -7.03380       -3.70870        2.87380
H         -6.44330       -4.00130        1.21940
H         -6.70980       -2.33000        1.78920
H         -5.12810       -2.42180        0.06780
H         -3.18670       -1.66170       -4.22590
H         -7.07820       -0.12860       -0.78470
H         -4.21100        0.39560        0.15190
H         -8.04450        0.90460        1.26390
H         -3.12450        0.90840        1.91570
H         -3.43230       -0.14210        4.77300
H         -1.89380        0.07900        3.79970
