
  xtb     03022217073D
 energy: -412.740441325910 gnorm: 0.000203465579 xtb: 6.4.1 (unknown)
212235  0     0  0            999 V2000
    2.1448   12.4445   14.0741 C   0  0  0  0  0  0  0  0  0  0  0  0
    3.2579   11.9000   13.5413 C   0  0  0  0  0  0  0  0  0  0  0  0
    3.0894   11.5192   12.1782 C   0  0  0  0  0  0  0  0  0  0  0  0
    4.0167   10.8912   11.3309 C   0  0  0  0  0  0  0  0  0  0  0  0
    5.3416   10.5100   11.7951 C   0  0  0  0  0  0  0  0  0  0  0  0
    5.5520    9.5029   13.1976 S   0  0  0  0  0  0  0  0  0  0  0  0
    7.2743    9.4872   13.0271 C   0  0  0  0  0  0  0  0  0  0  0  0
    8.1355    8.7013   13.9529 C   0  0  0  0  0  0  0  0  0  0  0  0
    8.2345    7.2421   13.5019 C   0  0  0  0  0  0  0  0  0  0  0  0
    7.6474   10.2185   11.9396 C   0  0  0  0  0  0  0  0  0  0  0  0
    9.2766   10.4376   11.4477 Cl  0  0  0  0  0  0  0  0  0  0  0  0
    6.5562   10.8017   11.2403 C   0  0  0  0  0  0  0  0  0  0  0  0
    6.7766   11.8316    9.8884 Cl  0  0  0  0  0  0  0  0  0  0  0  0
    3.5999   10.6117   10.0353 C   0  0  0  0  0  0  0  0  0  0  0  0
    2.3061   10.9411    9.5636 C   0  0  0  0  0  0  0  0  0  0  0  0
    1.3719   11.5560   10.4130 C   0  0  0  0  0  0  0  0  0  0  0  0
    0.0184   11.8138    9.9490 C   0  0  0  0  0  0  0  0  0  0  0  0
   -0.9219   10.5314    9.2396 S   0  0  0  0  0  0  0  0  0  0  0  0
   -2.2745   11.5714    8.9510 C   0  0  0  0  0  0  0  0  0  0  0  0
   -3.4878   11.0618    8.2547 C   0  0  0  0  0  0  0  0  0  0  0  0
   -3.1774   10.7025    6.8001 C   0  0  0  0  0  0  0  0  0  0  0  0
   -2.0008   12.8317    9.3909 C   0  0  0  0  0  0  0  0  0  0  0  0
   -0.7061   12.9720    9.9633 C   0  0  0  0  0  0  0  0  0  0  0  0
   -0.1077   14.4774   10.5208 Cl  0  0  0  0  0  0  0  0  0  0  0  0
   -3.0951   14.1489    9.2749 Cl  0  0  0  0  0  0  0  0  0  0  0  0
    1.7920   11.8373   11.7071 C   0  0  0  0  0  0  0  0  0  0  0  0
    0.8228   12.5464   12.9659 S   0  0  0  0  0  0  0  0  0  0  0  0
    2.1212   10.5463    8.2178 C   0  0  0  0  0  0  0  0  0  0  0  0
    3.1908    9.8888    7.6885 C   0  0  0  0  0  0  0  0  0  0  0  0
    4.5184    9.7622    8.8217 S   0  0  0  0  0  0  0  0  0  0  0  0
    3.2361    9.2798    6.4007 C   0  0  0  0  0  0  0  0  0  0  0  0
    4.1740    8.4403    5.8785 C   0  0  0  0  0  0  0  0  0  0  0  0
    3.8034    7.8909    4.6253 C   0  0  0  0  0  0  0  0  0  0  0  0
    4.5170    6.9808    3.8260 C   0  0  0  0  0  0  0  0  0  0  0  0
    5.8290    6.4855    4.2068 C   0  0  0  0  0  0  0  0  0  0  0  0
    6.1222    5.7706    5.7650 S   0  0  0  0  0  0  0  0  0  0  0  0
    7.7778    5.4372    5.3904 C   0  0  0  0  0  0  0  0  0  0  0  0
    8.6628    4.7271    6.3541 C   0  0  0  0  0  0  0  0  0  0  0  0
    8.5619    3.2107    6.1713 C   0  0  0  0  0  0  0  0  0  0  0  0
    8.0701    5.8563    4.1271 C   0  0  0  0  0  0  0  0  0  0  0  0
    9.6168    5.6973    3.4022 Cl  0  0  0  0  0  0  0  0  0  0  0  0
    6.9706    6.4525    3.4537 C   0  0  0  0  0  0  0  0  0  0  0  0
    7.1144    7.1324    1.8875 Cl  0  0  0  0  0  0  0  0  0  0  0  0
    3.8968    6.5440    2.6610 C   0  0  0  0  0  0  0  0  0  0  0  0
    2.6269    7.0111    2.2419 C   0  0  0  0  0  0  0  0  0  0  0  0
    1.9325    7.9591    3.0145 C   0  0  0  0  0  0  0  0  0  0  0  0
    0.6413    8.4738    2.5890 C   0  0  0  0  0  0  0  0  0  0  0  0
    0.4455    9.1541    0.9981 S   0  0  0  0  0  0  0  0  0  0  0  0
   -1.2216    9.5250    1.2716 C   0  0  0  0  0  0  0  0  0  0  0  0
   -2.0393   10.2184    0.2385 C   0  0  0  0  0  0  0  0  0  0  0  0
   -1.9214   11.7381    0.3786 C   0  0  0  0  0  0  0  0  0  0  0  0
   -1.5881    9.1465    2.5284 C   0  0  0  0  0  0  0  0  0  0  0  0
   -0.5400    8.5443    3.2753 C   0  0  0  0  0  0  0  0  0  0  0  0
   -0.8019    7.8910    4.8377 Cl  0  0  0  0  0  0  0  0  0  0  0  0
   -3.1663    9.3555    3.1672 Cl  0  0  0  0  0  0  0  0  0  0  0  0
    2.5356    8.3627    4.1976 C   0  0  0  0  0  0  0  0  0  0  0  0
    1.8631    9.4893    5.3347 S   0  0  0  0  0  0  0  0  0  0  0  0
    2.1668    6.3330    1.0899 C   0  0  0  0  0  0  0  0  0  0  0  0
    3.0263    5.3694    0.6453 C   0  0  0  0  0  0  0  0  0  0  0  0
    4.4843    5.2913    1.6064 S   0  0  0  0  0  0  0  0  0  0  0  0
    2.7853    4.4323   -0.4036 C   0  0  0  0  0  0  0  0  0  0  0  0
    1.6525    4.3284   -1.1586 C   0  0  0  0  0  0  0  0  0  0  0  0
    1.6468    3.2049   -2.0174 C   0  0  0  0  0  0  0  0  0  0  0  0
    0.6143    2.7876   -2.8795 C   0  0  0  0  0  0  0  0  0  0  0  0
   -0.5344    3.6376   -3.1269 C   0  0  0  0  0  0  0  0  0  0  0  0
   -2.1605    3.0262   -3.0446 S   0  0  0  0  0  0  0  0  0  0  0  0
   -2.8452    4.5714   -3.4148 C   0  0  0  0  0  0  0  0  0  0  0  0
   -4.3164    4.7432   -3.5618 C   0  0  0  0  0  0  0  0  0  0  0  0
   -4.7850    4.2503   -4.9330 C   0  0  0  0  0  0  0  0  0  0  0  0
   -1.8593    5.4940   -3.6017 C   0  0  0  0  0  0  0  0  0  0  0  0
   -2.1483    7.1414   -3.9868 Cl  0  0  0  0  0  0  0  0  0  0  0  0
   -0.5491    4.9717   -3.4374 C   0  0  0  0  0  0  0  0  0  0  0  0
    0.8549    5.9250   -3.7032 Cl  0  0  0  0  0  0  0  0  0  0  0  0
    0.7434    1.5225   -3.4367 C   0  0  0  0  0  0  0  0  0  0  0  0
    1.8932    0.7162   -3.2483 C   0  0  0  0  0  0  0  0  0  0  0  0
    2.9919    1.2036   -2.5146 C   0  0  0  0  0  0  0  0  0  0  0  0
    4.2201    0.4381   -2.4235 C   0  0  0  0  0  0  0  0  0  0  0  0
    5.0237    0.1672   -0.9048 S   0  0  0  0  0  0  0  0  0  0  0  0
    6.2760   -0.7705   -1.6443 C   0  0  0  0  0  0  0  0  0  0  0  0
    7.4072   -1.3112   -0.8421 C   0  0  0  0  0  0  0  0  0  0  0  0
    8.4663   -0.2330   -0.6004 C   0  0  0  0  0  0  0  0  0  0  0  0
    6.0791   -0.8475   -2.9910 C   0  0  0  0  0  0  0  0  0  0  0  0
    4.9146   -0.1676   -3.4371 C   0  0  0  0  0  0  0  0  0  0  0  0
    4.5009   -0.0596   -5.1000 Cl  0  0  0  0  0  0  0  0  0  0  0  0
    7.1171   -1.6923   -4.0655 Cl  0  0  0  0  0  0  0  0  0  0  0  0
    2.8179    2.4218   -1.8708 C   0  0  0  0  0  0  0  0  0  0  0  0
    3.9324    3.1579   -0.7546 S   0  0  0  0  0  0  0  0  0  0  0  0
    1.7275   -0.5752   -3.8001 C   0  0  0  0  0  0  0  0  0  0  0  0
    0.5226   -0.7549   -4.4168 C   0  0  0  0  0  0  0  0  0  0  0  0
   -0.4592    0.6938   -4.3833 S   0  0  0  0  0  0  0  0  0  0  0  0
    0.0115   -1.9708   -4.9590 C   0  0  0  0  0  0  0  0  0  0  0  0
    0.5928   -3.2048   -4.8839 C   0  0  0  0  0  0  0  0  0  0  0  0
   -0.2065   -4.2390   -5.4198 C   0  0  0  0  0  0  0  0  0  0  0  0
    0.0550   -5.6237   -5.4120 C   0  0  0  0  0  0  0  0  0  0  0  0
    1.3488   -6.1383   -5.0056 C   0  0  0  0  0  0  0  0  0  0  0  0
    1.4940   -7.4669   -3.8912 S   0  0  0  0  0  0  0  0  0  0  0  0
    3.2237   -7.4325   -3.9485 C   0  0  0  0  0  0  0  0  0  0  0  0
    4.0369   -8.4284   -3.1981 C   0  0  0  0  0  0  0  0  0  0  0  0
    4.1064   -9.7558   -3.9571 C   0  0  0  0  0  0  0  0  0  0  0  0
    3.6491   -6.4534   -4.7953 C   0  0  0  0  0  0  0  0  0  0  0  0
    5.3008   -6.1138   -5.1162 Cl  0  0  0  0  0  0  0  0  0  0  0  0
    2.5921   -5.7166   -5.3948 C   0  0  0  0  0  0  0  0  0  0  0  0
    2.8849   -4.4881   -6.5589 Cl  0  0  0  0  0  0  0  0  0  0  0  0
   -0.9898   -6.4539   -5.7863 C   0  0  0  0  0  0  0  0  0  0  0  0
   -2.2404   -5.9757   -6.2510 C   0  0  0  0  0  0  0  0  0  0  0  0
   -2.4618   -4.5891   -6.3554 C   0  0  0  0  0  0  0  0  0  0  0  0
   -3.7120   -4.0480   -6.8582 C   0  0  0  0  0  0  0  0  0  0  0  0
   -5.2495   -4.5494   -6.2162 S   0  0  0  0  0  0  0  0  0  0  0  0
   -6.1245   -3.4693   -7.2470 C   0  0  0  0  0  0  0  0  0  0  0  0
   -7.6128   -3.4360   -7.2403 C   0  0  0  0  0  0  0  0  0  0  0  0
   -8.1882   -4.5830   -8.0747 C   0  0  0  0  0  0  0  0  0  0  0  0
   -5.2633   -2.7751   -8.0422 C   0  0  0  0  0  0  0  0  0  0  0  0
   -3.8964   -3.0934   -7.8203 C   0  0  0  0  0  0  0  0  0  0  0  0
   -2.6323   -2.3985   -8.7456 Cl  0  0  0  0  0  0  0  0  0  0  0  0
   -5.7587   -1.6160   -9.2065 Cl  0  0  0  0  0  0  0  0  0  0  0  0
   -1.4449   -3.7545   -5.9072 C   0  0  0  0  0  0  0  0  0  0  0  0
   -1.5561   -2.0268   -5.7324 S   0  0  0  0  0  0  0  0  0  0  0  0
   -3.1297   -7.0306   -6.5481 C   0  0  0  0  0  0  0  0  0  0  0  0
   -2.6247   -8.2809   -6.2995 C   0  0  0  0  0  0  0  0  0  0  0  0
   -0.9612   -8.1926   -5.7431 S   0  0  0  0  0  0  0  0  0  0  0  0
   -3.3308   -9.5040   -6.4089 C   0  0  0  0  0  0  0  0  0  0  0  0
   -4.9804   -9.4586   -6.9659 S   0  0  0  0  0  0  0  0  0  0  0  0
   -5.2012  -11.1598   -6.7281 C   0  0  0  0  0  0  0  0  0  0  0  0
   -4.0195  -11.7507   -6.2810 C   0  0  0  0  0  0  0  0  0  0  0  0
   -2.9629  -10.8121   -6.0808 C   0  0  0  0  0  0  0  0  0  0  0  0
   -1.7215  -11.2732   -5.5923 C   0  0  0  0  0  0  0  0  0  0  0  0
   -1.5285  -12.6029   -5.3412 C   0  0  0  0  0  0  0  0  0  0  0  0
   -0.3875  -13.1457   -4.8534 O   0  0  0  0  0  0  0  0  0  0  0  0
    0.6916  -12.2875   -4.5722 C   0  0  0  0  0  0  0  0  0  0  0  0
   -2.5730  -13.5566   -5.6167 C   0  0  0  0  0  0  0  0  0  0  0  0
   -2.2344  -14.8486   -5.3731 O   0  0  0  0  0  0  0  0  0  0  0  0
   -3.1841  -15.8473   -5.6494 C   0  0  0  0  0  0  0  0  0  0  0  0
   -3.7822  -13.1310   -6.0847 C   0  0  0  0  0  0  0  0  0  0  0  0
   -6.4659  -11.7732   -6.9573 C   0  0  0  0  0  0  0  0  0  0  0  0
   -7.4474  -11.3192   -8.3179 S   0  0  0  0  0  0  0  0  0  0  0  0
   -8.6590  -12.4547   -7.9149 C   0  0  0  0  0  0  0  0  0  0  0  0
   -8.3586  -13.1517   -6.7682 C   0  0  0  0  0  0  0  0  0  0  0  0
   -7.1059  -12.7522   -6.2010 C   0  0  0  0  0  0  0  0  0  0  0  0
   -6.7043  -13.2931   -4.9570 C   0  0  0  0  0  0  0  0  0  0  0  0
   -7.4708  -14.2447   -4.3504 C   0  0  0  0  0  0  0  0  0  0  0  0
   -7.1883  -14.8390   -3.1629 O   0  0  0  0  0  0  0  0  0  0  0  0
   -6.0443  -14.4190   -2.4627 C   0  0  0  0  0  0  0  0  0  0  0  0
   -8.7000  -14.7008   -4.9593 C   0  0  0  0  0  0  0  0  0  0  0  0
   -9.3396  -15.6649   -4.2504 O   0  0  0  0  0  0  0  0  0  0  0  0
  -10.5657  -16.1462   -4.7402 C   0  0  0  0  0  0  0  0  0  0  0  0
   -9.1343  -14.1523   -6.1287 C   0  0  0  0  0  0  0  0  0  0  0  0
    2.0051   12.8113   15.0722 H   0  0  0  0  0  0  0  0  0  0  0  0
    4.1751   11.7683   14.0849 H   0  0  0  0  0  0  0  0  0  0  0  0
    7.7177    8.7422   14.9603 H   0  0  0  0  0  0  0  0  0  0  0  0
    9.1314    9.1479   13.9674 H   0  0  0  0  0  0  0  0  0  0  0  0
    8.8704    6.6835   14.1832 H   0  0  0  0  0  0  0  0  0  0  0  0
    7.2485    6.7837   13.4880 H   0  0  0  0  0  0  0  0  0  0  0  0
    8.6586    7.1852   12.5026 H   0  0  0  0  0  0  0  0  0  0  0  0
   -3.8586   10.1736    8.7720 H   0  0  0  0  0  0  0  0  0  0  0  0
   -4.2593   11.8323    8.2924 H   0  0  0  0  0  0  0  0  0  0  0  0
   -4.0734   10.3363    6.3062 H   0  0  0  0  0  0  0  0  0  0  0  0
   -2.8166   11.5757    6.2619 H   0  0  0  0  0  0  0  0  0  0  0  0
   -2.4148    9.9285    6.7554 H   0  0  0  0  0  0  0  0  0  0  0  0
    1.2232   10.7265    7.6559 H   0  0  0  0  0  0  0  0  0  0  0  0
    5.0874    8.2040    6.3934 H   0  0  0  0  0  0  0  0  0  0  0  0
    9.6929    5.0466    6.1847 H   0  0  0  0  0  0  0  0  0  0  0  0
    8.3758    4.9918    7.3730 H   0  0  0  0  0  0  0  0  0  0  0  0
    7.5408    2.8771    6.3403 H   0  0  0  0  0  0  0  0  0  0  0  0
    9.2162    2.7055    6.8766 H   0  0  0  0  0  0  0  0  0  0  0  0
    8.8556    2.9333    5.1623 H   0  0  0  0  0  0  0  0  0  0  0  0
   -1.7004    9.9166   -0.7539 H   0  0  0  0  0  0  0  0  0  0  0  0
   -3.0829    9.9208    0.3582 H   0  0  0  0  0  0  0  0  0  0  0  0
   -2.5212   12.2303   -0.3821 H   0  0  0  0  0  0  0  0  0  0  0  0
   -0.8859   12.0488    0.2622 H   0  0  0  0  0  0  0  0  0  0  0  0
   -2.2714   12.0542    1.3581 H   0  0  0  0  0  0  0  0  0  0  0  0
    1.2161    6.5288    0.6314 H   0  0  0  0  0  0  0  0  0  0  0  0
    0.8233    5.0040   -1.0689 H   0  0  0  0  0  0  0  0  0  0  0  0
   -4.5595    5.8009   -3.4471 H   0  0  0  0  0  0  0  0  0  0  0  0
   -4.8281    4.1786   -2.7802 H   0  0  0  0  0  0  0  0  0  0  0  0
   -5.8600    4.3770   -5.0282 H   0  0  0  0  0  0  0  0  0  0  0  0
   -4.5437    3.1973   -5.0570 H   0  0  0  0  0  0  0  0  0  0  0  0
   -4.2963    4.8140   -5.7237 H   0  0  0  0  0  0  0  0  0  0  0  0
    7.8514   -2.1484   -1.3834 H   0  0  0  0  0  0  0  0  0  0  0  0
    7.0324   -1.6723    0.1174 H   0  0  0  0  0  0  0  0  0  0  0  0
    9.2851   -0.6389   -0.0125 H   0  0  0  0  0  0  0  0  0  0  0  0
    8.0323    0.6075   -0.0641 H   0  0  0  0  0  0  0  0  0  0  0  0
    8.8615    0.1257   -1.5474 H   0  0  0  0  0  0  0  0  0  0  0  0
    2.4590   -1.3548   -3.7039 H   0  0  0  0  0  0  0  0  0  0  0  0
    1.5415   -3.3766   -4.4121 H   0  0  0  0  0  0  0  0  0  0  0  0
    5.0432   -8.0285   -3.0637 H   0  0  0  0  0  0  0  0  0  0  0  0
    3.5913   -8.5958   -2.2159 H   0  0  0  0  0  0  0  0  0  0  0  0
    4.7024  -10.4739   -3.4007 H   0  0  0  0  0  0  0  0  0  0  0  0
    4.5613   -9.6071   -4.9331 H   0  0  0  0  0  0  0  0  0  0  0  0
    3.1074  -10.1628   -4.0969 H   0  0  0  0  0  0  0  0  0  0  0  0
   -7.9736   -3.5185   -6.2134 H   0  0  0  0  0  0  0  0  0  0  0  0
   -7.9422   -2.4806   -7.6522 H   0  0  0  0  0  0  0  0  0  0  0  0
   -9.2741   -4.5452   -8.0628 H   0  0  0  0  0  0  0  0  0  0  0  0
   -7.8480   -4.5071   -9.1043 H   0  0  0  0  0  0  0  0  0  0  0  0
   -7.8669   -5.5408   -7.6720 H   0  0  0  0  0  0  0  0  0  0  0  0
   -4.1298   -6.8828   -6.9126 H   0  0  0  0  0  0  0  0  0  0  0  0
   -0.9315  -10.5644   -5.4210 H   0  0  0  0  0  0  0  0  0  0  0  0
    1.0439  -11.7780   -5.4750 H   0  0  0  0  0  0  0  0  0  0  0  0
    1.4821  -12.9286   -4.1857 H   0  0  0  0  0  0  0  0  0  0  0  0
    0.4244  -11.5399   -3.8179 H   0  0  0  0  0  0  0  0  0  0  0  0
   -3.4512  -15.8657   -6.7110 H   0  0  0  0  0  0  0  0  0  0  0  0
   -2.7085  -16.7885   -5.3794 H   0  0  0  0  0  0  0  0  0  0  0  0
   -4.0950  -15.7179   -5.0544 H   0  0  0  0  0  0  0  0  0  0  0  0
   -4.5691  -13.8249   -6.3274 H   0  0  0  0  0  0  0  0  0  0  0  0
   -9.5259  -12.5486   -8.5375 H   0  0  0  0  0  0  0  0  0  0  0  0
   -5.8023  -12.9219   -4.5003 H   0  0  0  0  0  0  0  0  0  0  0  0
   -5.1271  -14.6051   -3.0326 H   0  0  0  0  0  0  0  0  0  0  0  0
   -6.0965  -13.3554   -2.2082 H   0  0  0  0  0  0  0  0  0  0  0  0
   -6.0257  -15.0098   -1.5486 H   0  0  0  0  0  0  0  0  0  0  0  0
  -10.8944  -16.8977   -4.0244 H   0  0  0  0  0  0  0  0  0  0  0  0
  -10.4510  -16.6090   -5.7260 H   0  0  0  0  0  0  0  0  0  0  0  0
  -11.3144  -15.3493   -4.7998 H   0  0  0  0  0  0  0  0  0  0  0  0
  -10.0633  -14.4482   -6.5876 H   0  0  0  0  0  0  0  0  0  0  0  0
  1  2  2  0  0  0  0
  2  3  1  0  0  0  0
  3  4  2  0  0  0  0
  4  5  1  0  0  0  0
  5  6  1  0  0  0  0
  6  7  1  0  0  0  0
  7  8  1  0  0  0  0
  8  9  1  0  0  0  0
  7 10  2  0  0  0  0
 10 11  1  0  0  0  0
 10 12  1  0  0  0  0
 12 13  1  0  0  0  0
  4 14  1  0  0  0  0
 14 15  2  0  0  0  0
 15 16  1  0  0  0  0
 16 17  1  0  0  0  0
 17 18  1  0  0  0  0
 18 19  1  0  0  0  0
 19 20  1  0  0  0  0
 20 21  1  0  0  0  0
 19 22  2  0  0  0  0
 22 23  1  0  0  0  0
 23 24  1  0  0  0  0
 22 25  1  0  0  0  0
 16 26  2  0  0  0  0
 26 27  1  0  0  0  0
 15 28  1  0  0  0  0
 28 29  2  0  0  0  0
 29 30  1  0  0  0  0
 29 31  1  0  0  0  0
 31 32  2  0  0  0  0
 32 33  1  0  0  0  0
 33 34  2  0  0  0  0
 34 35  1  0  0  0  0
 35 36  1  0  0  0  0
 36 37  1  0  0  0  0
 37 38  1  0  0  0  0
 38 39  1  0  0  0  0
 37 40  2  0  0  0  0
 40 41  1  0  0  0  0
 40 42  1  0  0  0  0
 42 43  1  0  0  0  0
 34 44  1  0  0  0  0
 44 45  2  0  0  0  0
 45 46  1  0  0  0  0
 46 47  1  0  0  0  0
 47 48  1  0  0  0  0
 48 49  1  0  0  0  0
 49 50  1  0  0  0  0
 50 51  1  0  0  0  0
 49 52  2  0  0  0  0
 52 53  1  0  0  0  0
 53 54  1  0  0  0  0
 52 55  1  0  0  0  0
 46 56  2  0  0  0  0
 56 57  1  0  0  0  0
 45 58  1  0  0  0  0
 58 59  2  0  0  0  0
 59 60  1  0  0  0  0
 59 61  1  0  0  0  0
 61 62  2  0  0  0  0
 62 63  1  0  0  0  0
 63 64  2  0  0  0  0
 64 65  1  0  0  0  0
 65 66  1  0  0  0  0
 66 67  1  0  0  0  0
 67 68  1  0  0  0  0
 68 69  1  0  0  0  0
 67 70  2  0  0  0  0
 70 71  1  0  0  0  0
 70 72  1  0  0  0  0
 72 73  1  0  0  0  0
 64 74  1  0  0  0  0
 74 75  2  0  0  0  0
 75 76  1  0  0  0  0
 76 77  1  0  0  0  0
 77 78  1  0  0  0  0
 78 79  1  0  0  0  0
 79 80  1  0  0  0  0
 80 81  1  0  0  0  0
 79 82  2  0  0  0  0
 82 83  1  0  0  0  0
 83 84  1  0  0  0  0
 82 85  1  0  0  0  0
 76 86  2  0  0  0  0
 86 87  1  0  0  0  0
 75 88  1  0  0  0  0
 88 89  2  0  0  0  0
 89 90  1  0  0  0  0
 89 91  1  0  0  0  0
 91 92  2  0  0  0  0
 92 93  1  0  0  0  0
 93 94  2  0  0  0  0
 94 95  1  0  0  0  0
 95 96  1  0  0  0  0
 96 97  1  0  0  0  0
 97 98  1  0  0  0  0
 98 99  1  0  0  0  0
 97100  2  0  0  0  0
100101  1  0  0  0  0
100102  1  0  0  0  0
102103  1  0  0  0  0
 94104  1  0  0  0  0
104105  2  0  0  0  0
105106  1  0  0  0  0
106107  1  0  0  0  0
107108  1  0  0  0  0
108109  1  0  0  0  0
109110  1  0  0  0  0
110111  1  0  0  0  0
109112  2  0  0  0  0
112113  1  0  0  0  0
113114  1  0  0  0  0
112115  1  0  0  0  0
106116  2  0  0  0  0
116117  1  0  0  0  0
105118  1  0  0  0  0
118119  2  0  0  0  0
119120  1  0  0  0  0
119121  1  0  0  0  0
121122  1  0  0  0  0
122123  1  0  0  0  0
123124  2  0  0  0  0
124125  1  0  0  0  0
125126  1  0  0  0  0
126127  2  0  0  0  0
127128  1  0  0  0  0
128129  1  0  0  0  0
127130  1  0  0  0  0
130131  1  0  0  0  0
131132  1  0  0  0  0
130133  2  0  0  0  0
123134  1  0  0  0  0
134135  1  0  0  0  0
135136  1  0  0  0  0
136137  2  0  0  0  0
137138  1  0  0  0  0
138139  1  0  0  0  0
139140  2  0  0  0  0
140141  1  0  0  0  0
141142  1  0  0  0  0
140143  1  0  0  0  0
143144  1  0  0  0  0
144145  1  0  0  0  0
143146  2  0  0  0  0
 27  1  1  0  0  0  0
 57 31  1  0  0  0  0
 87 61  1  0  0  0  0
117 91  1  0  0  0  0
125121  2  0  0  0  0
138134  2  0  0  0  0
 26  3  1  0  0  0  0
 56 33  1  0  0  0  0
 86 63  1  0  0  0  0
116 93  1  0  0  0  0
133124  1  0  0  0  0
146137  1  0  0  0  0
 12  5  2  0  0  0  0
 30 14  1  0  0  0  0
 42 35  2  0  0  0  0
 60 44  1  0  0  0  0
 72 65  2  0  0  0  0
 90 74  1  0  0  0  0
102 95  2  0  0  0  0
120104  1  0  0  0  0
 23 17  2  0  0  0  0
 53 47  2  0  0  0  0
 83 77  2  0  0  0  0
113107  2  0  0  0  0
  1147  1  0  0  0  0
  2148  1  0  0  0  0
  8149  1  0  0  0  0
  8150  1  0  0  0  0
  9151  1  0  0  0  0
  9152  1  0  0  0  0
  9153  1  0  0  0  0
 20154  1  0  0  0  0
 20155  1  0  0  0  0
 21156  1  0  0  0  0
 21157  1  0  0  0  0
 21158  1  0  0  0  0
 28159  1  0  0  0  0
 32160  1  0  0  0  0
 38161  1  0  0  0  0
 38162  1  0  0  0  0
 39163  1  0  0  0  0
 39164  1  0  0  0  0
 39165  1  0  0  0  0
 50166  1  0  0  0  0
 50167  1  0  0  0  0
 51168  1  0  0  0  0
 51169  1  0  0  0  0
 51170  1  0  0  0  0
 58171  1  0  0  0  0
 62172  1  0  0  0  0
 68173  1  0  0  0  0
 68174  1  0  0  0  0
 69175  1  0  0  0  0
 69176  1  0  0  0  0
 69177  1  0  0  0  0
 80178  1  0  0  0  0
 80179  1  0  0  0  0
 81180  1  0  0  0  0
 81181  1  0  0  0  0
 81182  1  0  0  0  0
 88183  1  0  0  0  0
 92184  1  0  0  0  0
 98185  1  0  0  0  0
 98186  1  0  0  0  0
 99187  1  0  0  0  0
 99188  1  0  0  0  0
 99189  1  0  0  0  0
110190  1  0  0  0  0
110191  1  0  0  0  0
111192  1  0  0  0  0
111193  1  0  0  0  0
111194  1  0  0  0  0
118195  1  0  0  0  0
126196  1  0  0  0  0
129197  1  0  0  0  0
129198  1  0  0  0  0
129199  1  0  0  0  0
132200  1  0  0  0  0
132201  1  0  0  0  0
132202  1  0  0  0  0
133203  1  0  0  0  0
136204  1  0  0  0  0
139205  1  0  0  0  0
142206  1  0  0  0  0
142207  1  0  0  0  0
142208  1  0  0  0  0
145209  1  0  0  0  0
145210  1  0  0  0  0
145211  1  0  0  0  0
146212  1  0  0  0  0
M  END
