
  xtb     03022221443D
 energy: -317.524619865171 gnorm: 0.000385645206 xtb: 6.4.1 (unknown)
170187  0     0  0            999 V2000
    8.2604   -4.4101   10.6893 C   0  0  0  0  0  0  0  0  0  0  0  0
    7.1588   -3.6253    9.6504 S   0  0  0  0  0  0  0  0  0  0  0  0
    7.4421   -4.7638    8.3637 C   0  0  0  0  0  0  0  0  0  0  0  0
    8.3744   -5.7222    8.7610 C   0  0  0  0  0  0  0  0  0  0  0  0
    8.8402   -5.5086   10.0993 C   0  0  0  0  0  0  0  0  0  0  0  0
    9.7981   -6.3848   10.6685 C   0  0  0  0  0  0  0  0  0  0  0  0
   10.2716   -7.4346    9.9402 C   0  0  0  0  0  0  0  0  0  0  0  0
   11.1885   -8.3416   10.3610 O   0  0  0  0  0  0  0  0  0  0  0  0
   11.7125   -8.2015   11.6575 C   0  0  0  0  0  0  0  0  0  0  0  0
    9.7947   -7.6593    8.5953 C   0  0  0  0  0  0  0  0  0  0  0  0
   10.3376   -8.7425    7.9892 O   0  0  0  0  0  0  0  0  0  0  0  0
    9.9360   -9.0425    6.6749 C   0  0  0  0  0  0  0  0  0  0  0  0
    8.8743   -6.8227    8.0311 C   0  0  0  0  0  0  0  0  0  0  0  0
    6.7483   -4.5834    7.1376 C   0  0  0  0  0  0  0  0  0  0  0  0
    5.8073   -3.6249    6.8748 C   0  0  0  0  0  0  0  0  0  0  0  0
    5.3029   -3.6534    5.5555 C   0  0  0  0  0  0  0  0  0  0  0  0
    4.3650   -2.7901    4.9595 C   0  0  0  0  0  0  0  0  0  0  0  0
    3.8263   -1.6455    5.6734 C   0  0  0  0  0  0  0  0  0  0  0  0
    2.1120   -1.3777    5.7817 S   0  0  0  0  0  0  0  0  0  0  0  0
    2.3180    0.0810    6.6915 C   0  0  0  0  0  0  0  0  0  0  0  0
    1.1418    0.8932    7.1082 C   0  0  0  0  0  0  0  0  0  0  0  0
    0.4513    1.5240    5.8976 C   0  0  0  0  0  0  0  0  0  0  0  0
    3.6426    0.3338    6.8859 C   0  0  0  0  0  0  0  0  0  0  0  0
    4.2472    1.6969    7.7365 Cl  0  0  0  0  0  0  0  0  0  0  0  0
    4.5009   -0.6445    6.3147 C   0  0  0  0  0  0  0  0  0  0  0  0
    6.2117   -0.5117    6.3651 Cl  0  0  0  0  0  0  0  0  0  0  0  0
    3.9857   -3.0736    3.6558 C   0  0  0  0  0  0  0  0  0  0  0  0
    4.5185   -4.1535    2.9111 C   0  0  0  0  0  0  0  0  0  0  0  0
    5.5114   -4.9726    3.4818 C   0  0  0  0  0  0  0  0  0  0  0  0
    6.1564   -6.0171    2.7061 C   0  0  0  0  0  0  0  0  0  0  0  0
    6.3086   -7.6434    3.3030 S   0  0  0  0  0  0  0  0  0  0  0  0
    7.1291   -8.1771    1.8746 C   0  0  0  0  0  0  0  0  0  0  0  0
    7.5340   -9.5996    1.7047 C   0  0  0  0  0  0  0  0  0  0  0  0
    6.3584  -10.4519    1.2210 C   0  0  0  0  0  0  0  0  0  0  0  0
    7.2649   -7.1461    0.9942 C   0  0  0  0  0  0  0  0  0  0  0  0
    6.7232   -5.9204    1.4648 C   0  0  0  0  0  0  0  0  0  0  0  0
    6.8710   -4.4527    0.5838 Cl  0  0  0  0  0  0  0  0  0  0  0  0
    8.0283   -7.2861   -0.5390 Cl  0  0  0  0  0  0  0  0  0  0  0  0
    5.8595   -4.7123    4.7988 C   0  0  0  0  0  0  0  0  0  0  0  0
    7.0362   -5.5941    5.7293 S   0  0  0  0  0  0  0  0  0  0  0  0
    3.9390   -4.2526    1.6253 C   0  0  0  0  0  0  0  0  0  0  0  0
    3.0501   -3.2524    1.3411 C   0  0  0  0  0  0  0  0  0  0  0  0
    2.8485   -2.1615    2.7078 S   0  0  0  0  0  0  0  0  0  0  0  0
    2.3147   -2.9924    0.1548 C   0  0  0  0  0  0  0  0  0  0  0  0
    0.9311   -1.9532    0.2464 S   0  0  0  0  0  0  0  0  0  0  0  0
    0.6033   -2.0857   -1.4526 C   0  0  0  0  0  0  0  0  0  0  0  0
    1.5470   -2.9133   -2.0694 C   0  0  0  0  0  0  0  0  0  0  0  0
    2.5281   -3.4166   -1.1604 C   0  0  0  0  0  0  0  0  0  0  0  0
    3.5925   -4.2004   -1.6558 C   0  0  0  0  0  0  0  0  0  0  0  0
    3.6603   -4.5136   -2.9849 C   0  0  0  0  0  0  0  0  0  0  0  0
    4.6340   -5.2525   -3.5660 O   0  0  0  0  0  0  0  0  0  0  0  0
    5.6660   -5.7558   -2.7525 C   0  0  0  0  0  0  0  0  0  0  0  0
    2.6448   -4.0446   -3.8918 C   0  0  0  0  0  0  0  0  0  0  0  0
    2.8154   -4.4325   -5.1782 O   0  0  0  0  0  0  0  0  0  0  0  0
    1.8852   -3.9880   -6.1357 C   0  0  0  0  0  0  0  0  0  0  0  0
    1.6252   -3.2577   -3.4354 C   0  0  0  0  0  0  0  0  0  0  0  0
   -0.4805   -1.3398   -1.9805 C   0  0  0  0  0  0  0  0  0  0  0  0
   -1.2826   -0.4882   -1.2659 C   0  0  0  0  0  0  0  0  0  0  0  0
   -2.2394    0.1983   -2.0424 C   0  0  0  0  0  0  0  0  0  0  0  0
   -3.2017    1.1355   -1.6144 C   0  0  0  0  0  0  0  0  0  0  0  0
   -3.3246    1.5098   -0.2163 C   0  0  0  0  0  0  0  0  0  0  0  0
   -1.9502    2.0453    0.7070 S   0  0  0  0  0  0  0  0  0  0  0  0
   -2.8996    2.2883    2.1332 C   0  0  0  0  0  0  0  0  0  0  0  0
   -2.2882    2.8141    3.3845 C   0  0  0  0  0  0  0  0  0  0  0  0
   -2.1567    4.3380    3.3339 C   0  0  0  0  0  0  0  0  0  0  0  0
   -4.2036    1.9792    1.8894 C   0  0  0  0  0  0  0  0  0  0  0  0
   -5.4485    2.0913    3.0647 Cl  0  0  0  0  0  0  0  0  0  0  0  0
   -4.4487    1.5348    0.5622 C   0  0  0  0  0  0  0  0  0  0  0  0
   -5.9928    1.0006    0.0465 Cl  0  0  0  0  0  0  0  0  0  0  0  0
   -4.0063    1.7026   -2.5918 C   0  0  0  0  0  0  0  0  0  0  0  0
   -3.9207    1.3501   -3.9624 C   0  0  0  0  0  0  0  0  0  0  0  0
   -3.0216    0.3469   -4.3757 C   0  0  0  0  0  0  0  0  0  0  0  0
   -3.0065   -0.1184   -5.7494 C   0  0  0  0  0  0  0  0  0  0  0  0
   -1.5300   -0.2892   -6.6535 S   0  0  0  0  0  0  0  0  0  0  0  0
   -2.3623   -0.8586   -8.0612 C   0  0  0  0  0  0  0  0  0  0  0  0
   -1.6299   -1.1693   -9.3196 C   0  0  0  0  0  0  0  0  0  0  0  0
   -1.4392    0.0900  -10.1684 C   0  0  0  0  0  0  0  0  0  0  0  0
   -3.7047   -0.9029   -7.8312 C   0  0  0  0  0  0  0  0  0  0  0  0
   -4.0723   -0.4930   -6.5226 C   0  0  0  0  0  0  0  0  0  0  0  0
   -5.6937   -0.5695   -5.9602 Cl  0  0  0  0  0  0  0  0  0  0  0  0
   -4.8600   -1.4205   -8.9934 Cl  0  0  0  0  0  0  0  0  0  0  0  0
   -2.1754   -0.1717   -3.4070 C   0  0  0  0  0  0  0  0  0  0  0  0
   -0.9306   -1.3575   -3.6781 S   0  0  0  0  0  0  0  0  0  0  0  0
   -4.7543    2.1492   -4.7729 C   0  0  0  0  0  0  0  0  0  0  0  0
   -5.4958    3.0651   -4.0741 C   0  0  0  0  0  0  0  0  0  0  0  0
   -5.1592    2.9826   -2.3501 S   0  0  0  0  0  0  0  0  0  0  0  0
   -6.4180    4.0266   -4.5563 C   0  0  0  0  0  0  0  0  0  0  0  0
   -6.7707    5.4216   -3.5878 S   0  0  0  0  0  0  0  0  0  0  0  0
   -7.8188    6.1145   -4.7863 C   0  0  0  0  0  0  0  0  0  0  0  0
   -7.9162    5.2550   -5.8936 C   0  0  0  0  0  0  0  0  0  0  0  0
   -7.1318    4.0706   -5.7582 C   0  0  0  0  0  0  0  0  0  0  0  0
   -7.1782    3.0826   -6.7644 C   0  0  0  0  0  0  0  0  0  0  0  0
   -7.9325    3.2761   -7.8881 C   0  0  0  0  0  0  0  0  0  0  0  0
   -8.0410    2.4048   -8.9190 O   0  0  0  0  0  0  0  0  0  0  0  0
   -7.2982    1.2110   -8.8632 C   0  0  0  0  0  0  0  0  0  0  0  0
   -8.7077    4.4779   -8.0359 C   0  0  0  0  0  0  0  0  0  0  0  0
   -9.4183    4.5492   -9.1893 O   0  0  0  0  0  0  0  0  0  0  0  0
  -10.2040    5.6923   -9.4181 C   0  0  0  0  0  0  0  0  0  0  0  0
   -8.7066    5.4253   -7.0501 C   0  0  0  0  0  0  0  0  0  0  0  0
   -8.3718    7.4026   -4.5892 C   0  0  0  0  0  0  0  0  0  0  0  0
   -8.9194    8.3639   -5.9371 S   0  0  0  0  0  0  0  0  0  0  0  0
   -9.2928    9.7055   -4.9507 C   0  0  0  0  0  0  0  0  0  0  0  0
   -9.0264    9.4556   -3.6252 C   0  0  0  0  0  0  0  0  0  0  0  0
   -8.5012    8.1418   -3.4032 C   0  0  0  0  0  0  0  0  0  0  0  0
   -8.2381    7.7546   -2.0795 C   0  0  0  0  0  0  0  0  0  0  0  0
   -8.4346    8.6112   -1.0225 C   0  0  0  0  0  0  0  0  0  0  0  0
   -8.1277    8.0733    0.1872 O   0  0  0  0  0  0  0  0  0  0  0  0
   -8.4460    8.7096    1.4036 C   0  0  0  0  0  0  0  0  0  0  0  0
   -8.9088    9.9487   -1.2613 C   0  0  0  0  0  0  0  0  0  0  0  0
   -9.0341   10.7696   -0.1739 O   0  0  0  0  0  0  0  0  0  0  0  0
   -9.4743   12.0890   -0.3748 C   0  0  0  0  0  0  0  0  0  0  0  0
   -9.2081   10.3384   -2.5362 C   0  0  0  0  0  0  0  0  0  0  0  0
    8.4259   -4.0259   11.6759 H   0  0  0  0  0  0  0  0  0  0  0  0
   10.1296   -6.1913   11.6754 H   0  0  0  0  0  0  0  0  0  0  0  0
   12.4196   -9.0201   11.7800 H   0  0  0  0  0  0  0  0  0  0  0  0
   12.2368   -7.2476   11.7777 H   0  0  0  0  0  0  0  0  0  0  0  0
   10.9288   -8.2815   12.4182 H   0  0  0  0  0  0  0  0  0  0  0  0
   10.1811   -8.2291    5.9842 H   0  0  0  0  0  0  0  0  0  0  0  0
    8.8621   -9.2488    6.6195 H   0  0  0  0  0  0  0  0  0  0  0  0
   10.4925   -9.9356    6.3958 H   0  0  0  0  0  0  0  0  0  0  0  0
    8.5179   -6.9932    7.0307 H   0  0  0  0  0  0  0  0  0  0  0  0
    5.4789   -2.9239    7.6205 H   0  0  0  0  0  0  0  0  0  0  0  0
    1.4827    1.6724    7.7917 H   0  0  0  0  0  0  0  0  0  0  0  0
    0.4286    0.2559    7.6360 H   0  0  0  0  0  0  0  0  0  0  0  0
    0.1137    0.7480    5.2143 H   0  0  0  0  0  0  0  0  0  0  0  0
   -0.4071    2.1076    6.2196 H   0  0  0  0  0  0  0  0  0  0  0  0
    1.1405    2.1776    5.3684 H   0  0  0  0  0  0  0  0  0  0  0  0
    7.8952   -9.9888    2.6584 H   0  0  0  0  0  0  0  0  0  0  0  0
    8.3456   -9.6475    0.9765 H   0  0  0  0  0  0  0  0  0  0  0  0
    5.5433  -10.4115    1.9394 H   0  0  0  0  0  0  0  0  0  0  0  0
    5.9968  -10.0866    0.2632 H   0  0  0  0  0  0  0  0  0  0  0  0
    6.6704  -11.4861    1.1037 H   0  0  0  0  0  0  0  0  0  0  0  0
    4.1351   -5.0760    0.9663 H   0  0  0  0  0  0  0  0  0  0  0  0
    4.3663   -4.5145   -0.9799 H   0  0  0  0  0  0  0  0  0  0  0  0
    6.3219   -6.3136   -3.4184 H   0  0  0  0  0  0  0  0  0  0  0  0
    5.2766   -6.4284   -1.9812 H   0  0  0  0  0  0  0  0  0  0  0  0
    6.2336   -4.9510   -2.2758 H   0  0  0  0  0  0  0  0  0  0  0  0
    1.8676   -2.8953   -6.2023 H   0  0  0  0  0  0  0  0  0  0  0  0
    0.8761   -4.3502   -5.9140 H   0  0  0  0  0  0  0  0  0  0  0  0
    2.2199   -4.4050   -7.0841 H   0  0  0  0  0  0  0  0  0  0  0  0
    0.8742   -2.8868   -4.1097 H   0  0  0  0  0  0  0  0  0  0  0  0
   -1.1681   -0.3549   -0.2056 H   0  0  0  0  0  0  0  0  0  0  0  0
   -2.9200    2.5276    4.2272 H   0  0  0  0  0  0  0  0  0  0  0  0
   -1.3003    2.3700    3.5187 H   0  0  0  0  0  0  0  0  0  0  0  0
   -1.7126    4.7052    4.2552 H   0  0  0  0  0  0  0  0  0  0  0  0
   -3.1340    4.7974    3.2095 H   0  0  0  0  0  0  0  0  0  0  0  0
   -1.5254    4.6336    2.4994 H   0  0  0  0  0  0  0  0  0  0  0  0
   -0.6549   -1.5936   -9.0743 H   0  0  0  0  0  0  0  0  0  0  0  0
   -2.2021   -1.9073   -9.8848 H   0  0  0  0  0  0  0  0  0  0  0  0
   -2.4038    0.5148  -10.4342 H   0  0  0  0  0  0  0  0  0  0  0  0
   -0.9023   -0.1528  -11.0813 H   0  0  0  0  0  0  0  0  0  0  0  0
   -0.8712    0.8343   -9.6156 H   0  0  0  0  0  0  0  0  0  0  0  0
   -4.7361    2.1018   -5.8445 H   0  0  0  0  0  0  0  0  0  0  0  0
   -6.6417    2.1633   -6.6152 H   0  0  0  0  0  0  0  0  0  0  0  0
   -7.5131    0.6855   -9.7920 H   0  0  0  0  0  0  0  0  0  0  0  0
   -6.2236    1.4109   -8.8005 H   0  0  0  0  0  0  0  0  0  0  0  0
   -7.5984    0.5864   -8.0165 H   0  0  0  0  0  0  0  0  0  0  0  0
  -10.6522    5.5483  -10.3997 H   0  0  0  0  0  0  0  0  0  0  0  0
  -10.9961    5.7929   -8.6688 H   0  0  0  0  0  0  0  0  0  0  0  0
   -9.5960    6.6030   -9.4243 H   0  0  0  0  0  0  0  0  0  0  0  0
   -9.3237    6.3014   -7.1384 H   0  0  0  0  0  0  0  0  0  0  0  0
   -9.6884   10.5967   -5.3944 H   0  0  0  0  0  0  0  0  0  0  0  0
   -7.8858    6.7645   -1.8449 H   0  0  0  0  0  0  0  0  0  0  0  0
   -9.5077    8.9583    1.4669 H   0  0  0  0  0  0  0  0  0  0  0  0
   -8.1995    7.9784    2.1738 H   0  0  0  0  0  0  0  0  0  0  0  0
   -7.8532    9.6136    1.5583 H   0  0  0  0  0  0  0  0  0  0  0  0
   -8.7971   12.6427   -1.0329 H   0  0  0  0  0  0  0  0  0  0  0  0
  -10.4878   12.1172   -0.7877 H   0  0  0  0  0  0  0  0  0  0  0  0
   -9.4747   12.5489    0.6124 H   0  0  0  0  0  0  0  0  0  0  0  0
   -9.5839   11.3254   -2.7499 H   0  0  0  0  0  0  0  0  0  0  0  0
  1  2  1  0  0  0  0
  2  3  1  0  0  0  0
  3  4  2  0  0  0  0
  4  5  1  0  0  0  0
  5  6  1  0  0  0  0
  6  7  2  0  0  0  0
  7  8  1  0  0  0  0
  8  9  1  0  0  0  0
  7 10  1  0  0  0  0
 10 11  1  0  0  0  0
 11 12  1  0  0  0  0
 10 13  2  0  0  0  0
  3 14  1  0  0  0  0
 14 15  2  0  0  0  0
 15 16  1  0  0  0  0
 16 17  2  0  0  0  0
 17 18  1  0  0  0  0
 18 19  1  0  0  0  0
 19 20  1  0  0  0  0
 20 21  1  0  0  0  0
 21 22  1  0  0  0  0
 20 23  2  0  0  0  0
 23 24  1  0  0  0  0
 23 25  1  0  0  0  0
 25 26  1  0  0  0  0
 17 27  1  0  0  0  0
 27 28  2  0  0  0  0
 28 29  1  0  0  0  0
 29 30  1  0  0  0  0
 30 31  1  0  0  0  0
 31 32  1  0  0  0  0
 32 33  1  0  0  0  0
 33 34  1  0  0  0  0
 32 35  2  0  0  0  0
 35 36  1  0  0  0  0
 36 37  1  0  0  0  0
 35 38  1  0  0  0  0
 29 39  2  0  0  0  0
 39 40  1  0  0  0  0
 28 41  1  0  0  0  0
 41 42  2  0  0  0  0
 42 43  1  0  0  0  0
 42 44  1  0  0  0  0
 44 45  1  0  0  0  0
 45 46  1  0  0  0  0
 46 47  2  0  0  0  0
 47 48  1  0  0  0  0
 48 49  1  0  0  0  0
 49 50  2  0  0  0  0
 50 51  1  0  0  0  0
 51 52  1  0  0  0  0
 50 53  1  0  0  0  0
 53 54  1  0  0  0  0
 54 55  1  0  0  0  0
 53 56  2  0  0  0  0
 46 57  1  0  0  0  0
 57 58  2  0  0  0  0
 58 59  1  0  0  0  0
 59 60  2  0  0  0  0
 60 61  1  0  0  0  0
 61 62  1  0  0  0  0
 62 63  1  0  0  0  0
 63 64  1  0  0  0  0
 64 65  1  0  0  0  0
 63 66  2  0  0  0  0
 66 67  1  0  0  0  0
 66 68  1  0  0  0  0
 68 69  1  0  0  0  0
 60 70  1  0  0  0  0
 70 71  2  0  0  0  0
 71 72  1  0  0  0  0
 72 73  1  0  0  0  0
 73 74  1  0  0  0  0
 74 75  1  0  0  0  0
 75 76  1  0  0  0  0
 76 77  1  0  0  0  0
 75 78  2  0  0  0  0
 78 79  1  0  0  0  0
 79 80  1  0  0  0  0
 78 81  1  0  0  0  0
 72 82  2  0  0  0  0
 82 83  1  0  0  0  0
 71 84  1  0  0  0  0
 84 85  2  0  0  0  0
 85 86  1  0  0  0  0
 85 87  1  0  0  0  0
 87 88  1  0  0  0  0
 88 89  1  0  0  0  0
 89 90  2  0  0  0  0
 90 91  1  0  0  0  0
 91 92  1  0  0  0  0
 92 93  2  0  0  0  0
 93 94  1  0  0  0  0
 94 95  1  0  0  0  0
 93 96  1  0  0  0  0
 96 97  1  0  0  0  0
 97 98  1  0  0  0  0
 96 99  2  0  0  0  0
 89100  1  0  0  0  0
100101  1  0  0  0  0
101102  1  0  0  0  0
102103  2  0  0  0  0
103104  1  0  0  0  0
104105  1  0  0  0  0
105106  2  0  0  0  0
106107  1  0  0  0  0
107108  1  0  0  0  0
106109  1  0  0  0  0
109110  1  0  0  0  0
110111  1  0  0  0  0
109112  2  0  0  0  0
  5  1  2  0  0  0  0
 40 14  1  0  0  0  0
 48 44  2  0  0  0  0
 83 57  1  0  0  0  0
 91 87  2  0  0  0  0
104100  2  0  0  0  0
 13  4  1  0  0  0  0
 39 16  1  0  0  0  0
 56 47  1  0  0  0  0
 82 59  1  0  0  0  0
 99 90  1  0  0  0  0
112103  1  0  0  0  0
 25 18  2  0  0  0  0
 43 27  1  0  0  0  0
 68 61  2  0  0  0  0
 86 70  1  0  0  0  0
 36 30  2  0  0  0  0
 79 73  2  0  0  0  0
  1113  1  0  0  0  0
  6114  1  0  0  0  0
  9115  1  0  0  0  0
  9116  1  0  0  0  0
  9117  1  0  0  0  0
 12118  1  0  0  0  0
 12119  1  0  0  0  0
 12120  1  0  0  0  0
 13121  1  0  0  0  0
 15122  1  0  0  0  0
 21123  1  0  0  0  0
 21124  1  0  0  0  0
 22125  1  0  0  0  0
 22126  1  0  0  0  0
 22127  1  0  0  0  0
 33128  1  0  0  0  0
 33129  1  0  0  0  0
 34130  1  0  0  0  0
 34131  1  0  0  0  0
 34132  1  0  0  0  0
 41133  1  0  0  0  0
 49134  1  0  0  0  0
 52135  1  0  0  0  0
 52136  1  0  0  0  0
 52137  1  0  0  0  0
 55138  1  0  0  0  0
 55139  1  0  0  0  0
 55140  1  0  0  0  0
 56141  1  0  0  0  0
 58142  1  0  0  0  0
 64143  1  0  0  0  0
 64144  1  0  0  0  0
 65145  1  0  0  0  0
 65146  1  0  0  0  0
 65147  1  0  0  0  0
 76148  1  0  0  0  0
 76149  1  0  0  0  0
 77150  1  0  0  0  0
 77151  1  0  0  0  0
 77152  1  0  0  0  0
 84153  1  0  0  0  0
 92154  1  0  0  0  0
 95155  1  0  0  0  0
 95156  1  0  0  0  0
 95157  1  0  0  0  0
 98158  1  0  0  0  0
 98159  1  0  0  0  0
 98160  1  0  0  0  0
 99161  1  0  0  0  0
102162  1  0  0  0  0
105163  1  0  0  0  0
108164  1  0  0  0  0
108165  1  0  0  0  0
108166  1  0  0  0  0
111167  1  0  0  0  0
111168  1  0  0  0  0
111169  1  0  0  0  0
112170  1  0  0  0  0
M  END
