
  xtb     03032208483D
 energy: -170.834022600478 gnorm: 0.000703133868 xtb: 6.4.1 (unknown)
 93104  0     0  0            999 V2000
   11.1039   -3.6493   -1.6538 C   0  0  0  0  0  0  0  0  0  0  0  0
   11.2192   -3.6886   -3.0321 N   0  0  0  0  0  0  0  0  0  0  0  0
    9.9403   -3.6521   -3.4778 C   0  0  0  0  0  0  0  0  0  0  0  0
    9.1303   -3.6485   -4.5615 N   0  0  0  0  0  0  0  0  0  0  0  0
    7.8300   -3.5848   -4.0554 C   0  0  0  0  0  0  0  0  0  0  0  0
    7.8189   -3.5524   -2.7319 N   0  0  0  0  0  0  0  0  0  0  0  0
    9.1182   -3.5927   -2.3484 C   0  0  0  0  0  0  0  0  0  0  0  0
    9.8787   -3.5928   -1.2202 N   0  0  0  0  0  0  0  0  0  0  0  0
    6.7343   -3.5605   -4.9668 C   0  0  0  0  0  0  0  0  0  0  0  0
    5.3982   -3.4769   -4.7439 C   0  0  0  0  0  0  0  0  0  0  0  0
    4.6656   -3.3902   -3.5351 C   0  0  0  0  0  0  0  0  0  0  0  0
    5.2341   -3.3939   -2.2627 N   0  0  0  0  0  0  0  0  0  0  0  0
    4.1978   -3.2922   -1.4268 C   0  0  0  0  0  0  0  0  0  0  0  0
    3.8168   -3.2197   -0.1386 N   0  0  0  0  0  0  0  0  0  0  0  0
    2.4151   -3.1151   -0.1759 C   0  0  0  0  0  0  0  0  0  0  0  0
    1.9376   -3.1198   -1.4056 N   0  0  0  0  0  0  0  0  0  0  0  0
    3.0150   -3.2293   -2.2129 C   0  0  0  0  0  0  0  0  0  0  0  0
    3.3386   -3.2926   -3.5156 N   0  0  0  0  0  0  0  0  0  0  0  0
    1.6017   -2.9870    0.9791 C   0  0  0  0  0  0  0  0  0  0  0  0
    2.0217   -2.8956    2.2606 C   0  0  0  0  0  0  0  0  0  0  0  0
    1.1080   -2.6701    3.3271 C   0  0  0  0  0  0  0  0  0  0  0  0
    1.5483   -2.4338    4.6389 N   0  0  0  0  0  0  0  0  0  0  0  0
    0.4273   -2.1443    5.3342 C   0  0  0  0  0  0  0  0  0  0  0  0
   -0.0743   -1.6844    6.5038 N   0  0  0  0  0  0  0  0  0  0  0  0
   -1.4412   -1.4766    6.2495 C   0  0  0  0  0  0  0  0  0  0  0  0
   -1.7890   -1.8330    5.0391 N   0  0  0  0  0  0  0  0  0  0  0  0
   -0.6495   -2.2341    4.4317 C   0  0  0  0  0  0  0  0  0  0  0  0
   -0.2002   -2.5693    3.2048 N   0  0  0  0  0  0  0  0  0  0  0  0
   -2.2979   -0.7955    7.1901 C   0  0  0  0  0  0  0  0  0  0  0  0
   -3.2392    0.0899    6.8057 C   0  0  0  0  0  0  0  0  0  0  0  0
   -3.4108    0.5229    5.4441 C   0  0  0  0  0  0  0  0  0  0  0  0
   -4.9751    0.5531    4.7055 S   0  0  0  0  0  0  0  0  0  0  0  0
   -4.3129    0.7684    3.1238 C   0  0  0  0  0  0  0  0  0  0  0  0
   -2.9146    0.8205    3.1620 C   0  0  0  0  0  0  0  0  0  0  0  0
   -2.4200    0.7684    4.4971 C   0  0  0  0  0  0  0  0  0  0  0  0
   -1.0396    0.9599    4.7413 C   0  0  0  0  0  0  0  0  0  0  0  0
   -0.1623    0.9809    3.7001 C   0  0  0  0  0  0  0  0  0  0  0  0
    1.1909    1.1273    3.8070 O   0  0  0  0  0  0  0  0  0  0  0  0
    1.7242    1.3761    5.0794 C   0  0  0  0  0  0  0  0  0  0  0  0
   -0.6383    0.7955    2.3552 C   0  0  0  0  0  0  0  0  0  0  0  0
    0.3417    0.6595    1.4279 O   0  0  0  0  0  0  0  0  0  0  0  0
   -0.0232    0.2285    0.1369 C   0  0  0  0  0  0  0  0  0  0  0  0
   -1.9817    0.7840    2.0994 C   0  0  0  0  0  0  0  0  0  0  0  0
   -5.2276    0.8683    2.0451 C   0  0  0  0  0  0  0  0  0  0  0  0
   -4.8601    1.2629    0.7491 N   0  0  0  0  0  0  0  0  0  0  0  0
   -6.0091    1.2559    0.0459 C   0  0  0  0  0  0  0  0  0  0  0  0
   -6.5624    1.4682   -1.1492 N   0  0  0  0  0  0  0  0  0  0  0  0
   -7.9155    1.1912   -0.9684 C   0  0  0  0  0  0  0  0  0  0  0  0
   -8.2122    0.8248    0.2792 N   0  0  0  0  0  0  0  0  0  0  0  0
   -7.0417    0.8538    0.9350 C   0  0  0  0  0  0  0  0  0  0  0  0
   -6.5194    0.6290    2.1631 N   0  0  0  0  0  0  0  0  0  0  0  0
   -8.8929    1.2778   -1.9863 C   0  0  0  0  0  0  0  0  0  0  0  0
   -8.7783    1.6144   -3.2985 C   0  0  0  0  0  0  0  0  0  0  0  0
   -7.6400    1.9893   -4.0659 C   0  0  0  0  0  0  0  0  0  0  0  0
   -7.8021    2.2685   -5.4278 N   0  0  0  0  0  0  0  0  0  0  0  0
   -6.5697    2.5855   -5.8820 C   0  0  0  0  0  0  0  0  0  0  0  0
   -5.8320    2.9553   -6.9503 N   0  0  0  0  0  0  0  0  0  0  0  0
   -4.5254    3.0734   -6.4639 C   0  0  0  0  0  0  0  0  0  0  0  0
   -4.4333    2.8032   -5.1794 N   0  0  0  0  0  0  0  0  0  0  0  0
   -5.6914    2.4958   -4.7922 C   0  0  0  0  0  0  0  0  0  0  0  0
   -6.3791    2.1268   -3.6845 N   0  0  0  0  0  0  0  0  0  0  0  0
   -3.4464    3.4526   -7.3308 C   0  0  0  0  0  0  0  0  0  0  0  0
   -2.1831    3.5570   -6.9257 C   0  0  0  0  0  0  0  0  0  0  0  0
   11.9663   -3.6652   -1.0194 H   0  0  0  0  0  0  0  0  0  0  0  0
   12.0733   -3.7320   -3.5618 H   0  0  0  0  0  0  0  0  0  0  0  0
    9.3745   -3.6811   -5.5367 H   0  0  0  0  0  0  0  0  0  0  0  0
    7.0477   -3.6131   -6.0023 H   0  0  0  0  0  0  0  0  0  0  0  0
    4.7510   -3.4680   -5.6098 H   0  0  0  0  0  0  0  0  0  0  0  0
    6.2573   -3.4573   -2.1341 H   0  0  0  0  0  0  0  0  0  0  0  0
    4.3906   -3.2374    0.6861 H   0  0  0  0  0  0  0  0  0  0  0  0
    0.5417   -2.9332    0.7886 H   0  0  0  0  0  0  0  0  0  0  0  0
    3.0698   -2.9364    2.5287 H   0  0  0  0  0  0  0  0  0  0  0  0
    2.5053   -2.4379    4.9493 H   0  0  0  0  0  0  0  0  0  0  0  0
    0.3997   -1.5047    7.3733 H   0  0  0  0  0  0  0  0  0  0  0  0
   -2.1587   -1.0225    8.2387 H   0  0  0  0  0  0  0  0  0  0  0  0
   -3.9403    0.4690    7.5377 H   0  0  0  0  0  0  0  0  0  0  0  0
   -0.7121    1.0540    5.7641 H   0  0  0  0  0  0  0  0  0  0  0  0
    1.3048    2.2857    5.5229 H   0  0  0  0  0  0  0  0  0  0  0  0
    2.7955    1.5077    4.9322 H   0  0  0  0  0  0  0  0  0  0  0  0
    1.5517    0.5369    5.7633 H   0  0  0  0  0  0  0  0  0  0  0  0
    0.9075   -0.0129   -0.3733 H   0  0  0  0  0  0  0  0  0  0  0  0
   -0.6481   -0.6670    0.1813 H   0  0  0  0  0  0  0  0  0  0  0  0
   -0.5443    1.0171   -0.4171 H   0  0  0  0  0  0  0  0  0  0  0  0
   -2.3288    0.6581    1.0880 H   0  0  0  0  0  0  0  0  0  0  0  0
   -3.9486    1.5679    0.4566 H   0  0  0  0  0  0  0  0  0  0  0  0
   -6.1930    1.7591   -2.0705 H   0  0  0  0  0  0  0  0  0  0  0  0
   -9.8793    1.0220   -1.6257 H   0  0  0  0  0  0  0  0  0  0  0  0
   -9.6919    1.5981   -3.8803 H   0  0  0  0  0  0  0  0  0  0  0  0
   -8.6719    2.2228   -5.9310 H   0  0  0  0  0  0  0  0  0  0  0  0
   -6.1244    3.1111   -7.9004 H   0  0  0  0  0  0  0  0  0  0  0  0
   -3.7222    3.6524   -8.3589 H   0  0  0  0  0  0  0  0  0  0  0  0
   -1.3937    3.8423   -7.5982 H   0  0  0  0  0  0  0  0  0  0  0  0
   -1.9252    3.3516   -5.9026 H   0  0  0  0  0  0  0  0  0  0  0  0
  1  2  1  0  0  0  0
  2  3  1  0  0  0  0
  3  4  1  0  0  0  0
  4  5  1  0  0  0  0
  5  6  2  0  0  0  0
  6  7  1  0  0  0  0
  7  8  1  0  0  0  0
  5  9  1  0  0  0  0
  9 10  2  0  0  0  0
 10 11  1  0  0  0  0
 11 12  1  0  0  0  0
 12 13  1  0  0  0  0
 13 14  1  0  0  0  0
 14 15  1  0  0  0  0
 15 16  2  0  0  0  0
 16 17  1  0  0  0  0
 17 18  1  0  0  0  0
 15 19  1  0  0  0  0
 19 20  2  0  0  0  0
 20 21  1  0  0  0  0
 21 22  1  0  0  0  0
 22 23  1  0  0  0  0
 23 24  1  0  0  0  0
 24 25  1  0  0  0  0
 25 26  2  0  0  0  0
 26 27  1  0  0  0  0
 27 28  1  0  0  0  0
 25 29  1  0  0  0  0
 29 30  2  0  0  0  0
 30 31  1  0  0  0  0
 31 32  1  0  0  0  0
 32 33  1  0  0  0  0
 33 34  2  0  0  0  0
 34 35  1  0  0  0  0
 35 36  1  0  0  0  0
 36 37  2  0  0  0  0
 37 38  1  0  0  0  0
 38 39  1  0  0  0  0
 37 40  1  0  0  0  0
 40 41  1  0  0  0  0
 41 42  1  0  0  0  0
 40 43  2  0  0  0  0
 33 44  1  0  0  0  0
 44 45  1  0  0  0  0
 45 46  1  0  0  0  0
 46 47  1  0  0  0  0
 47 48  1  0  0  0  0
 48 49  2  0  0  0  0
 49 50  1  0  0  0  0
 50 51  1  0  0  0  0
 48 52  1  0  0  0  0
 52 53  2  0  0  0  0
 53 54  1  0  0  0  0
 54 55  1  0  0  0  0
 55 56  1  0  0  0  0
 56 57  1  0  0  0  0
 57 58  1  0  0  0  0
 58 59  2  0  0  0  0
 59 60  1  0  0  0  0
 60 61  1  0  0  0  0
 58 62  1  0  0  0  0
 62 63  2  0  0  0  0
  8  1  2  0  0  0  0
 18 11  2  0  0  0  0
 28 21  2  0  0  0  0
 35 31  2  0  0  0  0
 51 44  2  0  0  0  0
 61 54  2  0  0  0  0
  7  3  2  0  0  0  0
 17 13  2  0  0  0  0
 27 23  2  0  0  0  0
 43 34  1  0  0  0  0
 50 46  2  0  0  0  0
 60 56  2  0  0  0  0
  1 64  1  0  0  0  0
  2 65  1  0  0  0  0
  4 66  1  0  0  0  0
  9 67  1  0  0  0  0
 10 68  1  0  0  0  0
 12 69  1  0  0  0  0
 14 70  1  0  0  0  0
 19 71  1  0  0  0  0
 20 72  1  0  0  0  0
 22 73  1  0  0  0  0
 24 74  1  0  0  0  0
 29 75  1  0  0  0  0
 30 76  1  0  0  0  0
 36 77  1  0  0  0  0
 39 78  1  0  0  0  0
 39 79  1  0  0  0  0
 39 80  1  0  0  0  0
 42 81  1  0  0  0  0
 42 82  1  0  0  0  0
 42 83  1  0  0  0  0
 43 84  1  0  0  0  0
 45 85  1  0  0  0  0
 47 86  1  0  0  0  0
 52 87  1  0  0  0  0
 53 88  1  0  0  0  0
 55 89  1  0  0  0  0
 57 90  1  0  0  0  0
 62 91  1  0  0  0  0
 63 92  1  0  0  0  0
 63 93  1  0  0  0  0
M  END
