233

C         -9.21190       -9.64870       15.66370
C         -8.94070       -8.37280       16.00730
C         -8.63330       -7.55200       14.88410
C         -8.24000       -6.20420       14.87190
C         -8.15380       -5.41370       16.09000
S         -9.51510       -5.25190       17.16050
C         -8.65660       -4.19130       18.22410
C         -9.31020       -3.58990       19.41940
C         -9.84650       -2.19220       19.10220
C         -7.39300       -3.97970       17.76020
Cl        -6.24130       -2.97920       18.54710
C         -7.10250       -4.67320       16.55510
Cl        -5.54890       -4.63090       15.83140
C         -7.93480       -5.65020       13.63690
C         -7.99290       -6.37420       12.42150
C         -8.38410       -7.72420       12.43550
C         -8.43140       -8.50310       11.21000
S         -7.04410       -8.60360       10.16570
C         -7.85800       -9.64730        9.05300
C         -7.19800      -10.09380        7.79590
C         -7.40340       -9.06420        6.68210
C         -9.13180       -9.88630        9.47350
C         -9.45850       -9.24690       10.69970
Cl       -11.01950       -9.34410       11.39930
Cl       -10.25090      -10.86630        8.61870
C         -8.69320       -8.28040       13.67200
S         -9.11980       -9.94290       13.96270
C         -7.64970       -5.56860       11.31130
C         -7.32170       -4.27850       11.63480
S         -7.46800       -4.00030       13.36060
C         -6.89130       -3.26990       10.73310
S         -6.95230       -3.59470        9.02940
C         -6.28780       -2.04960        8.61830
C         -5.99710       -1.31320        9.77180
C         -6.35560       -2.00020       10.97200
C         -6.11730       -1.38470       12.21910
C         -5.54480       -0.14530       12.28540
O         -5.27560        0.52800       13.42620
C         -5.57750       -0.09150       14.65460
C         -5.15340        0.53340       11.07730
O         -4.57410        1.74210       11.26830
C         -4.18240        2.48370       10.13840
C         -5.36680       -0.05280        9.86160
C         -6.07710       -1.70300        7.25640
C         -5.88190       -0.46340        6.71320
C         -5.57500       -0.48070        5.33430
C         -5.15630        0.60410        4.54300
C         -5.02660        1.93590        5.11620
S         -6.37460        2.74550        5.86000
C         -5.41470        4.12060        6.29050
C         -6.01190        5.29840        6.97880
C         -6.51860        6.32900        5.96690
C         -4.13130        3.95140        5.86560
Cl        -2.88220        5.09850        6.12360
C         -3.90650        2.71430        5.20200
Cl        -2.35670        2.23440        4.64920
C         -4.80620        0.32680        3.22990
C         -4.89130       -0.97600        2.67800
C         -5.27020       -2.06800        3.48110
C         -5.27490       -3.41670        2.94000
S         -6.67320       -4.43790        3.09540
C         -5.93630       -5.71900        2.19480
C         -6.64400       -7.00980        1.97520
C         -6.60260       -7.87240        3.23820
C         -4.67450       -5.36770        1.81880
C         -4.29430       -4.06510        2.23930
Cl        -2.71700       -3.44250        1.95340
Cl        -3.62760       -6.37320        0.90270
C         -5.60010       -1.79200        4.79930
S         -5.97930       -2.96310        6.03090
C         -4.49890       -0.99740        1.32130
C         -4.05240        0.20880        0.86240
S         -4.21190        1.47190        2.06190
C         -3.35420        0.41910       -0.36480
C         -2.80760       -0.57300       -1.12770
C         -2.00200       -0.09690       -2.18550
C         -1.24840       -0.86440       -3.09200
C         -1.29540       -2.31740       -3.03680
S         -2.81230       -3.17010       -3.09810
C         -2.04990       -4.71000       -2.90120
C         -2.83810       -5.97310       -2.89250
C         -2.93880       -6.56920       -4.29790
C         -0.69870       -4.55790       -2.81200
Cl         0.39410       -5.86360       -2.60520
C         -0.26680       -3.20540       -2.88440
Cl         1.37760       -2.76020       -2.70000
C         -0.44790       -0.16740       -3.98560
C         -0.38480        1.24930       -4.00550
C         -1.13680        2.01690       -3.09680
C         -1.03030        3.46750       -3.09490
S         -1.26460        4.38710       -4.55500
C         -0.92230        5.88840       -3.76440
C         -0.97500        7.17880       -4.50440
C         -2.41880        7.64320       -4.70510
C         -0.65950        5.67440       -2.44500
C         -0.71340        4.30580       -2.06220
Cl        -0.31720        3.78810       -0.47740
Cl        -0.27330        6.92130       -1.33150
C         -1.93250        1.31950       -2.19880
S         -2.92600        2.00990       -0.94660
C          0.55520        1.71810       -4.95050
C          1.17830        0.72120       -5.64490
S          0.60950       -0.86400       -5.17990
C          2.26630        0.91120       -6.54980
C          2.66480        2.10620       -7.07580
C          3.90480        2.04110       -7.75040
C          4.61880        3.09890       -8.34090
C          4.13000        4.46430       -8.25520
S          3.99110        5.46570       -9.67000
C          3.34870        6.79310       -8.76560
C          2.92960        8.05570       -9.43390
C          1.48490        7.96000       -9.93060
C          3.25060        6.46340       -7.44670
Cl         2.64070        7.51790       -6.23720
C          3.70240        5.15020       -7.15010
Cl         3.77710        4.55540       -5.53900
C          5.80650        2.77230       -8.98100
C          6.31460        1.45070       -9.02760
C          5.61730        0.39810       -8.40580
C          6.13830       -0.95900       -8.42460
S          6.57360       -1.72920       -9.92350
C          7.05510       -3.18920       -9.12780
C          7.63070       -4.32730       -9.89540
C          9.09620       -4.06180      -10.24870
C          6.88760       -3.06920       -7.78120
C          6.36350       -1.81010       -7.37840
Cl         6.14040       -1.40030       -5.72980
Cl         7.26620       -4.30650       -6.65460
C          4.42380        0.72160       -7.77480
S          3.36740       -0.38660       -6.94780
C          7.57030        1.39310       -9.67690
C          8.01560        2.60630      -10.11590
S          6.89180        3.89590       -9.74780
C          9.24830        2.86920      -10.78740
C         10.15680        1.94510      -11.21500
C         11.29710        2.51620      -11.82950
C         12.40980        1.85210      -12.37200
C         12.48730        0.39960      -12.38280
S         11.23750       -0.56580      -13.11290
C         12.04990       -2.04600      -12.73620
C         11.51270       -3.36290      -13.17680
C         12.11120       -3.76470      -14.52740
C         13.21980       -1.79080      -12.08550
Cl        14.29440       -3.01300      -11.54350
C         13.47010       -0.40710      -11.88060
Cl        14.83460        0.16060      -11.01460
C         13.42240        2.64570      -12.89660
C         13.36860        4.06120      -12.89680
C         12.24660        4.72250      -12.37430
C         12.13810        6.17260      -12.40720
S         11.82150        7.09160      -10.96650
C         11.84320        8.59340      -11.82710
C         11.66820        9.88910      -11.11520
C         12.93560       10.27300      -10.34820
C         12.08360        8.37770      -13.15110
C         12.24790        7.00620      -13.48470
Cl        12.48120        6.46810      -15.09800
Cl        12.17410        9.62460      -14.32730
C         11.23980        3.93070      -11.83770
S          9.76000        4.50800      -11.12670
C         14.54750        4.62980      -13.46170
C         15.41740        3.69900      -13.90320
S         14.88260        2.07420      -13.65160
H         -9.46810      -10.46430       16.31120
H         -8.94700       -8.01370       17.02000
H        -10.12970       -4.23180       19.74360
H         -8.57740       -3.52210       20.22590
H         -9.03510       -1.54120       18.78830
H        -10.31640       -1.76410       19.98340
H        -10.58180       -2.24240       18.30290
H         -6.13020      -10.22650        7.97490
H         -7.62570      -11.05100        7.49310
H         -6.91560       -9.39940        5.77140
H         -8.46360       -8.93170        6.48280
H         -6.98150       -8.10470        6.97270
H         -7.63230       -5.92600       10.29770
H         -6.38220       -1.90750       13.12000
H         -5.27370        0.61740       15.42250
H         -5.02120       -1.02540       14.78060
H         -6.64880       -0.29510       14.74940
H         -5.03350        2.69820        9.48280
H         -3.78130        3.41860       10.52520
H         -3.40610        1.96760        9.56460
H         -5.01950        0.42340        8.96380
H         -5.98560        0.44940        7.26500
H         -5.24980        5.75640        7.61240
H         -6.84060        4.96830        7.60770
H         -6.95830        7.17580        6.48670
H         -7.27210        5.88630        5.32080
H         -5.69790        6.68560        5.35050
H         -7.68370       -6.81410        1.70650
H         -6.16170       -7.53700        1.15040
H         -7.11240       -8.81550        3.06150
H         -7.09210       -7.35640        4.06060
H         -5.57280       -8.07780        3.51980
H         -4.54170       -1.87540        0.70630
H         -2.93110       -1.61490       -0.90270
H         -3.83870       -5.77210       -2.50640
H         -2.34550       -6.68700       -2.22920
H         -3.50860       -7.49410       -4.27050
H         -1.94680       -6.78190       -4.68740
H         -3.43460       -5.87280       -4.97000
H         -0.42290        7.92740       -3.93390
H         -0.49390        7.05880       -5.47690
H         -2.90950        7.77390       -3.74400
H         -2.43540        8.59090       -5.23650
H         -2.97460        6.90820       -5.28230
H          0.80090        2.75520       -5.07590
H          2.08340        3.00370       -6.98910
H          3.59200        8.25450      -10.27770
H          3.01560        8.87610       -8.71890
H          0.81270        7.76590       -9.09880
H          1.19160        8.89210      -10.40550
H          1.38720        7.15340      -10.65290
H          7.05840       -4.47390      -10.81330
H          7.55630       -5.23060       -9.28810
H          9.68630       -3.93990       -9.34410
H          9.49920       -4.89520      -10.81750
H          9.18250       -3.15570      -10.84430
H          8.13190        0.48620       -9.79500
H         10.01920        0.88710      -11.09630
H         11.76770       -4.11500      -12.42760
H         10.42690       -3.30320      -13.26190
H         11.86890       -3.02160      -15.28330
H         11.71320       -4.72560      -14.84200
H         13.19260       -3.84260      -14.45090
H         10.83400        9.80810      -10.41570
H         11.43410       10.66040      -11.85070
H         13.17310        9.51200       -9.60880
H         13.77600       10.36940      -11.03090
H         12.79050       11.22190       -9.83890
H         14.72620        5.68740      -13.51930
H         16.37120        3.85660      -14.36780
