108

C          0.82460        3.42180        1.51870
O         -0.06550        2.83440        2.34410
C          0.43880        1.63770        2.70820
C          1.65370        1.44450        2.12310
O          2.53210        0.40500        2.17030
C          2.13510       -0.68890        2.96500
C          1.91690        2.61820        1.34560
N          3.05710        2.76690        0.57890
C          3.35900        3.88260       -0.16290
C          4.37160        4.00170       -1.03960
C          5.32180        3.01600       -1.48610
O          6.50310        3.49640       -1.96620
C          7.22860        2.45040       -2.41390
C          6.53940        1.28500       -2.25130
O          6.90260        0.01290       -2.57600
C          8.16870       -0.12310       -3.17200
C          5.28670        1.63850       -1.65500
N          4.23350        0.80300       -1.36030
C          4.18920       -0.55050       -1.49750
C          3.17400       -1.28310       -0.99470
C          3.07570       -2.70250       -1.11680
O          4.02540       -3.38610       -1.81070
C          3.75180       -4.70950       -1.71190
C          2.62730       -4.90040       -0.96950
O          1.97810       -6.04280       -0.59680
C          2.57370       -7.24110       -1.02980
C          2.16680       -3.60380       -0.58300
N          1.05520       -3.41040        0.21060
C          0.26720       -2.30120        0.25750
C         -0.69280       -2.13960        1.19420
C         -1.61940       -1.06980        1.33780
S         -2.94070       -1.35340        2.43030
C         -3.73530        0.12750        2.01150
C         -2.93020        0.87830        1.15730
C         -1.74000        0.19540        0.75410
C         -0.86760        0.84100       -0.15170
C         -1.15550        2.08950       -0.62290
O         -0.38780        2.79720       -1.49870
C          0.70110        2.14100       -2.09290
C         -2.34420        2.77570       -0.19680
O         -2.49120        4.02470       -0.71840
C         -3.59670        4.78360       -0.30120
C         -3.21330        2.17090        0.66270
C         -5.08170        0.37720        2.42360
O         -5.47830        1.65630        2.68500
C         -6.78140        1.62390        3.05240
C         -7.24790        0.34640        3.01430
O         -8.47720       -0.16820        3.29960
C         -9.44080        0.76800        3.71540
C         -6.16170       -0.48000        2.58410
N         -6.29030       -1.84530        2.42170
C         -5.63120       -2.63830        1.51530
C         -4.93740       -2.18840        0.45100
C         -4.02630       -2.97690       -0.31630
O         -3.84050       -4.29440       -0.03020
C         -2.82510       -4.73800       -0.80520
C         -2.33920       -3.73340       -1.59000
O         -1.31300       -3.76310       -2.48760
C         -0.65010       -4.99780       -2.61140
C         -3.11740       -2.57260       -1.28400
N         -3.01170       -1.31040       -1.81740
C         -2.20460       -0.93350       -2.85720
C         -2.16640        0.30030       -3.35360
H          0.55790        4.37480        1.11240
H         -0.15720        1.03300        3.35970
H          2.04680       -0.39780        4.01610
H          1.17980       -1.09620        2.62060
H          2.91700       -1.43770        2.85270
H          3.79780        2.11480        0.79330
H          2.68410        4.71140       -0.01440
H          4.54200        4.97840       -1.46710
H          8.19530        2.67020       -2.81790
H          8.29460       -1.18610       -3.37010
H          8.22620        0.43570       -4.11160
H          8.96220        0.22260       -2.50150
H          3.43930        1.23970       -0.91430
H          5.00470       -1.00470       -2.03480
H          2.40530       -0.79780       -0.41440
H          4.42040       -5.38010       -2.21090
H          1.95370       -8.04660       -0.64030
H          3.59190       -7.33880       -0.64040
H          2.60260       -7.29470       -2.12270
H          0.78420       -4.20530        0.77260
H          0.44280       -1.58880       -0.52800
H         -0.83920       -2.94870        1.90200
H          0.03700        0.34580       -0.45140
H          1.45500        1.86680       -1.34970
H          1.13450        2.85440       -2.79170
H          0.37810        1.24330       -2.63030
H         -4.54240        4.31650       -0.59750
H         -3.59450        4.93180        0.78390
H         -3.49970        5.74680       -0.80000
H         -4.11070        2.65790        1.00360
H         -7.23660        2.56170        3.29650
H         -9.62970        1.51300        2.93590
H        -10.35030        0.20200        3.90790
H         -9.12490        1.28070        4.62960
H         -7.09670       -2.23430        2.88800
H         -5.65740       -3.69420        1.74280
H         -4.97460       -1.14040        0.19580
H         -2.55540       -5.76890       -0.70200
H         -0.22140       -5.31730       -1.65740
H          0.14830       -4.83750       -3.33430
H         -1.32810       -5.77550       -2.97880
H         -3.57960       -0.59210       -1.39300
H         -1.59810       -1.72900       -3.26040
H         -1.53050        0.54460       -4.18310
H         -2.76820        1.09630       -2.94930
