
  xtb     03042204003D
 energy: -160.961299727700 gnorm: 0.000415064504 xtb: 6.4.1 (unknown)
 96103  0     0  0            999 V2000
    2.1828    8.5521    9.2067 C   0  0  0  0  0  0  0  0  0  0  0  0
    3.1496    7.4735    8.2676 S   0  0  0  0  0  0  0  0  0  0  0  0
    1.8199    7.1882    7.1690 C   0  0  0  0  0  0  0  0  0  0  0  0
    0.7178    7.9068    7.5360 C   0  0  0  0  0  0  0  0  0  0  0  0
    0.9363    8.6846    8.6951 C   0  0  0  0  0  0  0  0  0  0  0  0
    2.0021    6.3010    6.1380 N   0  0  0  0  0  0  0  0  0  0  0  0
    1.3962    6.3153    4.9015 C   0  0  0  0  0  0  0  0  0  0  0  0
    0.6184    7.2841    4.3898 C   0  0  0  0  0  0  0  0  0  0  0  0
    0.0051    7.2139    3.1035 C   0  0  0  0  0  0  0  0  0  0  0  0
    0.1819    5.8114    2.0654 S   0  0  0  0  0  0  0  0  0  0  0  0
   -0.7954    6.5564    0.8311 C   0  0  0  0  0  0  0  0  0  0  0  0
   -1.2241    7.7996    1.2122 C   0  0  0  0  0  0  0  0  0  0  0  0
   -0.7704    8.1629    2.4921 C   0  0  0  0  0  0  0  0  0  0  0  0
   -1.0679    5.9166   -0.3461 N   0  0  0  0  0  0  0  0  0  0  0  0
   -0.5954    4.6877   -0.7150 C   0  0  0  0  0  0  0  0  0  0  0  0
   -0.9588    4.0631   -1.8504 C   0  0  0  0  0  0  0  0  0  0  0  0
   -0.4678    2.7841   -2.2507 C   0  0  0  0  0  0  0  0  0  0  0  0
   -1.2098    1.9686   -3.6151 S   0  0  0  0  0  0  0  0  0  0  0  0
   -0.1593    0.5928   -3.4184 C   0  0  0  0  0  0  0  0  0  0  0  0
    0.7074    0.7753   -2.3740 C   0  0  0  0  0  0  0  0  0  0  0  0
    0.5300    2.0071   -1.7229 C   0  0  0  0  0  0  0  0  0  0  0  0
   -0.2938   -0.4777   -4.2642 N   0  0  0  0  0  0  0  0  0  0  0  0
    0.3420   -1.6732   -4.0959 C   0  0  0  0  0  0  0  0  0  0  0  0
    0.1523   -2.7712   -4.8507 C   0  0  0  0  0  0  0  0  0  0  0  0
    0.8207   -4.0003   -4.5679 C   0  0  0  0  0  0  0  0  0  0  0  0
    2.1099   -4.0439   -3.3877 S   0  0  0  0  0  0  0  0  0  0  0  0
    2.1543   -5.7835   -3.4425 C   0  0  0  0  0  0  0  0  0  0  0  0
    1.3031   -6.2704   -4.3984 C   0  0  0  0  0  0  0  0  0  0  0  0
    0.5526   -5.2621   -5.0306 C   0  0  0  0  0  0  0  0  0  0  0  0
    3.0139   -6.5097   -2.6564 N   0  0  0  0  0  0  0  0  0  0  0  0
    3.6497   -6.0829   -1.5112 C   0  0  0  0  0  0  0  0  0  0  0  0
    3.2322   -5.1606   -0.6196 C   0  0  0  0  0  0  0  0  0  0  0  0
    1.9552   -4.5227   -0.5134 C   0  0  0  0  0  0  0  0  0  0  0  0
    0.4680   -5.3413   -0.8694 S   0  0  0  0  0  0  0  0  0  0  0  0
   -0.5157   -3.9648   -0.4523 C   0  0  0  0  0  0  0  0  0  0  0  0
    0.3022   -2.9058   -0.0390 C   0  0  0  0  0  0  0  0  0  0  0  0
    1.6917   -3.2317   -0.0613 C   0  0  0  0  0  0  0  0  0  0  0  0
    2.6514   -2.2586    0.3018 C   0  0  0  0  0  0  0  0  0  0  0  0
    2.2495   -1.0161    0.6971 C   0  0  0  0  0  0  0  0  0  0  0  0
    3.0731    0.0004    1.0738 O   0  0  0  0  0  0  0  0  0  0  0  0
    4.4572   -0.2358    1.0728 C   0  0  0  0  0  0  0  0  0  0  0  0
    0.8494   -0.6832    0.7220 C   0  0  0  0  0  0  0  0  0  0  0  0
    0.5839    0.5830    1.1376 O   0  0  0  0  0  0  0  0  0  0  0  0
   -0.7596    0.9860    1.2283 C   0  0  0  0  0  0  0  0  0  0  0  0
   -0.0874   -1.6028    0.3444 C   0  0  0  0  0  0  0  0  0  0  0  0
   -1.9305   -4.0601   -0.4722 C   0  0  0  0  0  0  0  0  0  0  0  0
   -2.9031   -2.9930    0.5083 S   0  0  0  0  0  0  0  0  0  0  0  0
   -4.3596   -3.7764    0.0767 C   0  0  0  0  0  0  0  0  0  0  0  0
   -4.1415   -4.8192   -0.7896 C   0  0  0  0  0  0  0  0  0  0  0  0
   -2.7566   -4.9864   -1.1183 C   0  0  0  0  0  0  0  0  0  0  0  0
   -2.3957   -5.9962   -2.0388 C   0  0  0  0  0  0  0  0  0  0  0  0
   -3.3495   -6.8243   -2.5581 C   0  0  0  0  0  0  0  0  0  0  0  0
   -3.1192   -7.8334   -3.4394 O   0  0  0  0  0  0  0  0  0  0  0  0
   -1.7973   -8.0527   -3.8616 C   0  0  0  0  0  0  0  0  0  0  0  0
   -4.7369   -6.6788   -2.1914 C   0  0  0  0  0  0  0  0  0  0  0  0
   -5.5649   -7.5848   -2.7761 O   0  0  0  0  0  0  0  0  0  0  0  0
   -6.9332   -7.5245   -2.4654 C   0  0  0  0  0  0  0  0  0  0  0  0
   -5.1179   -5.6884   -1.3386 C   0  0  0  0  0  0  0  0  0  0  0  0
    2.6088    9.0093   10.0763 H   0  0  0  0  0  0  0  0  0  0  0  0
   -0.2272    7.8493    7.0297 H   0  0  0  0  0  0  0  0  0  0  0  0
    0.1798    9.3092    9.1359 H   0  0  0  0  0  0  0  0  0  0  0  0
    2.7806    5.6684    6.2437 H   0  0  0  0  0  0  0  0  0  0  0  0
    1.6016    5.4281    4.3171 H   0  0  0  0  0  0  0  0  0  0  0  0
    0.4406    8.1977    4.9362 H   0  0  0  0  0  0  0  0  0  0  0  0
   -1.8418    8.4262    0.5937 H   0  0  0  0  0  0  0  0  0  0  0  0
   -1.0068    9.1041    2.9559 H   0  0  0  0  0  0  0  0  0  0  0  0
   -1.6970    6.3883   -0.9812 H   0  0  0  0  0  0  0  0  0  0  0  0
    0.1014    4.2444   -0.0204 H   0  0  0  0  0  0  0  0  0  0  0  0
   -1.6807    4.5290   -2.5082 H   0  0  0  0  0  0  0  0  0  0  0  0
    1.4488    0.0588   -2.0729 H   0  0  0  0  0  0  0  0  0  0  0  0
    1.1287    2.3063   -0.8828 H   0  0  0  0  0  0  0  0  0  0  0  0
   -0.9872   -0.4078   -4.9951 H   0  0  0  0  0  0  0  0  0  0  0  0
    1.0376   -1.7030   -3.2712 H   0  0  0  0  0  0  0  0  0  0  0  0
   -0.5598   -2.7757   -5.6642 H   0  0  0  0  0  0  0  0  0  0  0  0
    1.1995   -7.3199   -4.6124 H   0  0  0  0  0  0  0  0  0  0  0  0
   -0.1935   -5.4592   -5.7805 H   0  0  0  0  0  0  0  0  0  0  0  0
    3.3044   -7.3997   -3.0337 H   0  0  0  0  0  0  0  0  0  0  0  0
    4.6096   -6.5585   -1.3528 H   0  0  0  0  0  0  0  0  0  0  0  0
    3.9521   -4.8620    0.1311 H   0  0  0  0  0  0  0  0  0  0  0  0
    3.6942   -2.5248    0.2523 H   0  0  0  0  0  0  0  0  0  0  0  0
    4.9157    0.6936    1.4070 H   0  0  0  0  0  0  0  0  0  0  0  0
    4.7286   -1.0425    1.7622 H   0  0  0  0  0  0  0  0  0  0  0  0
    4.8237   -0.4804    0.0698 H   0  0  0  0  0  0  0  0  0  0  0  0
   -1.3256    0.3430    1.9102 H   0  0  0  0  0  0  0  0  0  0  0  0
   -1.2445    0.9904    0.2469 H   0  0  0  0  0  0  0  0  0  0  0  0
   -0.7370    2.0015    1.6210 H   0  0  0  0  0  0  0  0  0  0  0  0
   -1.1296   -1.3389    0.3243 H   0  0  0  0  0  0  0  0  0  0  0  0
   -5.2886   -3.4264    0.4790 H   0  0  0  0  0  0  0  0  0  0  0  0
   -1.3652   -6.0927   -2.3333 H   0  0  0  0  0  0  0  0  0  0  0  0
   -1.8434   -8.9008   -4.5432 H   0  0  0  0  0  0  0  0  0  0  0  0
   -1.1409   -8.2954   -3.0189 H   0  0  0  0  0  0  0  0  0  0  0  0
   -1.3966   -7.1806   -4.3864 H   0  0  0  0  0  0  0  0  0  0  0  0
   -7.3752   -6.5713   -2.7755 H   0  0  0  0  0  0  0  0  0  0  0  0
   -7.3986   -8.3360   -3.0222 H   0  0  0  0  0  0  0  0  0  0  0  0
   -7.1088   -7.6712   -1.3941 H   0  0  0  0  0  0  0  0  0  0  0  0
   -6.1474   -5.5378   -1.0572 H   0  0  0  0  0  0  0  0  0  0  0  0
  1  2  1  0  0  0  0
  2  3  1  0  0  0  0
  3  4  2  0  0  0  0
  4  5  1  0  0  0  0
  3  6  1  0  0  0  0
  6  7  1  0  0  0  0
  7  8  2  0  0  0  0
  8  9  1  0  0  0  0
  9 10  1  0  0  0  0
 10 11  1  0  0  0  0
 11 12  2  0  0  0  0
 12 13  1  0  0  0  0
 11 14  1  0  0  0  0
 14 15  1  0  0  0  0
 15 16  2  0  0  0  0
 16 17  1  0  0  0  0
 17 18  1  0  0  0  0
 18 19  1  0  0  0  0
 19 20  2  0  0  0  0
 20 21  1  0  0  0  0
 19 22  1  0  0  0  0
 22 23  1  0  0  0  0
 23 24  2  0  0  0  0
 24 25  1  0  0  0  0
 25 26  1  0  0  0  0
 26 27  1  0  0  0  0
 27 28  2  0  0  0  0
 28 29  1  0  0  0  0
 27 30  1  0  0  0  0
 30 31  1  0  0  0  0
 31 32  2  0  0  0  0
 32 33  1  0  0  0  0
 33 34  1  0  0  0  0
 34 35  1  0  0  0  0
 35 36  2  0  0  0  0
 36 37  1  0  0  0  0
 37 38  1  0  0  0  0
 38 39  2  0  0  0  0
 39 40  1  0  0  0  0
 40 41  1  0  0  0  0
 39 42  1  0  0  0  0
 42 43  1  0  0  0  0
 43 44  1  0  0  0  0
 42 45  2  0  0  0  0
 35 46  1  0  0  0  0
 46 47  1  0  0  0  0
 47 48  1  0  0  0  0
 48 49  2  0  0  0  0
 49 50  1  0  0  0  0
 50 51  1  0  0  0  0
 51 52  2  0  0  0  0
 52 53  1  0  0  0  0
 53 54  1  0  0  0  0
 52 55  1  0  0  0  0
 55 56  1  0  0  0  0
 56 57  1  0  0  0  0
 55 58  2  0  0  0  0
  5  1  2  0  0  0  0
 13  9  2  0  0  0  0
 21 17  2  0  0  0  0
 29 25  2  0  0  0  0
 37 33  2  0  0  0  0
 50 46  2  0  0  0  0
 45 36  1  0  0  0  0
 58 49  1  0  0  0  0
  1 59  1  0  0  0  0
  4 60  1  0  0  0  0
  5 61  1  0  0  0  0
  6 62  1  0  0  0  0
  7 63  1  0  0  0  0
  8 64  1  0  0  0  0
 12 65  1  0  0  0  0
 13 66  1  0  0  0  0
 14 67  1  0  0  0  0
 15 68  1  0  0  0  0
 16 69  1  0  0  0  0
 20 70  1  0  0  0  0
 21 71  1  0  0  0  0
 22 72  1  0  0  0  0
 23 73  1  0  0  0  0
 24 74  1  0  0  0  0
 28 75  1  0  0  0  0
 29 76  1  0  0  0  0
 30 77  1  0  0  0  0
 31 78  1  0  0  0  0
 32 79  1  0  0  0  0
 38 80  1  0  0  0  0
 41 81  1  0  0  0  0
 41 82  1  0  0  0  0
 41 83  1  0  0  0  0
 44 84  1  0  0  0  0
 44 85  1  0  0  0  0
 44 86  1  0  0  0  0
 45 87  1  0  0  0  0
 48 88  1  0  0  0  0
 51 89  1  0  0  0  0
 54 90  1  0  0  0  0
 54 91  1  0  0  0  0
 54 92  1  0  0  0  0
 57 93  1  0  0  0  0
 57 94  1  0  0  0  0
 57 95  1  0  0  0  0
 58 96  1  0  0  0  0
M  END
