
  xtb     03042223423D
 energy: -230.244007722304 gnorm: 0.000266966138 xtb: 6.4.1 (unknown)
140151  0     0  0            999 V2000
    6.0163    4.8243    2.3483 C   0  0  0  0  0  0  0  0  0  0  0  0
    6.5353    4.2539    3.4599 C   0  0  0  0  0  0  0  0  0  0  0  0
    5.7304    3.1027    3.8126 C   0  0  0  0  0  0  0  0  0  0  0  0
    5.8916    2.2809    4.8784 O   0  0  0  0  0  0  0  0  0  0  0  0
    6.9250    2.5900    5.7829 C   0  0  0  0  0  0  0  0  0  0  0  0
    4.7197    2.9675    2.8902 C   0  0  0  0  0  0  0  0  0  0  0  0
    4.9063    4.0125    1.8928 C   0  0  0  0  0  0  0  0  0  0  0  0
    4.3300    4.0810    0.6521 C   0  0  0  0  0  0  0  0  0  0  0  0
    4.4429    5.1463   -0.2995 C   0  0  0  0  0  0  0  0  0  0  0  0
    3.7640    4.7860   -1.4257 C   0  0  0  0  0  0  0  0  0  0  0  0
    3.6233    5.5660   -2.5106 O   0  0  0  0  0  0  0  0  0  0  0  0
    2.9230    5.0382   -3.6181 C   0  0  0  0  0  0  0  0  0  0  0  0
    3.2373    3.4311   -1.2441 C   0  0  0  0  0  0  0  0  0  0  0  0
    3.5540    3.0231   -0.0047 C   0  0  0  0  0  0  0  0  0  0  0  0
    3.5984    2.0710    2.9241 C   0  0  0  0  0  0  0  0  0  0  0  0
    1.9898    2.7106    2.7854 S   0  0  0  0  0  0  0  0  0  0  0  0
    1.2607    1.1286    2.7903 C   0  0  0  0  0  0  0  0  0  0  0  0
    2.2426    0.1470    2.9306 C   0  0  0  0  0  0  0  0  0  0  0  0
    3.5602    0.6899    3.0441 C   0  0  0  0  0  0  0  0  0  0  0  0
    4.6647   -0.1742    3.1978 C   0  0  0  0  0  0  0  0  0  0  0  0
    4.4816   -1.5259    3.2820 C   0  0  0  0  0  0  0  0  0  0  0  0
    5.5107   -2.4220    3.4142 O   0  0  0  0  0  0  0  0  0  0  0  0
    6.8179   -1.9191    3.5223 C   0  0  0  0  0  0  0  0  0  0  0  0
    3.1544   -2.0729    3.2119 C   0  0  0  0  0  0  0  0  0  0  0  0
    2.8648   -3.4109    3.2585 O   0  0  0  0  0  0  0  0  0  0  0  0
    3.6700   -4.2947    4.0084 C   0  0  0  0  0  0  0  0  0  0  0  0
    2.0762   -1.2471    3.0240 C   0  0  0  0  0  0  0  0  0  0  0  0
   -0.1356    0.9884    2.5656 C   0  0  0  0  0  0  0  0  0  0  0  0
   -0.7452   -0.2160    1.4705 S   0  0  0  0  0  0  0  0  0  0  0  0
   -2.3728    0.3868    1.5968 C   0  0  0  0  0  0  0  0  0  0  0  0
   -2.4456    1.4336    2.5127 C   0  0  0  0  0  0  0  0  0  0  0  0
   -1.1710    1.8014    3.0353 C   0  0  0  0  0  0  0  0  0  0  0  0
   -1.0775    2.8773    3.9447 C   0  0  0  0  0  0  0  0  0  0  0  0
   -2.1991    3.5753    4.2930 C   0  0  0  0  0  0  0  0  0  0  0  0
   -2.2342    4.6264    5.1541 O   0  0  0  0  0  0  0  0  0  0  0  0
   -1.0241    5.0506    5.7291 C   0  0  0  0  0  0  0  0  0  0  0  0
   -3.4799    3.2278    3.7333 C   0  0  0  0  0  0  0  0  0  0  0  0
   -4.5038    4.0192    4.1503 O   0  0  0  0  0  0  0  0  0  0  0  0
   -5.7913    3.7487    3.6585 C   0  0  0  0  0  0  0  0  0  0  0  0
   -3.5922    2.1788    2.8657 C   0  0  0  0  0  0  0  0  0  0  0  0
   -3.3781   -0.1594    0.7483 C   0  0  0  0  0  0  0  0  0  0  0  0
   -4.6369   -0.5982    1.0660 C   0  0  0  0  0  0  0  0  0  0  0  0
   -5.1943   -1.2652   -0.0708 C   0  0  0  0  0  0  0  0  0  0  0  0
   -6.3908   -1.8874   -0.1499 O   0  0  0  0  0  0  0  0  0  0  0  0
   -7.1835   -1.9177    1.0125 C   0  0  0  0  0  0  0  0  0  0  0  0
   -4.2776   -1.2636   -1.1128 C   0  0  0  0  0  0  0  0  0  0  0  0
   -3.1803   -0.4057   -0.6911 C   0  0  0  0  0  0  0  0  0  0  0  0
   -2.4160    0.4093   -1.4817 C   0  0  0  0  0  0  0  0  0  0  0  0
   -1.6295    1.5412   -1.0477 C   0  0  0  0  0  0  0  0  0  0  0  0
   -1.0644    2.1114   -2.1399 C   0  0  0  0  0  0  0  0  0  0  0  0
   -0.2743    3.2041   -2.2335 O   0  0  0  0  0  0  0  0  0  0  0  0
   -0.0727    3.9123   -1.0295 C   0  0  0  0  0  0  0  0  0  0  0  0
   -1.4744    1.3677   -3.3279 C   0  0  0  0  0  0  0  0  0  0  0  0
   -2.3001    0.3799   -2.9405 C   0  0  0  0  0  0  0  0  0  0  0  0
   -4.3829   -2.0076   -2.3251 C   0  0  0  0  0  0  0  0  0  0  0  0
   -5.4930   -2.2653   -3.0729 C   0  0  0  0  0  0  0  0  0  0  0  0
   -5.1014   -3.0055   -4.2441 C   0  0  0  0  0  0  0  0  0  0  0  0
   -6.0706   -3.4519   -5.0628 O   0  0  0  0  0  0  0  0  0  0  0  0
   -5.7594   -4.3765   -6.0772 C   0  0  0  0  0  0  0  0  0  0  0  0
   -3.7283   -3.1895   -4.2434 C   0  0  0  0  0  0  0  0  0  0  0  0
   -3.2332   -2.6285   -3.0084 C   0  0  0  0  0  0  0  0  0  0  0  0
   -1.9744   -2.7584   -2.4747 C   0  0  0  0  0  0  0  0  0  0  0  0
   -1.6239   -2.7511   -1.0869 C   0  0  0  0  0  0  0  0  0  0  0  0
   -0.2861   -2.9965   -0.9865 C   0  0  0  0  0  0  0  0  0  0  0  0
    0.3633   -3.1549    0.1827 O   0  0  0  0  0  0  0  0  0  0  0  0
    1.7320   -3.4879    0.1287 C   0  0  0  0  0  0  0  0  0  0  0  0
    0.2770   -3.0790   -2.3300 C   0  0  0  0  0  0  0  0  0  0  0  0
   -0.7338   -2.9754   -3.2130 C   0  0  0  0  0  0  0  0  0  0  0  0
   -2.9007   -3.8888   -5.2072 C   0  0  0  0  0  0  0  0  0  0  0  0
   -2.7144   -3.5590   -6.5092 C   0  0  0  0  0  0  0  0  0  0  0  0
   -1.7234   -4.4526   -7.0790 C   0  0  0  0  0  0  0  0  0  0  0  0
   -1.3729   -4.3325   -8.3745 O   0  0  0  0  0  0  0  0  0  0  0  0
   -0.3701   -5.2051   -8.8370 C   0  0  0  0  0  0  0  0  0  0  0  0
   -1.2867   -5.3127   -6.1158 C   0  0  0  0  0  0  0  0  0  0  0  0
   -2.0149   -5.0394   -4.9113 C   0  0  0  0  0  0  0  0  0  0  0  0
   -1.9269   -5.7422   -3.7391 C   0  0  0  0  0  0  0  0  0  0  0  0
   -2.7389   -5.6579   -2.5615 C   0  0  0  0  0  0  0  0  0  0  0  0
   -2.1634   -6.4233   -1.5939 C   0  0  0  0  0  0  0  0  0  0  0  0
   -2.6612   -6.5664   -0.3475 O   0  0  0  0  0  0  0  0  0  0  0  0
   -1.8718   -7.2554    0.5930 C   0  0  0  0  0  0  0  0  0  0  0  0
   -0.9593   -7.0451   -2.1375 C   0  0  0  0  0  0  0  0  0  0  0  0
   -0.8459   -6.6767   -3.4264 C   0  0  0  0  0  0  0  0  0  0  0  0
    6.3994    5.6783    1.8251 H   0  0  0  0  0  0  0  0  0  0  0  0
    7.3919    4.5979    4.0103 H   0  0  0  0  0  0  0  0  0  0  0  0
    7.9077    2.5437    5.3015 H   0  0  0  0  0  0  0  0  0  0  0  0
    6.8719    1.8353    6.5664 H   0  0  0  0  0  0  0  0  0  0  0  0
    6.7869    3.5808    6.2266 H   0  0  0  0  0  0  0  0  0  0  0  0
    4.9275    6.0861   -0.1298 H   0  0  0  0  0  0  0  0  0  0  0  0
    1.9032    4.7453   -3.3539 H   0  0  0  0  0  0  0  0  0  0  0  0
    3.4468    4.1760   -4.0417 H   0  0  0  0  0  0  0  0  0  0  0  0
    2.8904    5.8380   -4.3564 H   0  0  0  0  0  0  0  0  0  0  0  0
    2.7006    2.8724   -1.9877 H   0  0  0  0  0  0  0  0  0  0  0  0
    3.3644    2.0555    0.4163 H   0  0  0  0  0  0  0  0  0  0  0  0
    5.6429    0.2706    3.2520 H   0  0  0  0  0  0  0  0  0  0  0  0
    7.4575   -2.7915    3.6509 H   0  0  0  0  0  0  0  0  0  0  0  0
    6.9233   -1.2590    4.3893 H   0  0  0  0  0  0  0  0  0  0  0  0
    7.1174   -1.3799    2.6178 H   0  0  0  0  0  0  0  0  0  0  0  0
    4.5792   -4.5707    3.4700 H   0  0  0  0  0  0  0  0  0  0  0  0
    3.9401   -3.8690    4.9772 H   0  0  0  0  0  0  0  0  0  0  0  0
    3.0552   -5.1821    4.1630 H   0  0  0  0  0  0  0  0  0  0  0  0
    1.0952   -1.6877    2.9507 H   0  0  0  0  0  0  0  0  0  0  0  0
   -0.1125    3.1276    4.3518 H   0  0  0  0  0  0  0  0  0  0  0  0
   -1.2804    5.9001    6.3601 H   0  0  0  0  0  0  0  0  0  0  0  0
   -0.3052    5.3668    4.9659 H   0  0  0  0  0  0  0  0  0  0  0  0
   -0.5737    4.2643    6.3441 H   0  0  0  0  0  0  0  0  0  0  0  0
   -6.1283    2.7466    3.9450 H   0  0  0  0  0  0  0  0  0  0  0  0
   -5.8353    3.8459    2.5684 H   0  0  0  0  0  0  0  0  0  0  0  0
   -6.4434    4.4921    4.1140 H   0  0  0  0  0  0  0  0  0  0  0  0
   -4.5355    1.9006    2.4263 H   0  0  0  0  0  0  0  0  0  0  0  0
   -5.0877   -0.5415    2.0398 H   0  0  0  0  0  0  0  0  0  0  0  0
   -8.0929   -2.4515    0.7407 H   0  0  0  0  0  0  0  0  0  0  0  0
   -7.4431   -0.9078    1.3473 H   0  0  0  0  0  0  0  0  0  0  0  0
   -6.6812   -2.4504    1.8262 H   0  0  0  0  0  0  0  0  0  0  0  0
   -1.5655    1.9005   -0.0427 H   0  0  0  0  0  0  0  0  0  0  0  0
    0.5375    4.7805   -1.2727 H   0  0  0  0  0  0  0  0  0  0  0  0
    0.4497    3.2985   -0.2897 H   0  0  0  0  0  0  0  0  0  0  0  0
   -1.0265    4.2438   -0.6083 H   0  0  0  0  0  0  0  0  0  0  0  0
   -1.1681    1.6220   -4.3248 H   0  0  0  0  0  0  0  0  0  0  0  0
   -2.7940   -0.3283   -3.5743 H   0  0  0  0  0  0  0  0  0  0  0  0
   -6.5015   -1.9687   -2.8641 H   0  0  0  0  0  0  0  0  0  0  0  0
   -6.7166   -4.7546   -6.4362 H   0  0  0  0  0  0  0  0  0  0  0  0
   -5.2192   -3.9042   -6.9020 H   0  0  0  0  0  0  0  0  0  0  0  0
   -5.1569   -5.2023   -5.6896 H   0  0  0  0  0  0  0  0  0  0  0  0
   -2.3111   -2.7211   -0.2671 H   0  0  0  0  0  0  0  0  0  0  0  0
    1.8969   -4.4005   -0.4532 H   0  0  0  0  0  0  0  0  0  0  0  0
    2.3210   -2.6722   -0.3029 H   0  0  0  0  0  0  0  0  0  0  0  0
    2.0417   -3.6489    1.1595 H   0  0  0  0  0  0  0  0  0  0  0  0
    1.3203   -3.1951   -2.5590 H   0  0  0  0  0  0  0  0  0  0  0  0
   -0.6541   -2.9386   -4.2819 H   0  0  0  0  0  0  0  0  0  0  0  0
   -3.1598   -2.7464   -7.0517 H   0  0  0  0  0  0  0  0  0  0  0  0
   -0.6905   -6.2490   -8.7602 H   0  0  0  0  0  0  0  0  0  0  0  0
   -0.2003   -4.9511   -9.8819 H   0  0  0  0  0  0  0  0  0  0  0  0
    0.5571   -5.0741   -8.2704 H   0  0  0  0  0  0  0  0  0  0  0  0
   -0.5713   -6.1035   -6.2255 H   0  0  0  0  0  0  0  0  0  0  0  0
   -3.6514   -5.1086   -2.4612 H   0  0  0  0  0  0  0  0  0  0  0  0
   -0.8935   -6.7802    0.7152 H   0  0  0  0  0  0  0  0  0  0  0  0
   -1.7352   -8.3053    0.3129 H   0  0  0  0  0  0  0  0  0  0  0  0
   -2.4154   -7.2043    1.5353 H   0  0  0  0  0  0  0  0  0  0  0  0
   -0.2960   -7.6928   -1.5937 H   0  0  0  0  0  0  0  0  0  0  0  0
   -0.0589   -6.9462   -4.1040 H   0  0  0  0  0  0  0  0  0  0  0  0
  1  2  2  0  0  0  0
  2  3  1  0  0  0  0
  3  4  1  0  0  0  0
  4  5  1  0  0  0  0
  3  6  2  0  0  0  0
  6  7  1  0  0  0  0
  7  8  2  0  0  0  0
  8  9  1  0  0  0  0
  9 10  2  0  0  0  0
 10 11  1  0  0  0  0
 11 12  1  0  0  0  0
 10 13  1  0  0  0  0
 13 14  2  0  0  0  0
  6 15  1  0  0  0  0
 15 16  1  0  0  0  0
 16 17  1  0  0  0  0
 17 18  2  0  0  0  0
 18 19  1  0  0  0  0
 19 20  1  0  0  0  0
 20 21  2  0  0  0  0
 21 22  1  0  0  0  0
 22 23  1  0  0  0  0
 21 24  1  0  0  0  0
 24 25  1  0  0  0  0
 25 26  1  0  0  0  0
 24 27  2  0  0  0  0
 17 28  1  0  0  0  0
 28 29  1  0  0  0  0
 29 30  1  0  0  0  0
 30 31  2  0  0  0  0
 31 32  1  0  0  0  0
 32 33  1  0  0  0  0
 33 34  2  0  0  0  0
 34 35  1  0  0  0  0
 35 36  1  0  0  0  0
 34 37  1  0  0  0  0
 37 38  1  0  0  0  0
 38 39  1  0  0  0  0
 37 40  2  0  0  0  0
 30 41  1  0  0  0  0
 41 42  2  0  0  0  0
 42 43  1  0  0  0  0
 43 44  1  0  0  0  0
 44 45  1  0  0  0  0
 43 46  2  0  0  0  0
 46 47  1  0  0  0  0
 47 48  2  0  0  0  0
 48 49  1  0  0  0  0
 49 50  2  0  0  0  0
 50 51  1  0  0  0  0
 51 52  1  0  0  0  0
 50 53  1  0  0  0  0
 53 54  2  0  0  0  0
 46 55  1  0  0  0  0
 55 56  2  0  0  0  0
 56 57  1  0  0  0  0
 57 58  1  0  0  0  0
 58 59  1  0  0  0  0
 57 60  2  0  0  0  0
 60 61  1  0  0  0  0
 61 62  2  0  0  0  0
 62 63  1  0  0  0  0
 63 64  2  0  0  0  0
 64 65  1  0  0  0  0
 65 66  1  0  0  0  0
 64 67  1  0  0  0  0
 67 68  2  0  0  0  0
 60 69  1  0  0  0  0
 69 70  2  0  0  0  0
 70 71  1  0  0  0  0
 71 72  1  0  0  0  0
 72 73  1  0  0  0  0
 71 74  2  0  0  0  0
 74 75  1  0  0  0  0
 75 76  2  0  0  0  0
 76 77  1  0  0  0  0
 77 78  2  0  0  0  0
 78 79  1  0  0  0  0
 79 80  1  0  0  0  0
 78 81  1  0  0  0  0
 81 82  2  0  0  0  0
  7  1  1  0  0  0  0
 14  8  1  0  0  0  0
 19 15  2  0  0  0  0
 32 28  2  0  0  0  0
 47 41  1  0  0  0  0
 54 48  1  0  0  0  0
 61 55  1  0  0  0  0
 68 62  1  0  0  0  0
 75 69  1  0  0  0  0
 82 76  1  0  0  0  0
 27 18  1  0  0  0  0
 40 31  1  0  0  0  0
  1 83  1  0  0  0  0
  2 84  1  0  0  0  0
  5 85  1  0  0  0  0
  5 86  1  0  0  0  0
  5 87  1  0  0  0  0
  9 88  1  0  0  0  0
 12 89  1  0  0  0  0
 12 90  1  0  0  0  0
 12 91  1  0  0  0  0
 13 92  1  0  0  0  0
 14 93  1  0  0  0  0
 20 94  1  0  0  0  0
 23 95  1  0  0  0  0
 23 96  1  0  0  0  0
 23 97  1  0  0  0  0
 26 98  1  0  0  0  0
 26 99  1  0  0  0  0
 26100  1  0  0  0  0
 27101  1  0  0  0  0
 33102  1  0  0  0  0
 36103  1  0  0  0  0
 36104  1  0  0  0  0
 36105  1  0  0  0  0
 39106  1  0  0  0  0
 39107  1  0  0  0  0
 39108  1  0  0  0  0
 40109  1  0  0  0  0
 42110  1  0  0  0  0
 45111  1  0  0  0  0
 45112  1  0  0  0  0
 45113  1  0  0  0  0
 49114  1  0  0  0  0
 52115  1  0  0  0  0
 52116  1  0  0  0  0
 52117  1  0  0  0  0
 53118  1  0  0  0  0
 54119  1  0  0  0  0
 56120  1  0  0  0  0
 59121  1  0  0  0  0
 59122  1  0  0  0  0
 59123  1  0  0  0  0
 63124  1  0  0  0  0
 66125  1  0  0  0  0
 66126  1  0  0  0  0
 66127  1  0  0  0  0
 67128  1  0  0  0  0
 68129  1  0  0  0  0
 70130  1  0  0  0  0
 73131  1  0  0  0  0
 73132  1  0  0  0  0
 73133  1  0  0  0  0
 74134  1  0  0  0  0
 77135  1  0  0  0  0
 80136  1  0  0  0  0
 80137  1  0  0  0  0
 80138  1  0  0  0  0
 81139  1  0  0  0  0
 82140  1  0  0  0  0
M  END
