273

C        -18.39420        4.38950        8.39890
C        -17.44870        5.15080        7.81230
C        -16.53380        4.39170        7.02270
C        -15.43710        4.85650        6.28040
C        -15.12120        6.28750        6.18180
C        -16.08900        7.21320        5.79500
C        -15.78020        8.55310        5.70210
C        -14.49840        9.02540        5.98110
S        -14.21940       10.76030        5.77950
C        -13.08810       11.20220        7.15000
C        -13.67410       10.85880        8.50470
C        -13.53580        8.08570        6.33550
F        -12.25970        8.45720        6.58480
C        -13.83520        6.74330        6.44970
C        -14.66840        3.89680        5.63820
C        -14.97260        2.51500        5.68540
C        -16.08680        2.05080        6.40120
C        -16.39510        0.61550        6.41700
C        -16.56410       -0.08330        7.61020
C        -16.73290       -1.45190        7.60150
C        -16.76120       -2.17410        6.40970
S        -16.95650       -3.92750        6.51740
C        -15.85050       -4.58450        5.21030
C        -14.42070       -4.10850        5.36510
C        -16.66900       -1.45200        5.22360
C        -16.47060       -0.08720        5.21760
F        -16.76210       -2.07090        4.02510
C        -16.83190        3.00750        7.07310
S        -18.24670        2.70150        8.04600
C        -14.02170        1.74180        4.97580
C        -13.05110        2.48170        4.37240
S        -13.25140        4.19900        4.65950
C        -11.96170        1.96570        3.61150
C        -10.96630        2.63070        2.96190
C        -10.02860        1.77110        2.33110
C         -8.89970        2.11580        1.56810
C         -8.49530        3.51450        1.38860
C         -8.38350        4.37120        2.48010
C         -7.99630        5.68770        2.32170
C         -7.70350        6.19710        1.06140
S         -7.22740        7.85350        0.70480
C         -6.87710        8.58740        2.33960
C         -5.58490        8.06690        2.94040
C         -7.82100        5.32610       -0.02440
F         -7.55740        5.78790       -1.26240
C         -8.20330        4.01230        0.12010
C         -8.17760        1.06690        1.01710
C         -8.51800       -0.29740        1.19930
C         -9.64180       -0.64130        1.96440
C        -10.06960       -2.02970        2.17870
C        -10.30810       -2.88550        1.10760
C        -10.80550       -4.15820        1.31190
C        -11.07890       -4.61900        2.59480
S        -11.73320       -6.21460        2.97430
C        -12.68290       -6.64850        1.47460
C        -13.85280       -5.71070        1.24930
C        -10.79220       -3.76690        3.66100
C        -10.30460       -2.49370        3.47100
F        -11.00900       -4.19330        4.92080
C        -10.36160        0.40680        2.51500
S        -11.80710        0.22430        3.46820
C         -7.57040       -1.16680        0.60430
C         -6.54250       -0.51440       -0.00880
S         -6.70350        1.22900        0.09720
C         -5.39150       -1.08320       -0.62700
C         -4.32460       -0.42590       -1.16320
C         -3.28380       -1.28420       -1.59690
C         -2.05070       -0.92490       -2.17110
C         -1.63640        0.47620       -2.30290
C         -1.75410        1.35560       -1.22610
C         -1.30590        2.65460       -1.32590
C         -0.72680        3.13360       -2.49900
S         -0.21220        4.82620       -2.52260
C          1.40710        4.77590       -3.37740
C          2.38140        3.84070       -2.69000
C         -0.63910        2.25340       -3.57280
F         -0.12060        2.65810       -4.75390
C         -1.06830        0.94490       -3.48310
C         -1.20770       -1.96500       -2.53000
C         -1.52290       -3.32750       -2.30660
C         -2.76560       -3.69030       -1.75580
C         -3.11110       -5.10410       -1.57800
C         -3.63330       -5.58960       -0.38310
C         -3.91930       -6.93140       -0.21900
C         -3.69770       -7.84100       -1.24700
S         -3.97840       -9.57800       -1.15760
C         -5.09250       -9.77350        0.27560
C         -6.47070       -9.19630        0.01570
C         -3.17670       -7.34030       -2.44130
C         -2.89150       -6.00680       -2.61960
F         -2.93440       -8.19160       -3.46240
C         -3.61040       -2.65020       -1.40060
S         -5.18720       -2.82470       -0.67310
C         -0.43620       -4.18310       -2.60380
C          0.67120       -3.53750       -3.08020
S          0.40020       -1.80060       -3.18590
C          1.95870       -4.04670       -3.39490
S          3.24000       -2.90890       -3.66100
C          4.44810       -4.14890       -3.73120
C          3.86810       -5.40990       -3.59560
C          2.44810       -5.35790       -3.43520
C          1.72640       -6.56820       -3.35550
C          2.37980       -7.76950       -3.37960
O          1.78680       -8.98130       -3.30330
C          0.38650       -9.04110       -3.16240
C          3.81570       -7.81490       -3.50240
O          4.33690       -9.06250       -3.50330
C          5.73210       -9.20350       -3.61930
C          4.52990       -6.65650       -3.62440
C          5.80470       -3.73940       -3.84100
C          6.23140       -2.52790       -4.30800
C          7.61940       -2.30670       -4.15520
C          8.33160       -1.13710       -4.46450
C          7.66630       -0.04430       -5.18930
C          7.11540       -0.29550       -6.44420
C          6.46080        0.70260       -7.13540
C          6.31510        1.97030       -6.58580
S          5.43830        3.21400       -7.50490
C          4.04580        3.53190       -6.35750
C          3.20780        2.28770       -6.14120
C          6.88330        2.21290       -5.34050
F          6.76720        3.42920       -4.76900
C          7.55830        1.22900       -4.64400
C          9.65820       -1.09280       -4.07420
C         10.30160       -2.18210       -3.43450
C          9.59720       -3.36700       -3.15120
C         10.25940       -4.47470       -2.45290
C         10.20040       -5.78150       -2.93170
C         10.90120       -6.79020       -2.30400
C         11.67360       -6.54200       -1.17150
S         12.56180       -7.89330       -0.45450
C         14.19930       -7.16270       -0.07840
C         14.84870       -6.56050       -1.30740
C         11.66570       -5.24630       -0.66340
C         10.98530       -4.22440       -1.29120
F         12.33640       -4.94050        0.46940
C          8.26600       -3.40040       -3.52840
S          7.14110       -4.70090       -3.22210
C         11.66170       -1.90110       -3.16890
C         12.05040       -0.64680       -3.54270
S         10.74910        0.25020       -4.29740
C         13.33650       -0.07130       -3.30760
C         14.34520       -0.64330       -2.58770
C         15.49070        0.17850       -2.45850
C         16.67330       -0.10340       -1.75560
C         16.81030       -1.34590       -0.98560
C         15.81990       -1.73540       -0.08240
C         15.93770       -2.90730        0.63180
C         17.04300       -3.74320        0.47400
S         17.06100       -5.24110        1.41020
C         18.84370       -5.53610        1.74470
C         18.97010       -6.39740        2.98560
C         18.01630       -3.35000       -0.43950
F         19.09360       -4.13140       -0.68170
C         17.91860       -2.16920       -1.14810
C         17.67320        0.85580       -1.82010
C         17.52300        2.08340       -2.51050
C         16.32790        2.37740       -3.18310
C         16.12310        3.65860       -3.87160
C         16.32480        4.86630       -3.21040
C         16.11470        6.07390       -3.84800
C         15.69590        6.11580       -5.17310
S         15.42180        7.58150       -6.11180
C         15.23920        8.88950       -4.85010
C         13.96660        8.73270       -4.04010
C         15.50790        4.89620       -5.82640
C         15.70640        3.68640       -5.20040
F         15.12210        4.89870       -7.11670
C         15.34110        1.40300       -3.15390
S         13.76430        1.52150       -3.89380
C         18.70200        2.88270       -2.42030
C         19.67280        2.30710       -1.68370
S         19.23680        0.75560       -1.05150
H        -19.19300        4.70900        9.03930
H        -17.37860        6.21630        7.93550
H        -17.08470        6.87430        5.55280
H        -16.53190        9.26770        5.40470
H        -12.96990       12.27970        7.03480
H        -12.12650       10.72090        6.98710
H        -14.64620       11.33080        8.63100
H        -13.00920       11.21070        9.29090
H        -13.79500        9.78270        8.61420
H        -13.05390        6.06350        6.75180
H        -16.52030        0.44430        8.55020
H        -16.83050       -1.99500        8.52840
H        -15.92140       -5.66280        5.35520
H        -16.26520       -4.32830        4.23740
H        -14.05500       -4.30700        6.36990
H        -14.33810       -3.04060        5.17150
H        -13.78090       -4.63500        4.66050
H        -16.39990        0.42320        4.26930
H        -14.04050        0.66780        4.93000
H        -10.91800        3.70410        2.92110
H         -8.58050        3.99700        3.47350
H         -7.93080        6.31610        3.19480
H         -7.73720        8.42440        2.98760
H         -6.80210        9.65390        2.12750
H         -4.75160        8.27690        2.27420
H         -5.63110        6.99180        3.10050
H         -5.39860        8.55370        3.89590
H         -8.29040        3.39300       -0.75850
H        -10.12830       -2.54110        0.10030
H        -10.98490       -4.79300        0.45890
H        -13.02790       -7.66210        1.67840
H        -12.00460       -6.67800        0.62290
H        -13.50950       -4.68920        1.09660
H        -14.41320       -6.02340        0.37060
H        -14.51860       -5.72460        2.10920
H        -10.10630       -1.87510        4.33180
H         -7.63170       -2.23950        0.65670
H         -4.29200        0.64550       -1.24890
H         -2.16290        1.00410       -0.29130
H         -1.38810        3.32670       -0.48600
H          1.24950        4.51340       -4.42130
H          1.74900        5.80930       -3.32160
H          2.04630        2.80700       -2.75870
H          3.35950        3.91720       -3.15980
H          2.47990        4.10150       -1.63820
H         -0.97890        0.31090       -4.35120
H         -3.79440       -4.91490        0.44320
H         -4.30400       -7.26650        0.73050
H         -5.14280      -10.85400        0.41010
H         -4.61590       -9.33770        1.15270
H         -6.92040       -9.67620       -0.85050
H         -7.11060       -9.36520        0.87970
H         -6.41750       -8.12600       -0.17360
H         -2.52110       -5.67180       -3.57590
H         -0.46650       -5.23230       -2.38740
H          0.65360       -6.54050       -3.30890
H          0.05340       -8.53770       -2.24890
H         -0.12750       -8.60640       -4.02470
H          0.14030      -10.09890       -3.09750
H          6.09620       -8.81020       -4.57400
H          6.25620       -8.70290       -2.79890
H          5.92320      -10.27410       -3.57290
H          5.59940       -6.67030       -3.74740
H          5.55930       -1.79950       -4.72580
H          7.20870       -1.28020       -6.87680
H          6.03860        0.51150       -8.10950
H          3.47150        4.31460       -6.85170
H          4.45280        3.92300       -5.42660
H          2.32260        2.52950       -5.55930
H          2.88810        1.87800       -7.09680
H          3.77460        1.52440       -5.61000
H          7.97980        1.46010       -3.67810
H          9.63330       -5.99810       -3.82380
H         10.87670       -7.79610       -2.69320
H         14.77290       -8.01200        0.29110
H         14.09460       -6.43490        0.72290
H         14.27950       -5.70660       -1.67120
H         15.85020       -6.22060       -1.05510
H         14.91700       -7.29630       -2.10590
H         11.00390       -3.23980       -0.84970
H         12.33360       -2.61380       -2.72940
H         14.28200       -1.62680       -2.16130
H         14.96590       -1.09580        0.08030
H         15.17010       -3.20160        1.33070
H         19.28080       -6.02830        0.87720
H         19.30880       -4.56240        1.89060
H         18.47040       -7.35260        2.83980
H         18.52110       -5.90110        3.84310
H         20.02090       -6.58240        3.19780
H         18.69960       -1.92250       -1.85000
H         16.63170        4.86140       -2.17500
H         16.28680        6.98720       -3.30180
H         15.21340        9.80580       -5.43980
H         16.13230        8.90540       -4.22660
H         13.10060        8.74350       -4.69760
H         13.96610        7.79420       -3.48950
H         13.87580        9.55290       -3.33050
H         15.55100        2.77590       -5.75720
H         18.80520        3.83650       -2.90500
H         20.65000        2.69070       -1.46410
