
  xtb     03052209163D
 energy: -323.222335210670 gnorm: 0.000199211285 xtb: 6.4.1 (unknown)
186203  0     0  0            999 V2000
    9.0026   -3.9686   11.3806 C   0  0  0  0  0  0  0  0  0  0  0  0
    7.4099   -4.0266   10.7613 S   0  0  0  0  0  0  0  0  0  0  0  0
    7.8499   -3.1244    9.3402 C   0  0  0  0  0  0  0  0  0  0  0  0
    9.2141   -2.8390    9.3506 C   0  0  0  0  0  0  0  0  0  0  0  0
    9.8644   -3.3083   10.5368 C   0  0  0  0  0  0  0  0  0  0  0  0
   11.2526   -3.0791   10.7165 C   0  0  0  0  0  0  0  0  0  0  0  0
   11.9663   -2.4493    9.7413 C   0  0  0  0  0  0  0  0  0  0  0  0
   13.2917   -2.1599    9.7905 O   0  0  0  0  0  0  0  0  0  0  0  0
   14.0092   -2.5289   10.9408 C   0  0  0  0  0  0  0  0  0  0  0  0
   11.3249   -2.0495    8.5096 C   0  0  0  0  0  0  0  0  0  0  0  0
   12.1673   -1.4888    7.6034 O   0  0  0  0  0  0  0  0  0  0  0  0
   11.6480   -1.1196    6.3507 C   0  0  0  0  0  0  0  0  0  0  0  0
    9.9878   -2.2474    8.3248 C   0  0  0  0  0  0  0  0  0  0  0  0
    6.8748   -2.7832    8.3643 C   0  0  0  0  0  0  0  0  0  0  0  0
    5.6259   -3.9024    7.9315 S   0  0  0  0  0  0  0  0  0  0  0  0
    4.9607   -2.8595    6.6992 C   0  0  0  0  0  0  0  0  0  0  0  0
    5.6939   -1.6575    6.6610 C   0  0  0  0  0  0  0  0  0  0  0  0
    6.7503   -1.6112    7.6189 C   0  0  0  0  0  0  0  0  0  0  0  0
    7.5019   -0.4268    7.7946 C   0  0  0  0  0  0  0  0  0  0  0  0
    7.2879    0.6477    6.9814 C   0  0  0  0  0  0  0  0  0  0  0  0
    7.9481    1.8321    7.0499 O   0  0  0  0  0  0  0  0  0  0  0  0
    8.9043    2.0010    8.0659 C   0  0  0  0  0  0  0  0  0  0  0  0
    6.2951    0.5712    5.9435 C   0  0  0  0  0  0  0  0  0  0  0  0
    6.2058    1.6799    5.1704 O   0  0  0  0  0  0  0  0  0  0  0  0
    5.2313    1.7143    4.1557 C   0  0  0  0  0  0  0  0  0  0  0  0
    5.5171   -0.5465    5.8091 C   0  0  0  0  0  0  0  0  0  0  0  0
    3.8375   -3.2562    5.9400 C   0  0  0  0  0  0  0  0  0  0  0  0
    3.0129   -2.1120    4.9199 S   0  0  0  0  0  0  0  0  0  0  0  0
    1.8688   -3.2782    4.3405 C   0  0  0  0  0  0  0  0  0  0  0  0
    2.0749   -4.5090    4.9663 C   0  0  0  0  0  0  0  0  0  0  0  0
    3.1915   -4.5063    5.8557 C   0  0  0  0  0  0  0  0  0  0  0  0
    3.5330   -5.7077    6.5107 C   0  0  0  0  0  0  0  0  0  0  0  0
    2.7778   -6.8358    6.3423 C   0  0  0  0  0  0  0  0  0  0  0  0
    3.0248   -8.0351    6.9258 O   0  0  0  0  0  0  0  0  0  0  0  0
    4.1379   -8.1461    7.7785 C   0  0  0  0  0  0  0  0  0  0  0  0
    1.6069   -6.8085    5.5104 C   0  0  0  0  0  0  0  0  0  0  0  0
    0.9121   -7.9734    5.4740 O   0  0  0  0  0  0  0  0  0  0  0  0
   -0.2676   -8.0193    4.7125 C   0  0  0  0  0  0  0  0  0  0  0  0
    1.2784   -5.6671    4.8354 C   0  0  0  0  0  0  0  0  0  0  0  0
    0.9829   -2.9021    3.2988 C   0  0  0  0  0  0  0  0  0  0  0  0
    0.3965   -3.6774    2.3350 C   0  0  0  0  0  0  0  0  0  0  0  0
   -0.3282   -2.9412    1.3685 C   0  0  0  0  0  0  0  0  0  0  0  0
   -0.9723   -3.4220    0.2142 C   0  0  0  0  0  0  0  0  0  0  0  0
   -0.9723   -4.8462   -0.1431 C   0  0  0  0  0  0  0  0  0  0  0  0
   -2.1632   -5.5027   -0.4501 C   0  0  0  0  0  0  0  0  0  0  0  0
   -2.1635   -6.8395   -0.7847 C   0  0  0  0  0  0  0  0  0  0  0  0
   -0.9801   -7.5733   -0.8453 C   0  0  0  0  0  0  0  0  0  0  0  0
   -1.1067   -9.2680   -1.3393 S   0  0  0  0  0  0  0  0  0  0  0  0
    0.1269  -10.1364   -0.3008 C   0  0  0  0  0  0  0  0  0  0  0  0
   -0.1182   -9.9138    1.1777 C   0  0  0  0  0  0  0  0  0  0  0  0
    0.2043   -6.8970   -0.5701 C   0  0  0  0  0  0  0  0  0  0  0  0
    1.3984   -7.5271   -0.6526 F   0  0  0  0  0  0  0  0  0  0  0  0
    0.2171   -5.5648   -0.2084 C   0  0  0  0  0  0  0  0  0  0  0  0
   -1.5898   -2.4802   -0.5920 C   0  0  0  0  0  0  0  0  0  0  0  0
   -1.6003   -1.0931   -0.3081 C   0  0  0  0  0  0  0  0  0  0  0  0
   -0.9458   -0.6102    0.8394 C   0  0  0  0  0  0  0  0  0  0  0  0
   -0.8812    0.8251    1.1391 C   0  0  0  0  0  0  0  0  0  0  0  0
   -1.2209    1.3129    2.3995 C   0  0  0  0  0  0  0  0  0  0  0  0
   -1.1698    2.6644    2.6665 C   0  0  0  0  0  0  0  0  0  0  0  0
   -0.7635    3.5795    1.6983 C   0  0  0  0  0  0  0  0  0  0  0  0
   -0.7012    5.2884    2.1562 S   0  0  0  0  0  0  0  0  0  0  0  0
   -1.4046    6.1468    0.6989 C   0  0  0  0  0  0  0  0  0  0  0  0
   -2.8037    5.6625    0.3761 C   0  0  0  0  0  0  0  0  0  0  0  0
   -0.3868    3.0744    0.4578 C   0  0  0  0  0  0  0  0  0  0  0  0
   -0.4569    1.7273    0.1683 C   0  0  0  0  0  0  0  0  0  0  0  0
    0.0704    3.8954   -0.5144 F   0  0  0  0  0  0  0  0  0  0  0  0
   -0.3292   -1.5505    1.6471 C   0  0  0  0  0  0  0  0  0  0  0  0
    0.6160   -1.1961    3.0693 S   0  0  0  0  0  0  0  0  0  0  0  0
   -2.2837   -0.3563   -1.3029 C   0  0  0  0  0  0  0  0  0  0  0  0
   -2.7230   -1.1092   -2.3576 C   0  0  0  0  0  0  0  0  0  0  0  0
   -2.3615   -2.8125   -2.1218 S   0  0  0  0  0  0  0  0  0  0  0  0
   -3.3697   -0.6128   -3.5221 C   0  0  0  0  0  0  0  0  0  0  0  0
   -4.0389    0.9898   -3.4751 S   0  0  0  0  0  0  0  0  0  0  0  0
   -4.4595    0.9535   -5.1527 C   0  0  0  0  0  0  0  0  0  0  0  0
   -4.1173   -0.2679   -5.7251 C   0  0  0  0  0  0  0  0  0  0  0  0
   -3.5094   -1.1670   -4.7955 C   0  0  0  0  0  0  0  0  0  0  0  0
   -3.1091   -2.4476   -5.2363 C   0  0  0  0  0  0  0  0  0  0  0  0
   -3.3212   -2.8257   -6.5317 C   0  0  0  0  0  0  0  0  0  0  0  0
   -2.9833   -4.0243   -7.0618 O   0  0  0  0  0  0  0  0  0  0  0  0
   -2.3630   -4.9729   -6.2279 C   0  0  0  0  0  0  0  0  0  0  0  0
   -3.9645   -1.9280   -7.4601 C   0  0  0  0  0  0  0  0  0  0  0  0
   -4.1304   -2.4394   -8.7031 O   0  0  0  0  0  0  0  0  0  0  0  0
   -4.7340   -1.6311   -9.6826 C   0  0  0  0  0  0  0  0  0  0  0  0
   -4.3495   -0.6821   -7.0568 C   0  0  0  0  0  0  0  0  0  0  0  0
   -5.0554    2.0896   -5.7816 C   0  0  0  0  0  0  0  0  0  0  0  0
   -4.7978    2.5837   -7.0249 C   0  0  0  0  0  0  0  0  0  0  0  0
   -5.5661    3.7308   -7.3548 C   0  0  0  0  0  0  0  0  0  0  0  0
   -5.5194    4.4909   -8.5333 C   0  0  0  0  0  0  0  0  0  0  0  0
   -4.5331    4.2098   -9.5835 C   0  0  0  0  0  0  0  0  0  0  0  0
   -3.1793    4.0941   -9.2690 C   0  0  0  0  0  0  0  0  0  0  0  0
   -2.2456    3.8642  -10.2566 C   0  0  0  0  0  0  0  0  0  0  0  0
   -2.6235    3.7281  -11.5899 C   0  0  0  0  0  0  0  0  0  0  0  0
   -1.3540    3.4006  -12.7807 S   0  0  0  0  0  0  0  0  0  0  0  0
   -1.7676    4.5472  -14.1473 C   0  0  0  0  0  0  0  0  0  0  0  0
   -1.8152    5.9880  -13.6800 C   0  0  0  0  0  0  0  0  0  0  0  0
   -3.9800    3.8168  -11.8858 C   0  0  0  0  0  0  0  0  0  0  0  0
   -4.4206    3.6482  -13.1516 F   0  0  0  0  0  0  0  0  0  0  0  0
   -4.9236    4.0703  -10.9110 C   0  0  0  0  0  0  0  0  0  0  0  0
   -6.4255    5.5374   -8.6357 C   0  0  0  0  0  0  0  0  0  0  0  0
   -7.3414    5.8715   -7.6100 C   0  0  0  0  0  0  0  0  0  0  0  0
   -7.3627    5.1341   -6.4168 C   0  0  0  0  0  0  0  0  0  0  0  0
   -8.2950    5.4587   -5.3295 C   0  0  0  0  0  0  0  0  0  0  0  0
   -9.1222    4.4789   -4.7904 C   0  0  0  0  0  0  0  0  0  0  0  0
  -10.0215    4.7732   -3.7835 C   0  0  0  0  0  0  0  0  0  0  0  0
  -10.1205    6.0632   -3.2748 C   0  0  0  0  0  0  0  0  0  0  0  0
  -11.2255    6.5793   -2.0075 S   0  0  0  0  0  0  0  0  0  0  0  0
  -12.2167    5.0762   -1.6694 C   0  0  0  0  0  0  0  0  0  0  0  0
  -13.2819    5.4178   -0.6446 C   0  0  0  0  0  0  0  0  0  0  0  0
   -9.2711    7.0328   -3.8134 C   0  0  0  0  0  0  0  0  0  0  0  0
   -8.3762    6.7536   -4.8205 C   0  0  0  0  0  0  0  0  0  0  0  0
   -9.3312    8.2924   -3.3333 F   0  0  0  0  0  0  0  0  0  0  0  0
   -6.4733    4.0742   -6.3231 C   0  0  0  0  0  0  0  0  0  0  0  0
   -6.2824    3.0260   -4.9414 S   0  0  0  0  0  0  0  0  0  0  0  0
   -8.1653    6.9764   -7.9817 C   0  0  0  0  0  0  0  0  0  0  0  0
   -7.8670    7.4682   -9.2003 C   0  0  0  0  0  0  0  0  0  0  0  0
   -6.5774    6.6265   -9.9913 S   0  0  0  0  0  0  0  0  0  0  0  0
    9.2202   -4.4230   12.3261 H   0  0  0  0  0  0  0  0  0  0  0  0
   11.7118   -3.4211   11.6294 H   0  0  0  0  0  0  0  0  0  0  0  0
   13.6132   -2.0378   11.8360 H   0  0  0  0  0  0  0  0  0  0  0  0
   13.9993   -3.6138   11.0897 H   0  0  0  0  0  0  0  0  0  0  0  0
   15.0319   -2.1975   10.7692 H   0  0  0  0  0  0  0  0  0  0  0  0
   11.2408   -1.9827    5.8140 H   0  0  0  0  0  0  0  0  0  0  0  0
   12.4885   -0.7101    5.7931 H   0  0  0  0  0  0  0  0  0  0  0  0
   10.8679   -0.3557    6.4421 H   0  0  0  0  0  0  0  0  0  0  0  0
    9.5026   -1.9816    7.4008 H   0  0  0  0  0  0  0  0  0  0  0  0
    8.2229   -0.3947    8.5938 H   0  0  0  0  0  0  0  0  0  0  0  0
    8.4551    1.9091    9.0601 H   0  0  0  0  0  0  0  0  0  0  0  0
    9.7246    1.2799    7.9770 H   0  0  0  0  0  0  0  0  0  0  0  0
    9.2957    3.0086    7.9370 H   0  0  0  0  0  0  0  0  0  0  0  0
    5.4016    0.9330    3.4079 H   0  0  0  0  0  0  0  0  0  0  0  0
    5.3318    2.6914    3.6867 H   0  0  0  0  0  0  0  0  0  0  0  0
    4.2209    1.6086    4.5631 H   0  0  0  0  0  0  0  0  0  0  0  0
    4.7684   -0.5812    5.0401 H   0  0  0  0  0  0  0  0  0  0  0  0
    4.3988   -5.7353    7.1457 H   0  0  0  0  0  0  0  0  0  0  0  0
    4.1328   -9.1752    8.1335 H   0  0  0  0  0  0  0  0  0  0  0  0
    4.0606   -7.4656    8.6326 H   0  0  0  0  0  0  0  0  0  0  0  0
    5.0741   -7.9500    7.2456 H   0  0  0  0  0  0  0  0  0  0  0  0
   -0.0716   -7.8219    3.6534 H   0  0  0  0  0  0  0  0  0  0  0  0
   -0.6521   -9.0315    4.8237 H   0  0  0  0  0  0  0  0  0  0  0  0
   -1.0118   -7.3047    5.0796 H   0  0  0  0  0  0  0  0  0  0  0  0
    0.3943   -5.6163    4.2240 H   0  0  0  0  0  0  0  0  0  0  0  0
    0.5260   -4.7415    2.2799 H   0  0  0  0  0  0  0  0  0  0  0  0
   -3.0972   -4.9647   -0.4008 H   0  0  0  0  0  0  0  0  0  0  0  0
   -3.0892   -7.3466   -1.0075 H   0  0  0  0  0  0  0  0  0  0  0  0
   -0.0146  -11.1829   -0.5705 H   0  0  0  0  0  0  0  0  0  0  0  0
    1.1252   -9.8247   -0.5998 H   0  0  0  0  0  0  0  0  0  0  0  0
    0.5880  -10.5009    1.7609 H   0  0  0  0  0  0  0  0  0  0  0  0
    0.0145   -8.8645    1.4342 H   0  0  0  0  0  0  0  0  0  0  0  0
   -1.1299  -10.2099    1.4476 H   0  0  0  0  0  0  0  0  0  0  0  0
    1.1666   -5.0878   -0.0198 H   0  0  0  0  0  0  0  0  0  0  0  0
   -1.5539    0.6296    3.1651 H   0  0  0  0  0  0  0  0  0  0  0  0
   -1.4496    3.0401    3.6383 H   0  0  0  0  0  0  0  0  0  0  0  0
   -1.4109    7.1931    1.0044 H   0  0  0  0  0  0  0  0  0  0  0  0
   -0.7269    6.0279   -0.1436 H   0  0  0  0  0  0  0  0  0  0  0  0
   -3.4538    5.7686    1.2420 H   0  0  0  0  0  0  0  0  0  0  0  0
   -2.7937    4.6155    0.0781 H   0  0  0  0  0  0  0  0  0  0  0  0
   -3.2148    6.2481   -0.4437 H   0  0  0  0  0  0  0  0  0  0  0  0
   -0.1412    1.3884   -0.8063 H   0  0  0  0  0  0  0  0  0  0  0  0
   -2.4346    0.7074   -1.2570 H   0  0  0  0  0  0  0  0  0  0  0  0
   -2.6396   -3.1170   -4.5372 H   0  0  0  0  0  0  0  0  0  0  0  0
   -2.1903   -5.8458   -6.8547 H   0  0  0  0  0  0  0  0  0  0  0  0
   -1.4061   -4.6055   -5.8438 H   0  0  0  0  0  0  0  0  0  0  0  0
   -3.0056   -5.2502   -5.3861 H   0  0  0  0  0  0  0  0  0  0  0  0
   -4.7560   -2.2340  -10.5886 H   0  0  0  0  0  0  0  0  0  0  0  0
   -5.7569   -1.3571   -9.4036 H   0  0  0  0  0  0  0  0  0  0  0  0
   -4.1534   -0.7209   -9.8665 H   0  0  0  0  0  0  0  0  0  0  0  0
   -4.8480   -0.0028   -7.7272 H   0  0  0  0  0  0  0  0  0  0  0  0
   -4.0568    2.1623   -7.6791 H   0  0  0  0  0  0  0  0  0  0  0  0
   -2.8574    4.2209   -8.2467 H   0  0  0  0  0  0  0  0  0  0  0  0
   -1.1973    3.7912  -10.0121 H   0  0  0  0  0  0  0  0  0  0  0  0
   -2.7056    4.2338  -14.6001 H   0  0  0  0  0  0  0  0  0  0  0  0
   -0.9583    4.3903  -14.8603 H   0  0  0  0  0  0  0  0  0  0  0  0
   -0.8774    6.2659  -13.2032 H   0  0  0  0  0  0  0  0  0  0  0  0
   -1.9826    6.6440  -14.5317 H   0  0  0  0  0  0  0  0  0  0  0  0
   -2.6235    6.1382  -12.9662 H   0  0  0  0  0  0  0  0  0  0  0  0
   -5.9622    4.1280  -11.1965 H   0  0  0  0  0  0  0  0  0  0  0  0
   -9.0788    3.4724   -5.1773 H   0  0  0  0  0  0  0  0  0  0  0  0
  -10.6477    3.9851   -3.3995 H   0  0  0  0  0  0  0  0  0  0  0  0
  -11.5450    4.3056   -1.2905 H   0  0  0  0  0  0  0  0  0  0  0  0
  -12.6690    4.7553   -2.6079 H   0  0  0  0  0  0  0  0  0  0  0  0
  -13.9327    6.2040   -1.0201 H   0  0  0  0  0  0  0  0  0  0  0  0
  -12.8246    5.7621    0.2799 H   0  0  0  0  0  0  0  0  0  0  0  0
  -13.8843    4.5376   -0.4303 H   0  0  0  0  0  0  0  0  0  0  0  0
   -7.7346    7.5389   -5.1889 H   0  0  0  0  0  0  0  0  0  0  0  0
   -8.9490    7.3653   -7.3575 H   0  0  0  0  0  0  0  0  0  0  0  0
   -8.3301    8.2887   -9.7127 H   0  0  0  0  0  0  0  0  0  0  0  0
  1  2  1  0  0  0  0
  2  3  1  0  0  0  0
  3  4  2  0  0  0  0
  4  5  1  0  0  0  0
  5  6  1  0  0  0  0
  6  7  2  0  0  0  0
  7  8  1  0  0  0  0
  8  9  1  0  0  0  0
  7 10  1  0  0  0  0
 10 11  1  0  0  0  0
 11 12  1  0  0  0  0
 10 13  2  0  0  0  0
  3 14  1  0  0  0  0
 14 15  1  0  0  0  0
 15 16  1  0  0  0  0
 16 17  2  0  0  0  0
 17 18  1  0  0  0  0
 18 19  1  0  0  0  0
 19 20  2  0  0  0  0
 20 21  1  0  0  0  0
 21 22  1  0  0  0  0
 20 23  1  0  0  0  0
 23 24  1  0  0  0  0
 24 25  1  0  0  0  0
 23 26  2  0  0  0  0
 16 27  1  0  0  0  0
 27 28  1  0  0  0  0
 28 29  1  0  0  0  0
 29 30  2  0  0  0  0
 30 31  1  0  0  0  0
 31 32  1  0  0  0  0
 32 33  2  0  0  0  0
 33 34  1  0  0  0  0
 34 35  1  0  0  0  0
 33 36  1  0  0  0  0
 36 37  1  0  0  0  0
 37 38  1  0  0  0  0
 36 39  2  0  0  0  0
 29 40  1  0  0  0  0
 40 41  2  0  0  0  0
 41 42  1  0  0  0  0
 42 43  2  0  0  0  0
 43 44  1  0  0  0  0
 44 45  2  0  0  0  0
 45 46  1  0  0  0  0
 46 47  2  0  0  0  0
 47 48  1  0  0  0  0
 48 49  1  0  0  0  0
 49 50  1  0  0  0  0
 47 51  1  0  0  0  0
 51 52  1  0  0  0  0
 51 53  2  0  0  0  0
 43 54  1  0  0  0  0
 54 55  2  0  0  0  0
 55 56  1  0  0  0  0
 56 57  1  0  0  0  0
 57 58  2  0  0  0  0
 58 59  1  0  0  0  0
 59 60  2  0  0  0  0
 60 61  1  0  0  0  0
 61 62  1  0  0  0  0
 62 63  1  0  0  0  0
 60 64  1  0  0  0  0
 64 65  2  0  0  0  0
 64 66  1  0  0  0  0
 56 67  2  0  0  0  0
 67 68  1  0  0  0  0
 55 69  1  0  0  0  0
 69 70  2  0  0  0  0
 70 71  1  0  0  0  0
 70 72  1  0  0  0  0
 72 73  1  0  0  0  0
 73 74  1  0  0  0  0
 74 75  2  0  0  0  0
 75 76  1  0  0  0  0
 76 77  1  0  0  0  0
 77 78  2  0  0  0  0
 78 79  1  0  0  0  0
 79 80  1  0  0  0  0
 78 81  1  0  0  0  0
 81 82  1  0  0  0  0
 82 83  1  0  0  0  0
 81 84  2  0  0  0  0
 74 85  1  0  0  0  0
 85 86  2  0  0  0  0
 86 87  1  0  0  0  0
 87 88  2  0  0  0  0
 88 89  1  0  0  0  0
 89 90  2  0  0  0  0
 90 91  1  0  0  0  0
 91 92  2  0  0  0  0
 92 93  1  0  0  0  0
 93 94  1  0  0  0  0
 94 95  1  0  0  0  0
 92 96  1  0  0  0  0
 96 97  1  0  0  0  0
 96 98  2  0  0  0  0
 88 99  1  0  0  0  0
 99100  2  0  0  0  0
100101  1  0  0  0  0
101102  1  0  0  0  0
102103  2  0  0  0  0
103104  1  0  0  0  0
104105  2  0  0  0  0
105106  1  0  0  0  0
106107  1  0  0  0  0
107108  1  0  0  0  0
105109  1  0  0  0  0
109110  2  0  0  0  0
109111  1  0  0  0  0
101112  2  0  0  0  0
112113  1  0  0  0  0
100114  1  0  0  0  0
114115  2  0  0  0  0
115116  1  0  0  0  0
  5  1  2  0  0  0  0
 18 14  2  0  0  0  0
 31 27  2  0  0  0  0
 68 40  1  0  0  0  0
 76 72  2  0  0  0  0
113 85  1  0  0  0  0
 13  4  1  0  0  0  0
 26 17  1  0  0  0  0
 39 30  1  0  0  0  0
 67 42  1  0  0  0  0
 84 75  1  0  0  0  0
112 87  1  0  0  0  0
 53 44  1  0  0  0  0
 71 54  1  0  0  0  0
 98 89  1  0  0  0  0
116 99  1  0  0  0  0
 65 57  1  0  0  0  0
110102  1  0  0  0  0
  1117  1  0  0  0  0
  6118  1  0  0  0  0
  9119  1  0  0  0  0
  9120  1  0  0  0  0
  9121  1  0  0  0  0
 12122  1  0  0  0  0
 12123  1  0  0  0  0
 12124  1  0  0  0  0
 13125  1  0  0  0  0
 19126  1  0  0  0  0
 22127  1  0  0  0  0
 22128  1  0  0  0  0
 22129  1  0  0  0  0
 25130  1  0  0  0  0
 25131  1  0  0  0  0
 25132  1  0  0  0  0
 26133  1  0  0  0  0
 32134  1  0  0  0  0
 35135  1  0  0  0  0
 35136  1  0  0  0  0
 35137  1  0  0  0  0
 38138  1  0  0  0  0
 38139  1  0  0  0  0
 38140  1  0  0  0  0
 39141  1  0  0  0  0
 41142  1  0  0  0  0
 45143  1  0  0  0  0
 46144  1  0  0  0  0
 49145  1  0  0  0  0
 49146  1  0  0  0  0
 50147  1  0  0  0  0
 50148  1  0  0  0  0
 50149  1  0  0  0  0
 53150  1  0  0  0  0
 58151  1  0  0  0  0
 59152  1  0  0  0  0
 62153  1  0  0  0  0
 62154  1  0  0  0  0
 63155  1  0  0  0  0
 63156  1  0  0  0  0
 63157  1  0  0  0  0
 65158  1  0  0  0  0
 69159  1  0  0  0  0
 77160  1  0  0  0  0
 80161  1  0  0  0  0
 80162  1  0  0  0  0
 80163  1  0  0  0  0
 83164  1  0  0  0  0
 83165  1  0  0  0  0
 83166  1  0  0  0  0
 84167  1  0  0  0  0
 86168  1  0  0  0  0
 90169  1  0  0  0  0
 91170  1  0  0  0  0
 94171  1  0  0  0  0
 94172  1  0  0  0  0
 95173  1  0  0  0  0
 95174  1  0  0  0  0
 95175  1  0  0  0  0
 98176  1  0  0  0  0
103177  1  0  0  0  0
104178  1  0  0  0  0
107179  1  0  0  0  0
107180  1  0  0  0  0
108181  1  0  0  0  0
108182  1  0  0  0  0
108183  1  0  0  0  0
110184  1  0  0  0  0
114185  1  0  0  0  0
115186  1  0  0  0  0
M  END
