
  xtb     03032217093D
 energy: -236.123478850678 gnorm: 0.000383263533 xtb: 6.4.1 (unknown)
124135  0     0  0            999 V2000
    7.1141   -7.0994   -2.9709 C   0  0  0  0  0  0  0  0  0  0  0  0
    5.4133   -7.0210   -3.1491 S   0  0  0  0  0  0  0  0  0  0  0  0
    5.3291   -5.5307   -2.2360 C   0  0  0  0  0  0  0  0  0  0  0  0
    6.5957   -5.1500   -1.8287 C   0  0  0  0  0  0  0  0  0  0  0  0
    7.6039   -6.0546   -2.2467 C   0  0  0  0  0  0  0  0  0  0  0  0
    9.0625   -5.8497   -1.9284 C   0  0  0  0  0  0  0  0  0  0  0  0
    9.7086   -7.1526   -1.4745 C   0  0  0  0  0  0  0  0  0  0  0  0
    9.0348   -7.7466   -0.4801 F   0  0  0  0  0  0  0  0  0  0  0  0
   10.9592   -6.9578   -1.0184 F   0  0  0  0  0  0  0  0  0  0  0  0
    9.8217   -8.0611   -2.4571 F   0  0  0  0  0  0  0  0  0  0  0  0
    9.2449   -4.7930   -0.8333 C   0  0  0  0  0  0  0  0  0  0  0  0
    8.4000   -3.5687   -1.1579 C   0  0  0  0  0  0  0  0  0  0  0  0
    6.9182   -3.9156   -1.0490 C   0  0  0  0  0  0  0  0  0  0  0  0
    4.0772   -4.9160   -1.9514 C   0  0  0  0  0  0  0  0  0  0  0  0
    3.9475   -3.7689   -0.6521 S   0  0  0  0  0  0  0  0  0  0  0  0
    2.2322   -3.5669   -0.8375 C   0  0  0  0  0  0  0  0  0  0  0  0
    1.7756   -4.3845   -1.8820 C   0  0  0  0  0  0  0  0  0  0  0  0
    2.8152   -5.1302   -2.5167 C   0  0  0  0  0  0  0  0  0  0  0  0
    2.4978   -5.9479   -3.6239 C   0  0  0  0  0  0  0  0  0  0  0  0
    1.2054   -6.0709   -4.0488 C   0  0  0  0  0  0  0  0  0  0  0  0
    0.7953   -6.8194   -5.1010 O   0  0  0  0  0  0  0  0  0  0  0  0
    1.7631   -7.5375   -5.8260 C   0  0  0  0  0  0  0  0  0  0  0  0
    0.1486   -5.3830   -3.3567 C   0  0  0  0  0  0  0  0  0  0  0  0
   -1.0931   -5.6261   -3.8375 O   0  0  0  0  0  0  0  0  0  0  0  0
   -2.1849   -4.9841   -3.2224 C   0  0  0  0  0  0  0  0  0  0  0  0
    0.4420   -4.5570   -2.3081 C   0  0  0  0  0  0  0  0  0  0  0  0
    1.5289   -2.6176   -0.0575 C   0  0  0  0  0  0  0  0  0  0  0  0
   -0.0121   -1.9999   -0.5802 S   0  0  0  0  0  0  0  0  0  0  0  0
   -0.1447   -0.9169    0.7599 C   0  0  0  0  0  0  0  0  0  0  0  0
    0.9841   -0.9934    1.5672 C   0  0  0  0  0  0  0  0  0  0  0  0
    1.9239   -1.9713    1.1244 C   0  0  0  0  0  0  0  0  0  0  0  0
    3.0850   -2.1913    1.8961 C   0  0  0  0  0  0  0  0  0  0  0  0
    3.3370   -1.4315    3.0039 C   0  0  0  0  0  0  0  0  0  0  0  0
    4.4190   -1.5627    3.8124 O   0  0  0  0  0  0  0  0  0  0  0  0
    5.3774   -2.5383    3.4871 C   0  0  0  0  0  0  0  0  0  0  0  0
    2.4362   -0.3756    3.3860 C   0  0  0  0  0  0  0  0  0  0  0  0
    2.8379    0.3452    4.4631 O   0  0  0  0  0  0  0  0  0  0  0  0
    2.0123    1.3913    4.9076 C   0  0  0  0  0  0  0  0  0  0  0  0
    1.2844   -0.1739    2.6819 C   0  0  0  0  0  0  0  0  0  0  0  0
   -1.3133   -0.1096    0.9287 C   0  0  0  0  0  0  0  0  0  0  0  0
   -1.9838    0.7646   -0.4181 S   0  0  0  0  0  0  0  0  0  0  0  0
   -3.2515    1.4261    0.5759 C   0  0  0  0  0  0  0  0  0  0  0  0
   -3.1409    0.9945    1.8715 C   0  0  0  0  0  0  0  0  0  0  0  0
   -2.0544    0.1107    2.0668 C   0  0  0  0  0  0  0  0  0  0  0  0
   -1.9000   -0.6261    3.3674 C   0  0  0  0  0  0  0  0  0  0  0  0
   -2.6943   -1.9260    3.2432 C   0  0  0  0  0  0  0  0  0  0  0  0
   -4.0073   -1.7263    3.0558 F   0  0  0  0  0  0  0  0  0  0  0  0
   -2.2722   -2.6884    2.2261 F   0  0  0  0  0  0  0  0  0  0  0  0
   -2.5880   -2.6858    4.3493 F   0  0  0  0  0  0  0  0  0  0  0  0
   -2.4085    0.1719    4.5906 C   0  0  0  0  0  0  0  0  0  0  0  0
   -2.9312    1.5602    4.2259 C   0  0  0  0  0  0  0  0  0  0  0  0
   -3.9147    1.4679    3.0582 C   0  0  0  0  0  0  0  0  0  0  0  0
   -4.2185    2.3285    0.0080 C   0  0  0  0  0  0  0  0  0  0  0  0
   -3.6499    3.7081   -0.8823 S   0  0  0  0  0  0  0  0  0  0  0  0
   -5.2727    4.2978   -1.1073 C   0  0  0  0  0  0  0  0  0  0  0  0
   -6.1868    3.4416   -0.5479 C   0  0  0  0  0  0  0  0  0  0  0  0
   -5.5909    2.3141    0.0700 C   0  0  0  0  0  0  0  0  0  0  0  0
   -6.4114    1.1888    0.6445 C   0  0  0  0  0  0  0  0  0  0  0  0
   -6.2482   -0.0585   -0.2232 C   0  0  0  0  0  0  0  0  0  0  0  0
   -6.5414    0.1761   -1.5124 F   0  0  0  0  0  0  0  0  0  0  0  0
   -5.0138   -0.5758   -0.2069 F   0  0  0  0  0  0  0  0  0  0  0  0
   -7.0669   -1.0475    0.1744 F   0  0  0  0  0  0  0  0  0  0  0  0
   -7.9180    1.5092    0.7120 C   0  0  0  0  0  0  0  0  0  0  0  0
   -8.1826    3.0054    0.8043 C   0  0  0  0  0  0  0  0  0  0  0  0
   -7.6570    3.6853   -0.4565 C   0  0  0  0  0  0  0  0  0  0  0  0
   -5.5328    5.5003   -1.8515 C   0  0  0  0  0  0  0  0  0  0  0  0
   -6.8822    5.5488   -2.9507 S   0  0  0  0  0  0  0  0  0  0  0  0
   -6.4778    7.1413   -3.4418 C   0  0  0  0  0  0  0  0  0  0  0  0
   -5.3741    7.6211   -2.8082 C   0  0  0  0  0  0  0  0  0  0  0  0
   -4.8310    6.6826   -1.8923 C   0  0  0  0  0  0  0  0  0  0  0  0
   -3.6775    7.0391   -0.9950 C   0  0  0  0  0  0  0  0  0  0  0  0
   -4.2152    7.2969    0.4153 C   0  0  0  0  0  0  0  0  0  0  0  0
   -3.2946    7.8484    1.2238 F   0  0  0  0  0  0  0  0  0  0  0  0
   -5.2817    8.1087    0.4516 F   0  0  0  0  0  0  0  0  0  0  0  0
   -4.6025    6.1631    1.0262 F   0  0  0  0  0  0  0  0  0  0  0  0
   -2.9122    8.2547   -1.5321 C   0  0  0  0  0  0  0  0  0  0  0  0
   -3.8504    9.3908   -1.9298 C   0  0  0  0  0  0  0  0  0  0  0  0
   -4.7464    8.9512   -3.0843 C   0  0  0  0  0  0  0  0  0  0  0  0
    7.6439   -7.9152   -3.4189 H   0  0  0  0  0  0  0  0  0  0  0  0
    9.5980   -5.5412   -2.8358 H   0  0  0  0  0  0  0  0  0  0  0  0
    8.9275   -5.2104    0.1254 H   0  0  0  0  0  0  0  0  0  0  0  0
   10.3000   -4.5261   -0.7568 H   0  0  0  0  0  0  0  0  0  0  0  0
    8.6268   -3.2277   -2.1701 H   0  0  0  0  0  0  0  0  0  0  0  0
    8.6370   -2.7592   -0.4669 H   0  0  0  0  0  0  0  0  0  0  0  0
    6.3128   -3.0795   -1.4067 H   0  0  0  0  0  0  0  0  0  0  0  0
    6.6591   -4.0770    0.0030 H   0  0  0  0  0  0  0  0  0  0  0  0
    3.2908   -6.4608   -4.1375 H   0  0  0  0  0  0  0  0  0  0  0  0
    1.2148   -8.0649   -6.6047 H   0  0  0  0  0  0  0  0  0  0  0  0
    2.2846   -8.2621   -5.1923 H   0  0  0  0  0  0  0  0  0  0  0  0
    2.4969   -6.8686   -6.2877 H   0  0  0  0  0  0  0  0  0  0  0  0
   -2.2817   -5.2743   -2.1715 H   0  0  0  0  0  0  0  0  0  0  0  0
   -3.0652   -5.3141   -3.7711 H   0  0  0  0  0  0  0  0  0  0  0  0
   -2.1005   -3.8949   -3.2892 H   0  0  0  0  0  0  0  0  0  0  0  0
   -0.3452   -4.0477   -1.7822 H   0  0  0  0  0  0  0  0  0  0  0  0
    3.7629   -2.9746    1.6091 H   0  0  0  0  0  0  0  0  0  0  0  0
    6.1537   -2.4513    4.2454 H   0  0  0  0  0  0  0  0  0  0  0  0
    5.8113   -2.3587    2.4975 H   0  0  0  0  0  0  0  0  0  0  0  0
    4.9519   -3.5468    3.5172 H   0  0  0  0  0  0  0  0  0  0  0  0
    1.8870    2.1610    4.1388 H   0  0  0  0  0  0  0  0  0  0  0  0
    1.0266    1.0236    5.2133 H   0  0  0  0  0  0  0  0  0  0  0  0
    2.5192    1.8211    5.7697 H   0  0  0  0  0  0  0  0  0  0  0  0
    0.6086    0.6301    2.9233 H   0  0  0  0  0  0  0  0  0  0  0  0
   -0.8634   -0.9443    3.5082 H   0  0  0  0  0  0  0  0  0  0  0  0
   -3.2149   -0.3879    5.0694 H   0  0  0  0  0  0  0  0  0  0  0  0
   -1.6038    0.2650    5.3208 H   0  0  0  0  0  0  0  0  0  0  0  0
   -3.4184    1.9970    5.0981 H   0  0  0  0  0  0  0  0  0  0  0  0
   -2.1012    2.2102    3.9403 H   0  0  0  0  0  0  0  0  0  0  0  0
   -4.3694    2.4384    2.8511 H   0  0  0  0  0  0  0  0  0  0  0  0
   -4.7062    0.7590    3.3185 H   0  0  0  0  0  0  0  0  0  0  0  0
   -6.0337    0.9180    1.6338 H   0  0  0  0  0  0  0  0  0  0  0  0
   -8.3548    0.9873    1.5640 H   0  0  0  0  0  0  0  0  0  0  0  0
   -8.4052    1.1330   -0.1910 H   0  0  0  0  0  0  0  0  0  0  0  0
   -9.2544    3.1786    0.9036 H   0  0  0  0  0  0  0  0  0  0  0  0
   -7.6840    3.4237    1.6807 H   0  0  0  0  0  0  0  0  0  0  0  0
   -8.1619    3.2749   -1.3356 H   0  0  0  0  0  0  0  0  0  0  0  0
   -7.8550    4.7580   -0.4287 H   0  0  0  0  0  0  0  0  0  0  0  0
   -7.0821    7.6355   -4.1758 H   0  0  0  0  0  0  0  0  0  0  0  0
   -2.9893    6.1939   -0.8916 H   0  0  0  0  0  0  0  0  0  0  0  0
   -2.2006    8.5962   -0.7787 H   0  0  0  0  0  0  0  0  0  0  0  0
   -2.3467    7.9326   -2.4088 H   0  0  0  0  0  0  0  0  0  0  0  0
   -3.2608   10.2566   -2.2347 H   0  0  0  0  0  0  0  0  0  0  0  0
   -4.4630    9.6902   -1.0795 H   0  0  0  0  0  0  0  0  0  0  0  0
   -4.1442    8.8628   -3.9949 H   0  0  0  0  0  0  0  0  0  0  0  0
   -5.5208    9.6958   -3.2749 H   0  0  0  0  0  0  0  0  0  0  0  0
  1  2  1  0  0  0  0
  2  3  1  0  0  0  0
  3  4  2  0  0  0  0
  4  5  1  0  0  0  0
  5  6  1  0  0  0  0
  6  7  1  0  0  0  0
  7  8  1  0  0  0  0
  7  9  1  0  0  0  0
  7 10  1  0  0  0  0
  6 11  1  0  0  0  0
 11 12  1  0  0  0  0
 12 13  1  0  0  0  0
  3 14  1  0  0  0  0
 14 15  1  0  0  0  0
 15 16  1  0  0  0  0
 16 17  2  0  0  0  0
 17 18  1  0  0  0  0
 18 19  1  0  0  0  0
 19 20  2  0  0  0  0
 20 21  1  0  0  0  0
 21 22  1  0  0  0  0
 20 23  1  0  0  0  0
 23 24  1  0  0  0  0
 24 25  1  0  0  0  0
 23 26  2  0  0  0  0
 16 27  1  0  0  0  0
 27 28  1  0  0  0  0
 28 29  1  0  0  0  0
 29 30  2  0  0  0  0
 30 31  1  0  0  0  0
 31 32  1  0  0  0  0
 32 33  2  0  0  0  0
 33 34  1  0  0  0  0
 34 35  1  0  0  0  0
 33 36  1  0  0  0  0
 36 37  1  0  0  0  0
 37 38  1  0  0  0  0
 36 39  2  0  0  0  0
 29 40  1  0  0  0  0
 40 41  1  0  0  0  0
 41 42  1  0  0  0  0
 42 43  2  0  0  0  0
 43 44  1  0  0  0  0
 44 45  1  0  0  0  0
 45 46  1  0  0  0  0
 46 47  1  0  0  0  0
 46 48  1  0  0  0  0
 46 49  1  0  0  0  0
 45 50  1  0  0  0  0
 50 51  1  0  0  0  0
 51 52  1  0  0  0  0
 42 53  1  0  0  0  0
 53 54  1  0  0  0  0
 54 55  1  0  0  0  0
 55 56  2  0  0  0  0
 56 57  1  0  0  0  0
 57 58  1  0  0  0  0
 58 59  1  0  0  0  0
 59 60  1  0  0  0  0
 59 61  1  0  0  0  0
 59 62  1  0  0  0  0
 58 63  1  0  0  0  0
 63 64  1  0  0  0  0
 64 65  1  0  0  0  0
 55 66  1  0  0  0  0
 66 67  1  0  0  0  0
 67 68  1  0  0  0  0
 68 69  2  0  0  0  0
 69 70  1  0  0  0  0
 70 71  1  0  0  0  0
 71 72  1  0  0  0  0
 72 73  1  0  0  0  0
 72 74  1  0  0  0  0
 72 75  1  0  0  0  0
 71 76  1  0  0  0  0
 76 77  1  0  0  0  0
 77 78  1  0  0  0  0
  5  1  2  0  0  0  0
 18 14  2  0  0  0  0
 31 27  2  0  0  0  0
 44 40  2  0  0  0  0
 57 53  2  0  0  0  0
 70 66  2  0  0  0  0
 13  4  1  0  0  0  0
 26 17  1  0  0  0  0
 39 30  1  0  0  0  0
 52 43  1  0  0  0  0
 65 56  1  0  0  0  0
 78 69  1  0  0  0  0
  1 79  1  0  0  0  0
  6 80  1  0  0  0  0
 11 81  1  0  0  0  0
 11 82  1  0  0  0  0
 12 83  1  0  0  0  0
 12 84  1  0  0  0  0
 13 85  1  0  0  0  0
 13 86  1  0  0  0  0
 19 87  1  0  0  0  0
 22 88  1  0  0  0  0
 22 89  1  0  0  0  0
 22 90  1  0  0  0  0
 25 91  1  0  0  0  0
 25 92  1  0  0  0  0
 25 93  1  0  0  0  0
 26 94  1  0  0  0  0
 32 95  1  0  0  0  0
 35 96  1  0  0  0  0
 35 97  1  0  0  0  0
 35 98  1  0  0  0  0
 38 99  1  0  0  0  0
 38100  1  0  0  0  0
 38101  1  0  0  0  0
 39102  1  0  0  0  0
 45103  1  0  0  0  0
 50104  1  0  0  0  0
 50105  1  0  0  0  0
 51106  1  0  0  0  0
 51107  1  0  0  0  0
 52108  1  0  0  0  0
 52109  1  0  0  0  0
 58110  1  0  0  0  0
 63111  1  0  0  0  0
 63112  1  0  0  0  0
 64113  1  0  0  0  0
 64114  1  0  0  0  0
 65115  1  0  0  0  0
 65116  1  0  0  0  0
 68117  1  0  0  0  0
 71118  1  0  0  0  0
 76119  1  0  0  0  0
 76120  1  0  0  0  0
 77121  1  0  0  0  0
 77122  1  0  0  0  0
 78123  1  0  0  0  0
 78124  1  0  0  0  0
M  END
