
  xtb     03042222383D
 energy: -160.955579492804 gnorm: 0.000273289171 xtb: 6.4.1 (unknown)
 96103  0     0  0            999 V2000
   -1.4001    4.7546    5.6036 C   0  0  0  0  0  0  0  0  0  0  0  0
    0.2523    4.3311    5.8525 S   0  0  0  0  0  0  0  0  0  0  0  0
    0.7438    5.9756    5.5811 C   0  0  0  0  0  0  0  0  0  0  0  0
   -0.3387    6.7853    5.3624 C   0  0  0  0  0  0  0  0  0  0  0  0
   -1.5580    6.0791    5.3630 C   0  0  0  0  0  0  0  0  0  0  0  0
    2.0462    6.4034    5.6953 N   0  0  0  0  0  0  0  0  0  0  0  0
    3.2099    5.6640    5.6677 C   0  0  0  0  0  0  0  0  0  0  0  0
    3.4721    4.4950    5.0507 C   0  0  0  0  0  0  0  0  0  0  0  0
    2.6549    3.7350    4.1539 C   0  0  0  0  0  0  0  0  0  0  0  0
    2.7349    2.0003    4.2172 S   0  0  0  0  0  0  0  0  0  0  0  0
    1.5221    1.8056    2.9883 C   0  0  0  0  0  0  0  0  0  0  0  0
    1.0674    3.0516    2.5562 C   0  0  0  0  0  0  0  0  0  0  0  0
    1.7470    4.1410    3.1803 C   0  0  0  0  0  0  0  0  0  0  0  0
    1.4745    5.4625    2.7515 C   0  0  0  0  0  0  0  0  0  0  0  0
    0.4864    5.6936    1.8401 C   0  0  0  0  0  0  0  0  0  0  0  0
    0.1390    6.9127    1.3440 O   0  0  0  0  0  0  0  0  0  0  0  0
    0.8506    8.0352    1.7946 C   0  0  0  0  0  0  0  0  0  0  0  0
   -0.3060    4.6029    1.3336 C   0  0  0  0  0  0  0  0  0  0  0  0
   -1.3183    4.9805    0.5047 O   0  0  0  0  0  0  0  0  0  0  0  0
   -2.1725    3.9815    0.0091 C   0  0  0  0  0  0  0  0  0  0  0  0
   -0.0076    3.3170    1.6770 C   0  0  0  0  0  0  0  0  0  0  0  0
    1.1149    0.5109    2.5720 C   0  0  0  0  0  0  0  0  0  0  0  0
    0.9948   -0.7837    3.7262 S   0  0  0  0  0  0  0  0  0  0  0  0
    0.4132   -1.9133    2.5369 C   0  0  0  0  0  0  0  0  0  0  0  0
    0.3331   -1.3013    1.2821 C   0  0  0  0  0  0  0  0  0  0  0  0
    0.7605    0.0611    1.2999 C   0  0  0  0  0  0  0  0  0  0  0  0
    0.8704    0.7753    0.0833 C   0  0  0  0  0  0  0  0  0  0  0  0
    0.4725    0.1997   -1.0877 C   0  0  0  0  0  0  0  0  0  0  0  0
    0.5299    0.7888   -2.3147 O   0  0  0  0  0  0  0  0  0  0  0  0
    1.0742    2.0805   -2.4034 C   0  0  0  0  0  0  0  0  0  0  0  0
   -0.0595   -1.1381   -1.0940 C   0  0  0  0  0  0  0  0  0  0  0  0
   -0.4709   -1.5748   -2.3104 O   0  0  0  0  0  0  0  0  0  0  0  0
   -0.9958   -2.8766   -2.4117 C   0  0  0  0  0  0  0  0  0  0  0  0
   -0.1001   -1.8660    0.0613 C   0  0  0  0  0  0  0  0  0  0  0  0
    0.1321   -3.2410    2.9423 C   0  0  0  0  0  0  0  0  0  0  0  0
   -0.3572   -4.4832    1.8111 S   0  0  0  0  0  0  0  0  0  0  0  0
   -0.4322   -5.6862    3.0628 C   0  0  0  0  0  0  0  0  0  0  0  0
   -0.1007   -5.1364    4.2795 C   0  0  0  0  0  0  0  0  0  0  0  0
    0.2149   -3.7750    4.2087 C   0  0  0  0  0  0  0  0  0  0  0  0
   -0.7968   -6.9918    2.8662 N   0  0  0  0  0  0  0  0  0  0  0  0
   -1.1084   -7.6674    1.7084 C   0  0  0  0  0  0  0  0  0  0  0  0
   -1.0696   -7.1657    0.4609 C   0  0  0  0  0  0  0  0  0  0  0  0
   -1.4039   -7.8478   -0.7454 C   0  0  0  0  0  0  0  0  0  0  0  0
   -1.2911   -6.9087   -2.2211 S   0  0  0  0  0  0  0  0  0  0  0  0
   -1.8043   -8.2668   -3.1758 C   0  0  0  0  0  0  0  0  0  0  0  0
   -2.0403   -9.3660   -2.3910 C   0  0  0  0  0  0  0  0  0  0  0  0
   -1.8146   -9.1250   -1.0236 C   0  0  0  0  0  0  0  0  0  0  0  0
   -1.9270   -8.1576   -4.5333 N   0  0  0  0  0  0  0  0  0  0  0  0
   -1.7004   -7.0022   -5.2313 C   0  0  0  0  0  0  0  0  0  0  0  0
   -1.8276   -6.8535   -6.5611 C   0  0  0  0  0  0  0  0  0  0  0  0
   -1.5811   -5.6150   -7.2270 C   0  0  0  0  0  0  0  0  0  0  0  0
   -1.0641   -4.1964   -6.3341 S   0  0  0  0  0  0  0  0  0  0  0  0
   -1.0163   -3.2401   -7.7847 C   0  0  0  0  0  0  0  0  0  0  0  0
   -1.3771   -3.9870   -8.8766 C   0  0  0  0  0  0  0  0  0  0  0  0
   -1.6915   -5.3199   -8.5588 C   0  0  0  0  0  0  0  0  0  0  0  0
   -0.7298   -1.9006   -7.8085 N   0  0  0  0  0  0  0  0  0  0  0  0
   -0.3136   -1.0649   -6.7864 C   0  0  0  0  0  0  0  0  0  0  0  0
    0.1605   -1.4112   -5.5964 C   0  0  0  0  0  0  0  0  0  0  0  0
   -2.1432    3.9846    5.6455 H   0  0  0  0  0  0  0  0  0  0  0  0
   -0.2609    7.8455    5.1956 H   0  0  0  0  0  0  0  0  0  0  0  0
   -2.5108    6.5426    5.1802 H   0  0  0  0  0  0  0  0  0  0  0  0
    2.1446    7.3669    5.9810 H   0  0  0  0  0  0  0  0  0  0  0  0
    4.0065    6.1243    6.2391 H   0  0  0  0  0  0  0  0  0  0  0  0
    4.4201    4.0361    5.2993 H   0  0  0  0  0  0  0  0  0  0  0  0
    2.0734    6.2643    3.1479 H   0  0  0  0  0  0  0  0  0  0  0  0
    0.7482    8.1665    2.8767 H   0  0  0  0  0  0  0  0  0  0  0  0
    1.9140    7.9677    1.5394 H   0  0  0  0  0  0  0  0  0  0  0  0
    0.4102    8.8895    1.2826 H   0  0  0  0  0  0  0  0  0  0  0  0
   -2.6786    3.4469    0.8196 H   0  0  0  0  0  0  0  0  0  0  0  0
   -1.6356    3.2573   -0.6139 H   0  0  0  0  0  0  0  0  0  0  0  0
   -2.9112    4.5005   -0.5995 H   0  0  0  0  0  0  0  0  0  0  0  0
   -0.5869    2.4866    1.3103 H   0  0  0  0  0  0  0  0  0  0  0  0
    1.2942    1.7651    0.1094 H   0  0  0  0  0  0  0  0  0  0  0  0
    1.0218    2.3515   -3.4568 H   0  0  0  0  0  0  0  0  0  0  0  0
    0.5015    2.8060   -1.8149 H   0  0  0  0  0  0  0  0  0  0  0  0
    2.1184    2.1010   -2.0741 H   0  0  0  0  0  0  0  0  0  0  0  0
   -1.2859   -2.9958   -3.4541 H   0  0  0  0  0  0  0  0  0  0  0  0
   -1.8745   -3.0073   -1.7722 H   0  0  0  0  0  0  0  0  0  0  0  0
   -0.2491   -3.6342   -2.1533 H   0  0  0  0  0  0  0  0  0  0  0  0
   -0.4655   -2.8771    0.0509 H   0  0  0  0  0  0  0  0  0  0  0  0
   -0.0843   -5.7039    5.1936 H   0  0  0  0  0  0  0  0  0  0  0  0
    0.5012   -3.1857    5.0616 H   0  0  0  0  0  0  0  0  0  0  0  0
   -0.8329   -7.5324    3.7181 H   0  0  0  0  0  0  0  0  0  0  0  0
   -1.4051   -8.6913    1.8832 H   0  0  0  0  0  0  0  0  0  0  0  0
   -0.7587   -6.1465    0.3042 H   0  0  0  0  0  0  0  0  0  0  0  0
   -2.3655  -10.3125   -2.7855 H   0  0  0  0  0  0  0  0  0  0  0  0
   -1.9516   -9.8764   -0.2669 H   0  0  0  0  0  0  0  0  0  0  0  0
   -2.2197   -8.9796   -5.0418 H   0  0  0  0  0  0  0  0  0  0  0  0
   -1.3961   -6.1653   -4.6183 H   0  0  0  0  0  0  0  0  0  0  0  0
   -2.1330   -7.6820   -7.1861 H   0  0  0  0  0  0  0  0  0  0  0  0
   -1.4149   -3.5868   -9.8749 H   0  0  0  0  0  0  0  0  0  0  0  0
   -1.9932   -6.0449   -9.2942 H   0  0  0  0  0  0  0  0  0  0  0  0
   -0.8969   -1.4640   -8.7024 H   0  0  0  0  0  0  0  0  0  0  0  0
   -0.4056   -0.0208   -7.0577 H   0  0  0  0  0  0  0  0  0  0  0  0
    0.4157   -0.6634   -4.8698 H   0  0  0  0  0  0  0  0  0  0  0  0
    0.3020   -2.4327   -5.2991 H   0  0  0  0  0  0  0  0  0  0  0  0
  1  2  1  0  0  0  0
  2  3  1  0  0  0  0
  3  4  2  0  0  0  0
  4  5  1  0  0  0  0
  3  6  1  0  0  0  0
  6  7  1  0  0  0  0
  7  8  2  0  0  0  0
  8  9  1  0  0  0  0
  9 10  1  0  0  0  0
 10 11  1  0  0  0  0
 11 12  2  0  0  0  0
 12 13  1  0  0  0  0
 13 14  1  0  0  0  0
 14 15  2  0  0  0  0
 15 16  1  0  0  0  0
 16 17  1  0  0  0  0
 15 18  1  0  0  0  0
 18 19  1  0  0  0  0
 19 20  1  0  0  0  0
 18 21  2  0  0  0  0
 11 22  1  0  0  0  0
 22 23  1  0  0  0  0
 23 24  1  0  0  0  0
 24 25  2  0  0  0  0
 25 26  1  0  0  0  0
 26 27  1  0  0  0  0
 27 28  2  0  0  0  0
 28 29  1  0  0  0  0
 29 30  1  0  0  0  0
 28 31  1  0  0  0  0
 31 32  1  0  0  0  0
 32 33  1  0  0  0  0
 31 34  2  0  0  0  0
 24 35  1  0  0  0  0
 35 36  1  0  0  0  0
 36 37  1  0  0  0  0
 37 38  2  0  0  0  0
 38 39  1  0  0  0  0
 37 40  1  0  0  0  0
 40 41  1  0  0  0  0
 41 42  2  0  0  0  0
 42 43  1  0  0  0  0
 43 44  1  0  0  0  0
 44 45  1  0  0  0  0
 45 46  2  0  0  0  0
 46 47  1  0  0  0  0
 45 48  1  0  0  0  0
 48 49  1  0  0  0  0
 49 50  2  0  0  0  0
 50 51  1  0  0  0  0
 51 52  1  0  0  0  0
 52 53  1  0  0  0  0
 53 54  2  0  0  0  0
 54 55  1  0  0  0  0
 53 56  1  0  0  0  0
 56 57  1  0  0  0  0
 57 58  2  0  0  0  0
  5  1  2  0  0  0  0
 13  9  2  0  0  0  0
 26 22  2  0  0  0  0
 39 35  2  0  0  0  0
 47 43  2  0  0  0  0
 55 51  2  0  0  0  0
 21 12  1  0  0  0  0
 34 25  1  0  0  0  0
  1 59  1  0  0  0  0
  4 60  1  0  0  0  0
  5 61  1  0  0  0  0
  6 62  1  0  0  0  0
  7 63  1  0  0  0  0
  8 64  1  0  0  0  0
 14 65  1  0  0  0  0
 17 66  1  0  0  0  0
 17 67  1  0  0  0  0
 17 68  1  0  0  0  0
 20 69  1  0  0  0  0
 20 70  1  0  0  0  0
 20 71  1  0  0  0  0
 21 72  1  0  0  0  0
 27 73  1  0  0  0  0
 30 74  1  0  0  0  0
 30 75  1  0  0  0  0
 30 76  1  0  0  0  0
 33 77  1  0  0  0  0
 33 78  1  0  0  0  0
 33 79  1  0  0  0  0
 34 80  1  0  0  0  0
 38 81  1  0  0  0  0
 39 82  1  0  0  0  0
 40 83  1  0  0  0  0
 41 84  1  0  0  0  0
 42 85  1  0  0  0  0
 46 86  1  0  0  0  0
 47 87  1  0  0  0  0
 48 88  1  0  0  0  0
 49 89  1  0  0  0  0
 50 90  1  0  0  0  0
 54 91  1  0  0  0  0
 55 92  1  0  0  0  0
 56 93  1  0  0  0  0
 57 94  1  0  0  0  0
 58 95  1  0  0  0  0
 58 96  1  0  0  0  0
M  END
