100

C          6.04050       -6.01400        5.42920
C          4.74420       -5.57110        5.41910
C          4.34450       -4.53860        4.56840
C          5.22690       -3.91190        3.70410
C          6.56860       -4.39640        3.65780
N          7.43400       -3.91860        2.74500
C          8.64640       -4.40630        2.73510
C          9.06250       -5.38410        3.65780
N          8.24140       -5.89540        4.53400
C          6.97000       -5.43980        4.54350
C          4.76790       -2.85260        2.84070
S          3.16760       -2.96600        2.17800
C          3.33840       -1.50030        1.27220
C          4.56930       -0.90130        1.54590
C          5.38630       -1.67580        2.42520
C          6.63480       -1.15650        2.83730
C          7.06330        0.05400        2.37500
O          8.24970        0.63720        2.68580
C          9.12990       -0.06250        3.52820
C          6.22500        0.84440        1.50960
O          6.75110        2.04710        1.16010
C          5.97560        2.90330        0.35950
C          5.00190        0.37680        1.12500
C          2.29800       -1.05710        0.41090
S          0.63570       -1.16800        0.89020
C          0.07690       -0.44490       -0.58310
C          1.15700       -0.07360       -1.39380
C          2.41710       -0.45110       -0.84190
C          3.60100       -0.26890       -1.59130
C          3.55640        0.37940       -2.79160
O          4.62450        0.61810       -3.59840
C          5.87700        0.11930       -3.20120
C          2.30680        0.89770       -3.28110
O          2.41010        1.60030       -4.43880
C          1.23750        2.12110       -5.01190
C          1.14330        0.65850       -2.60340
C         -1.32880       -0.33010       -0.81880
C         -1.90250       -0.23330       -2.08000
C         -3.27280       -0.08070       -2.25630
C         -4.16080       -0.04150       -1.19670
C         -3.63120       -0.21000        0.11070
N         -4.44480       -0.20650        1.18510
C         -3.91480       -0.38510        2.36600
C         -2.53410       -0.57210        2.54070
N         -1.71950       -0.54380        1.51840
C         -2.22640       -0.36290        0.29220
C         -5.59270        0.15630       -1.40570
C         -6.54020       -0.55590       -0.70050
C         -7.90790       -0.35230       -0.88820
C         -8.38870        0.57820       -1.78360
C         -7.44730        1.32970       -2.53680
N         -7.88150        2.21690       -3.45470
C         -6.99070        2.89590       -4.12460
C         -5.61290        2.73510       -3.89350
N         -5.15810        1.86490       -3.03280
C         -6.04900        1.12130       -2.34720
C         -9.82480        0.79350       -1.97520
C        -10.35790        2.06100       -2.05280
C        -11.73130        2.27270       -2.23270
C        -12.59780        1.22040       -2.34110
C        -12.09900       -0.09470       -2.27700
N        -12.95340       -1.13410       -2.39170
C        -12.44990       -2.33690       -2.34400
C        -11.06700       -2.55900       -2.19100
N        -10.21720       -1.57590       -2.06680
C        -10.70370       -0.31840       -2.09380
H          6.37610       -6.80130        6.08480
H          4.01510       -6.01440        6.08100
H          3.31750       -4.20340        4.59230
H          9.31740       -4.01790        1.97980
H         10.07910       -5.75470        3.66810
H          7.23030       -1.73460        3.52030
H         10.02040        0.55920        3.60620
H          8.70140       -0.20870        4.52540
H          9.39930       -1.03670        3.10680
H          5.73840        2.45050       -0.60950
H          6.58510        3.79160        0.20220
H          5.04300        3.18590        0.85870
H          4.33570        0.97110        0.52280
H          4.52260       -0.66170       -1.19640
H          6.20450        0.55240       -2.24960
H          6.57220        0.41010       -3.98690
H          5.86500       -0.97180       -3.11070
H          0.52750        1.32730       -5.26710
H          1.55510        2.62630       -5.92250
H          0.74940        2.84270       -4.34820
H          0.21220        1.06150       -2.96080
H         -1.27960       -0.32390       -2.95470
H         -3.66010       -0.01060       -3.26040
H         -4.59540       -0.37470        3.20720
H         -2.09210       -0.73080        3.51440
H         -6.21520       -1.29510        0.01370
H         -8.60730       -0.93510       -0.31020
H         -7.36550        3.59250       -4.86300
H         -4.87600        3.32390       -4.42410
H         -9.70280        2.91280       -1.96110
H        -12.10150        3.28630       -2.28100
H        -13.65910        1.35830       -2.47540
H        -13.14590       -3.16050       -2.43590
H        -10.65520       -3.55960       -2.17370
