170

C         10.05380      -10.15760        3.20070
S          8.36500       -9.94780        3.33710
C          8.45820       -8.23840        2.99340
C          9.79480       -7.87580        2.77470
C         10.69670       -8.98130        2.89730
C         12.08870       -8.79460        2.70680
C         12.56900       -7.55930        2.39050
O         13.87230       -7.24310        2.18500
C         14.82910       -8.26560        2.30310
C         11.66020       -6.45060        2.22940
O         12.26560       -5.28710        1.88190
C         11.46500       -4.15070        1.67820
C         10.31620       -6.61390        2.41730
C          7.30170       -7.42450        3.02620
S          7.44030       -5.71320        3.30600
C          5.71870       -5.44100        3.27290
C          5.06040       -6.66730        3.06900
C          5.94640       -7.77470        2.92430
C          5.41550       -9.05350        2.65220
C          4.06420       -9.24150        2.56360
O          3.45250      -10.42200        2.29750
C          4.25560      -11.56080        2.10880
C          3.17020       -8.13660        2.76760
O          1.85360       -8.44620        2.68020
C          0.91380       -7.40910        2.82320
C          3.66980       -6.88780        3.01590
C          5.19550       -4.13400        3.32130
S          3.57450       -3.80510        2.77670
C          3.75100       -2.08160        2.93750
C          5.02100       -1.77230        3.43360
C          5.82890       -2.92450        3.66660
C          7.11280       -2.75830        4.22400
C          7.59790       -1.50730        4.49070
O          8.81560       -1.23820        5.02660
C          9.64880       -2.31820        5.36420
C          6.79900       -0.34600        4.21300
O          7.39660        0.83380        4.50570
C          6.67600        2.02000        4.27530
C          5.53460       -0.48930        3.71230
C          2.66690       -1.27440        2.52770
C          1.42970       -1.73480        2.14950
C          0.55680       -0.73660        1.67420
C         -0.76260       -0.88210        1.19990
C         -1.43000       -2.17190        1.19130
S         -0.70070       -3.58420        0.48100
C         -2.06560       -4.57970        0.85630
C         -2.12320       -6.00950        0.44460
C         -2.77380       -6.15420       -0.93350
C         -3.02420       -3.84580        1.48780
Cl        -4.52040       -4.49240        2.02340
C         -2.66820       -2.48440        1.68190
Cl        -3.67520       -1.38760        2.53010
C         -1.38750        0.26060        0.71670
C         -0.77800        1.53820        0.74080
C          0.50980        1.69660        1.28960
C          1.12700        3.01020        1.34970
S          2.69220        3.31820        0.65620
C          2.63310        4.99700        1.07360
C          3.72150        5.93390        0.67980
C          3.42380        6.57460       -0.67850
C          1.46450        5.28570        1.71260
C          0.61060        4.16220        1.87560
Cl        -0.88600        4.25230        2.71450
Cl         1.04670        6.85250        2.27710
C          1.15590        0.54740        1.71040
S          2.77360        0.47140        2.35170
C         -1.56080        2.51640        0.08930
C         -2.72250        2.03200       -0.44420
S         -2.92530        0.32090       -0.09640
C         -3.69720        2.72120       -1.21800
S         -5.32070        2.12450       -1.30450
C         -5.81750        3.39070       -2.37320
C         -4.76260        4.26770       -2.63320
C         -3.54800        3.87420       -1.99470
C         -2.37200        4.61920       -2.23730
C         -2.41790        5.75000       -3.00190
O         -1.35550        6.54180       -3.29090
C         -0.10850        6.21750       -2.72800
C         -3.66780        6.20240       -3.55820
O         -3.58510        7.36650       -4.24670
C         -4.76400        7.90480       -4.79340
C         -4.80440        5.46550       -3.38250
C         -7.13860        3.43840       -2.90220
C         -7.51960        3.92160       -4.12120
C         -8.91630        3.87640       -4.34370
C         -9.62280        4.29130       -5.48570
C         -8.93540        4.87930       -6.62190
S         -7.82240        6.20340       -6.41360
C         -7.50280        6.31500       -8.11090
C         -6.51800        7.29000       -8.65660
C         -5.13530        6.64950       -8.80570
C         -8.21570        5.36960       -8.78440
Cl        -8.15350        5.16470      -10.48630
C         -9.02950        4.55800       -7.94760
Cl        -9.95160        3.25170       -8.56270
C        -11.00590        4.14390       -5.45810
C        -11.69570        3.57930       -4.35930
C        -10.98240        3.11940       -3.24030
C        -11.66220        2.48150       -2.12500
S        -11.45010        3.03180       -0.49050
C        -12.52000        1.82480        0.13620
C        -12.76840        1.70110        1.59880
C        -11.64440        0.91470        2.27760
C        -12.99300        1.03970       -0.87260
C        -12.51440        1.41310       -2.15690
Cl       -12.91860        0.54820       -3.58370
Cl       -14.07090       -0.27530       -0.63900
C         -9.60680        3.30290       -3.24890
S         -8.50850        2.84440       -1.97760
C        -13.10830        3.62270       -4.54650
C        -13.46380        4.18270       -5.72020
S        -12.11830        4.69180       -6.67960
H         10.47960      -11.13010        3.34440
H         12.73550       -9.64960        2.81580
H         14.83710       -8.69390        3.31090
H         15.79000       -7.79470        2.10310
H         14.65670       -9.06320        1.57280
H         10.75140       -4.30030        0.86140
H         12.15310       -3.34900        1.41560
H         10.91780       -3.87590        2.58640
H          9.64160       -5.78830        2.27510
H          6.09070       -9.87580        2.49710
H          4.91770      -11.44730        1.24410
H          4.85700      -11.78000        2.99710
H          3.56320      -12.38120        1.92820
H          0.95620       -6.96190        3.82150
H          1.06220       -6.62560        2.07240
H         -0.06000       -7.87400        2.67860
H          3.00210       -6.06350        3.18720
H          7.69690       -3.62920        4.46160
H          9.19200       -2.95710        6.12700
H          9.89420       -2.92740        4.48750
H         10.55980       -1.87440        5.76190
H          5.77060        2.06540        4.88890
H          6.40100        2.12510        3.22080
H          7.34640        2.82940        4.55890
H          4.91190        0.36890        3.52960
H          1.17090       -2.77620        2.20700
H         -1.11310       -6.42050        0.41540
H         -2.70800       -6.56320        1.18200
H         -2.19580       -5.61730       -1.68170
H         -2.82230       -7.20260       -1.21480
H         -3.78250       -5.74970       -0.91760
H          3.80670        6.71460        1.43810
H          4.66530        5.38940        0.62820
H          3.32620        5.80870       -1.44420
H          4.22940        7.24800       -0.95780
H          2.49700        7.14040       -0.63230
H         -1.27720        3.54930        0.04330
H         -1.43940        4.26870       -1.83400
H          0.25140        5.24340       -3.07580
H         -0.14940        6.21710       -1.63340
H          0.57640        6.99460       -3.06330
H         -5.49850        8.13690       -4.01580
H         -4.46160        8.82340       -5.29290
H         -5.22170        7.22670       -5.52120
H         -5.74790        5.79540       -3.78170
H         -6.81460        4.24580       -4.86240
H         -6.45460        8.15210       -7.99060
H         -6.86550        7.62760       -9.63510
H         -5.18510        5.80380       -9.48650
H         -4.76920        6.29830       -7.84380
H         -4.42960        7.37460       -9.20160
H        -12.83260        2.69680        2.04140
H        -13.71960        1.18780        1.75040
H        -11.57790       -0.08590        1.85800
H        -11.83700        0.83350        3.34390
H        -10.69130        1.41680        2.13050
H        -13.81330        3.26450       -3.81950
H        -14.45290        4.33810       -6.10430
