113

C          4.93380        2.56300       -6.48180
S          3.72910        1.36520       -6.64490
C          3.17740        1.57310       -5.00830
C          3.97350        2.51850       -4.34910
C          4.96250        3.10080       -5.21140
C          5.82990        4.09980       -4.71630
C          5.74730        4.45810       -3.39970
S          6.81660        5.72910       -2.79010
C          4.84530        3.81030       -2.52220
C          3.97730        2.86530       -2.98280
C          2.05140        0.84770       -4.55710
C          1.22870        1.23890       -3.54460
C          0.17300        0.47250       -3.02360
S         -0.07680       -1.18430       -3.45590
C         -1.36060       -1.41300       -2.29770
C         -1.62640       -0.19960       -1.62520
C         -0.76530        0.85970       -2.04630
C         -0.91320        2.15360       -1.52260
C         -1.87960        2.39140       -0.58060
S         -2.15640        3.99650        0.10360
C         -2.71770        1.34980       -0.13820
C         -2.60330        0.09010       -0.65220
C         -1.84260       -2.72930       -2.17990
C         -2.68090       -3.20870       -1.21180
C         -3.02280       -4.53810       -0.91380
S         -3.85610       -4.74110        0.60240
C         -3.65800       -6.46180        0.61910
C         -3.09430       -6.88050       -0.59600
C         -2.72740       -5.80260       -1.46590
C         -2.14510       -6.09720       -2.70700
C         -1.91240       -7.40510       -3.05830
S         -1.17890       -7.72810       -4.63470
C         -2.24740       -8.46430       -2.19210
C         -2.82620       -8.20710       -0.98320
C         -4.07670       -7.25110        1.72510
C         -4.18170       -6.81630        3.01050
C         -3.62330       -5.59220        3.48800
S         -2.04710       -5.07830        2.97810
C         -2.26420       -3.45950        3.59310
C         -3.44280       -3.39690        4.35660
C         -4.19980       -4.61260        4.30460
C         -5.43490       -4.70590        4.97170
C         -5.87530       -3.63950        5.70940
S         -7.40060       -3.68020        6.59900
C         -5.11130       -2.45570        5.80510
C         -3.92520       -2.33230        5.14210
C         -1.35690       -2.50540        3.09650
C         -1.49660       -1.14750        3.06100
C         -0.66870       -0.25720        2.34890
S         -0.74950        1.42590        2.78010
C          0.48540        1.90340        1.65280
C          0.92580        0.76850        0.93670
C          0.25860       -0.43510        1.30500
C          0.52950       -1.60760        0.57780
C          1.48220       -1.64290       -0.41050
O          1.77310       -2.77130       -1.12440
C          1.15990       -3.98530       -0.76250
C          2.22370       -0.45860       -0.71250
O          3.22540       -0.32730       -1.62050
C          3.63770       -1.38930       -2.45100
C          1.92230        0.70670       -0.04410
C          0.84380        3.25410        1.49460
S          1.67750        3.80110        0.06470
C          1.58520        5.47430        0.50920
C          0.95660        5.60860        1.74830
C          0.54120        4.36180        2.31540
C         -0.06900        4.35850        3.57870
C         -0.29580        5.54470        4.23020
S         -1.06220        5.48990        5.82070
C          0.07840        6.77740        3.65590
C          0.69920        6.80910        2.44420
C          2.10210        6.50380       -0.33370
C          2.60040        6.31880       -1.55890
H          5.55510        2.81420       -7.31770
H          6.55000        4.56060       -5.37430
H          6.35640        5.71110       -1.54060
H          4.85660        4.06670       -1.47240
H          3.32580        2.34910       -2.29780
H          1.80990       -0.05770       -5.10100
H          1.37530        2.20810       -3.09290
H         -0.27910        2.95110       -1.87770
H         -1.21820        4.62020       -0.60860
H         -3.46770        1.57070        0.60580
H         -3.28950       -0.66610       -0.31300
H         -1.41740       -3.41990       -2.89460
H         -3.06790       -2.50810       -0.48760
H         -1.89940       -5.31290       -3.40290
H         -1.19010       -9.05570       -4.52990
H         -2.05030       -9.48260       -2.49480
H         -3.09030       -9.01910       -0.32340
H         -4.38260       -8.26430        1.49720
H         -4.71530       -7.42960        3.72610
H         -6.00570       -5.62040        4.90780
H         -7.74990       -4.91210        6.23130
H         -5.48500       -1.65060        6.41890
H         -3.34370       -1.43100        5.24650
H         -0.49610       -2.93950        2.60960
H         -2.30410       -0.68200        3.60730
H         -0.05380       -2.48800        0.77650
H          1.39360       -4.25860        0.27150
H          0.07480       -3.95150       -0.89420
H          1.57860       -4.73080       -1.43680
H          4.40810       -0.95790       -3.09030
H          4.06180       -2.21350       -1.87360
H          2.81830       -1.76240       -3.06760
H          2.50840        1.57340       -0.29430
H         -0.35160        3.43500        4.05470
H         -1.06440        6.80640        6.02450
H         -0.12110        7.69570        4.18910
H          0.99820        7.75220        2.01380
H          2.06370        7.50190        0.08190
H          2.97990        7.13790       -2.14260
H          2.64380        5.34120       -2.00990
