116

C          1.05710        2.85420        0.94700
S         -0.00760        1.55110        1.24220
C         -0.57110        2.25820        2.72430
C          0.06900        3.45870        2.97100
C          1.00830        3.79890        1.94180
C          1.75520        5.00040        2.04030
C          1.57630        5.81840        3.11430
O          2.22030        6.98930        3.33160
C          3.15680        7.42210        2.37670
C          0.64270        5.46330        4.16450
O          0.57980        6.36620        5.16700
C         -0.32600        6.13290        6.21970
C         -0.07580        4.30650        4.09430
C         -1.60680        1.59280        3.48490
C         -2.80640        2.15970        3.83740
C         -3.34140        3.50480        3.51800
F         -4.66930        3.47660        3.30370
F         -3.16190        4.41030        4.50820
F         -2.79480        4.04510        2.42110
S         -3.84030        1.05700        4.68970
C         -2.65000       -0.19930        4.54230
O         -2.85220       -1.42550        5.02340
C         -4.00670       -1.63260        5.80840
C         -1.51100        0.22480        3.89400
C         -0.31560       -0.56640        3.69280
C         -0.27110       -1.89750        3.66710
C          0.96400       -2.64520        3.42210
C          1.98410       -2.77610        4.31900
C          2.04170       -2.18890        5.67700
F          3.03270       -2.69190        6.42440
F          2.23320       -0.84910        5.65810
F          0.90380       -2.37500        6.37300
S          3.29240       -3.73710        3.70680
C          2.44860       -3.94780        2.19930
O          2.96740       -4.64980        1.19100
C          4.26930       -5.16460        1.35700
C          1.22050       -3.31310        2.18510
C          0.31380       -3.17030        1.07860
C          0.49460       -3.67200       -0.15940
C         -0.28600       -3.42200       -1.32300
S          0.22250       -4.26850       -2.75160
C         -0.90720       -3.44630       -3.75260
C         -1.69460       -2.58080       -3.00570
C         -1.34940       -2.56060       -1.61790
C         -2.07310       -1.69470       -0.76270
C         -3.09070       -0.92390       -1.25090
O         -3.84460       -0.06430       -0.52090
C         -3.57790        0.07060        0.85100
C         -3.45820       -0.98680       -2.64230
O         -4.50560       -0.19510       -2.97990
C         -4.94380       -0.20930       -4.31480
C         -2.76930       -1.80060       -3.49160
C         -0.95320       -3.67940       -5.17960
C         -1.09160       -4.91970       -5.74690
C         -1.25180       -6.22040       -5.05180
F         -1.76970       -7.16290       -5.85270
F         -0.09720       -6.73180       -4.57990
F         -2.07540       -6.14170       -3.98690
S         -1.13590       -4.86730       -7.47650
C         -0.99560       -3.13890       -7.43670
O         -0.95750       -2.59370       -8.66140
C         -0.76080       -1.20500       -8.83810
C         -0.89350       -2.63280       -6.16220
C         -0.77410       -1.21730       -5.81740
C          0.06480       -0.64040       -4.95210
C          1.14690       -1.22600       -4.17510
C          2.08420       -2.13120       -4.60600
C          2.34070       -2.66240       -5.96530
F          1.87690       -1.85790       -6.94070
F          3.65450       -2.80600       -6.20740
F          1.80030       -3.87520       -6.20340
S          3.20680       -2.57920       -3.35880
C          2.41360       -1.51160       -2.24520
O          2.99030       -1.48430       -1.03120
C          2.45180       -0.65800       -0.02000
C          1.36170       -0.84050       -2.80780
C          0.52930        0.17740       -2.13990
C          0.52540        1.45350       -2.48840
H          1.64950        2.86100        0.05420
H          2.45260        5.23390        1.25270
H          3.54090        8.36990        2.74930
H          2.68960        7.57790        1.39890
H          3.98280        6.71040        2.27420
H         -1.35290        6.04450        5.85250
H         -0.06230        5.22990        6.77960
H         -0.24520        6.99970        6.87300
H         -0.75320        4.01680        4.87920
H         -4.91360       -1.44650        5.22380
H         -3.97460       -2.67330        6.12310
H         -4.00700       -0.97930        6.68550
H          0.59150        0.00290        3.53910
H         -1.16770       -2.48920        3.78330
H          4.50660       -5.68890        0.43390
H          4.31060       -5.85910        2.20220
H          4.99030       -4.35810        1.52240
H         -0.54420       -2.56120        1.31230
H          1.34900       -4.31210       -0.32850
H         -1.82410       -1.64530        0.28160
H         -2.55910        0.43190        1.02950
H         -3.72420       -0.87440        1.38600
H         -4.29170        0.80740        1.21660
H         -5.27390       -1.20770       -4.61950
H         -4.15950        0.13610       -4.99690
H         -5.78690        0.47820       -4.35550
H         -3.03210       -1.88580       -4.53200
H         -1.68190       -0.65150       -8.63700
H          0.04850       -0.83210       -8.20940
H         -0.49600       -1.08680       -9.88790
H         -1.49300       -0.56740       -6.29950
H         -0.08340        0.41170       -4.75200
H          2.36340        0.37530       -0.35910
H          1.47800       -1.02310        0.31200
H          3.15940       -0.71580        0.80550
H         -0.11840       -0.16970       -1.34680
H         -0.11600        2.16560       -1.99830
H          1.16830        1.83760       -3.26470
