120

C          7.41120       -1.94440       -1.12750
S          7.37820       -2.57680       -2.71520
C          5.76560       -1.95570       -2.99430
C          5.32150       -1.25380       -1.88650
C          6.26640       -1.26920       -0.81320
C          6.05590       -0.58480        0.46860
O          6.79660       -0.71730        1.41640
C          4.85320        0.33200        0.48290
C          3.68350       -0.21140       -0.33270
C          4.06490       -0.51650       -1.76910
O          3.37050       -0.18540       -2.70860
C          5.16690       -2.21510       -4.27010
C          3.87860       -2.52320       -4.55490
C          2.82380       -2.81830       -3.65950
S          3.09740       -3.25810       -2.00590
C          1.39520       -3.31500       -1.62860
C          0.64950       -3.17970       -2.81510
C          1.45070       -2.85460       -3.94640
C          0.82340       -2.51000       -5.16180
C         -0.54330       -2.53710       -5.26590
O         -1.25710       -2.19120       -6.35630
C         -0.59470       -1.54870       -7.42130
C         -1.34240       -2.97700       -4.15040
O         -2.67080       -3.01640       -4.38470
C         -3.52490       -3.38880       -3.32490
C         -0.74620       -3.29320       -2.95830
C          0.93040       -3.20280       -0.30660
S         -0.69000       -2.65550       -0.02500
C         -0.41630       -2.37970        1.67180
C          0.88500       -2.82580        2.02100
C          1.64730       -3.27090        0.90550
C          2.96760       -3.72450        1.08130
C          3.54260       -3.72650        2.32550
O          4.80480       -4.11760        2.60780
C          5.65280       -4.46480        1.54050
C          2.77020       -3.31040        3.45850
O          3.41750       -3.39730        4.64150
C          2.74890       -2.99270        5.81140
C          1.47550       -2.88420        3.29700
C         -1.36680       -1.70620        2.46220
S         -0.95870       -1.25350        4.10810
C         -2.42550       -0.35550        4.34160
C         -3.23650       -0.45850        3.23120
C         -2.63840       -1.18950        2.14960
C         -3.30270       -1.25450        0.87330
O         -2.96730       -1.96440       -0.06650
C         -4.49340       -0.33150        0.72530
C         -5.38530       -0.38450        1.95560
C         -4.62000        0.02250        3.19380
O         -5.14390        0.66950        4.07810
C         -2.59510        0.35930        5.58610
C         -2.99200        1.63760        5.70550
C         -3.26860        2.49790        4.58710
S         -2.32810        2.38890        3.13650
C         -3.41040        3.44160        2.27330
C         -4.40050        3.92610        3.11900
C         -4.30640        3.39680        4.43800
C         -5.29770        3.69000        5.48060
O         -5.13600        3.45510        6.65570
C         -6.56180        4.31140        4.93000
C         -6.27080        5.38420        3.88360
C         -5.44900        4.86550        2.72230
O         -5.63990        5.22940        1.58060
C         -3.25920        3.61270        0.87080
C         -2.38820        2.85140        0.16780
C         -2.21070        2.83170       -1.23650
S         -3.08930        3.87830       -2.31060
C         -2.33800        3.16940       -3.70950
C         -1.43980        2.17770       -3.35010
C         -1.37020        1.97540       -1.94130
C         -0.54930        0.92390       -1.33450
O         -0.43490        0.74210       -0.13690
C          0.12160        0.02240       -2.33630
C          0.56140        0.73660       -3.60650
C         -0.58240        1.43970       -4.28850
O         -0.73900        1.41580       -5.49110
C         -2.64030        3.63240       -5.03350
C         -3.51470        4.59820       -5.30860
H          8.27170       -2.07910       -0.50240
H          5.17970        1.28930        0.06300
H          4.55420        0.50810        1.51760
H          3.33230       -1.14620        0.11780
H          2.85190        0.49600       -0.32530
H          5.86280       -2.17940       -5.09900
H          3.61030       -2.57450       -5.60240
H          1.43300       -2.20840       -5.99710
H         -0.12440       -0.61980       -7.08530
H          0.15200       -2.20040       -7.88630
H         -1.37060       -1.31610       -8.14810
H         -3.36290       -4.43150       -3.03400
H         -3.39060       -2.74710       -2.44880
H         -4.53540       -3.27600       -3.71350
H         -1.33660       -3.63200       -2.12630
H          3.51190       -4.09270        0.22910
H          6.62090       -4.67140        1.99240
H          5.75550       -3.64150        0.82670
H          5.29610       -5.35780        1.01640
H          2.44240       -1.94330        5.75670
H          3.47010       -3.11830        6.61700
H          1.87130       -3.61670        6.00970
H          0.90150       -2.62160        4.16580
H         -4.11400        0.68550        0.58350
H         -5.04420       -0.61630       -0.17280
H         -5.75040       -1.40520        2.10660
H         -6.25220        0.26950        1.84770
H         -2.34080       -0.19550        6.47970
H         -3.17600        2.05710        6.68370
H         -7.14670        4.72220        5.75450
H         -7.13690        3.49880        4.47570
H         -5.69990        6.19760        4.34340
H         -7.19770        5.80810        3.49330
H         -3.92030        4.32130        0.38980
H         -1.76090        2.14420        0.69910
H          0.97900       -0.45860       -1.86570
H         -0.60280       -0.76100       -2.58230
H          1.02580        0.02950       -4.29370
H          1.31780        1.48590       -3.35590
H         -2.10110        3.12510       -5.82160
H         -3.70710        4.90940       -6.31970
H         -4.06580        5.10310       -4.53090
