
  xtb     03042204073D
 energy: -373.704823558361 gnorm: 0.000643498772 xtb: 6.4.1 (unknown)
215235  0     0  0            999 V2000
   -4.0475  -15.7362   -6.0463 C   0  0  0  0  0  0  0  0  0  0  0  0
   -3.5348  -15.6481   -4.4215 S   0  0  0  0  0  0  0  0  0  0  0  0
   -3.4010  -13.9081   -4.4617 C   0  0  0  0  0  0  0  0  0  0  0  0
   -3.7626  -13.4388   -5.7334 C   0  0  0  0  0  0  0  0  0  0  0  0
   -4.1310  -14.4944   -6.6290 C   0  0  0  0  0  0  0  0  0  0  0  0
   -4.5237  -14.2033   -7.9595 C   0  0  0  0  0  0  0  0  0  0  0  0
   -4.5534  -12.9108   -8.3899 C   0  0  0  0  0  0  0  0  0  0  0  0
   -4.9008  -12.4966   -9.6332 O   0  0  0  0  0  0  0  0  0  0  0  0
   -5.2723  -13.4688  -10.5775 C   0  0  0  0  0  0  0  0  0  0  0  0
   -4.2048  -11.8400   -7.4864 C   0  0  0  0  0  0  0  0  0  0  0  0
   -4.2885  -10.6063   -8.0316 O   0  0  0  0  0  0  0  0  0  0  0  0
   -3.9269   -9.4953   -7.2448 C   0  0  0  0  0  0  0  0  0  0  0  0
   -3.8299  -12.1084   -6.1984 C   0  0  0  0  0  0  0  0  0  0  0  0
   -2.9252  -13.1871   -3.3392 C   0  0  0  0  0  0  0  0  0  0  0  0
   -2.3099  -11.5743   -3.5363 S   0  0  0  0  0  0  0  0  0  0  0  0
   -1.8965  -11.4056   -1.8546 C   0  0  0  0  0  0  0  0  0  0  0  0
   -2.2206  -12.5749   -1.1624 C   0  0  0  0  0  0  0  0  0  0  0  0
   -2.8055  -13.5771   -1.9952 C   0  0  0  0  0  0  0  0  0  0  0  0
   -3.2276  -14.7901   -1.4093 C   0  0  0  0  0  0  0  0  0  0  0  0
   -3.0493  -15.0159   -0.0731 C   0  0  0  0  0  0  0  0  0  0  0  0
   -3.4191  -16.1413    0.5872 O   0  0  0  0  0  0  0  0  0  0  0  0
   -4.0216  -17.1780   -0.1472 C   0  0  0  0  0  0  0  0  0  0  0  0
   -2.4287  -14.0177    0.7558 C   0  0  0  0  0  0  0  0  0  0  0  0
   -2.3002  -14.3651    2.0577 O   0  0  0  0  0  0  0  0  0  0  0  0
   -1.7236  -13.4353    2.9424 C   0  0  0  0  0  0  0  0  0  0  0  0
   -2.0342  -12.8273    0.2125 C   0  0  0  0  0  0  0  0  0  0  0  0
   -1.3804  -10.1595   -1.4293 C   0  0  0  0  0  0  0  0  0  0  0  0
   -1.1574   -9.0751   -2.2400 C   0  0  0  0  0  0  0  0  0  0  0  0
   -0.7189   -7.9195   -1.5615 C   0  0  0  0  0  0  0  0  0  0  0  0
   -0.4169   -6.6576   -2.1038 C   0  0  0  0  0  0  0  0  0  0  0  0
   -0.6338   -6.3444   -3.5195 C   0  0  0  0  0  0  0  0  0  0  0  0
    0.3312   -5.6691   -4.2632 C   0  0  0  0  0  0  0  0  0  0  0  0
    0.0972   -5.3054   -5.5738 C   0  0  0  0  0  0  0  0  0  0  0  0
   -1.1147   -5.5969   -6.1895 C   0  0  0  0  0  0  0  0  0  0  0  0
   -1.5133   -5.1473   -7.8492 S   0  0  0  0  0  0  0  0  0  0  0  0
   -0.6034   -3.5760   -8.0699 C   0  0  0  0  0  0  0  0  0  0  0  0
   -1.0637   -2.5082   -7.0968 C   0  0  0  0  0  0  0  0  0  0  0  0
   -2.0589   -6.3042   -5.4470 C   0  0  0  0  0  0  0  0  0  0  0  0
   -3.2412   -6.6263   -6.0139 F   0  0  0  0  0  0  0  0  0  0  0  0
   -1.8393   -6.6720   -4.1382 C   0  0  0  0  0  0  0  0  0  0  0  0
    0.0362   -5.6946   -1.2154 C   0  0  0  0  0  0  0  0  0  0  0  0
    0.1787   -5.9168    0.1762 C   0  0  0  0  0  0  0  0  0  0  0  0
   -0.1131   -7.1834    0.7153 C   0  0  0  0  0  0  0  0  0  0  0  0
    0.0728   -7.4676    2.1427 C   0  0  0  0  0  0  0  0  0  0  0  0
   -0.9276   -8.0730    2.9009 C   0  0  0  0  0  0  0  0  0  0  0  0
   -0.7314   -8.3358    4.2392 C   0  0  0  0  0  0  0  0  0  0  0  0
    0.4711   -8.0268    4.8735 C   0  0  0  0  0  0  0  0  0  0  0  0
    0.6114   -8.4667    6.5804 S   0  0  0  0  0  0  0  0  0  0  0  0
    1.6188   -7.1304    7.3231 C   0  0  0  0  0  0  0  0  0  0  0  0
    0.9967   -5.7638    7.1200 C   0  0  0  0  0  0  0  0  0  0  0  0
    1.4724   -7.4529    4.0962 C   0  0  0  0  0  0  0  0  0  0  0  0
    1.2794   -7.1574    2.7622 C   0  0  0  0  0  0  0  0  0  0  0  0
    2.6850   -7.1667    4.6222 F   0  0  0  0  0  0  0  0  0  0  0  0
   -0.5682   -8.1455   -0.1697 C   0  0  0  0  0  0  0  0  0  0  0  0
   -1.0025   -9.7848    0.2456 S   0  0  0  0  0  0  0  0  0  0  0  0
    0.5364   -4.7316    0.8685 C   0  0  0  0  0  0  0  0  0  0  0  0
    0.6826   -3.6473    0.0563 C   0  0  0  0  0  0  0  0  0  0  0  0
    0.4018   -4.0416   -1.6314 S   0  0  0  0  0  0  0  0  0  0  0  0
    0.9695   -2.2940    0.3944 C   0  0  0  0  0  0  0  0  0  0  0  0
    1.1431   -1.2660   -0.4829 C   0  0  0  0  0  0  0  0  0  0  0  0
    1.3243   -0.0078    0.1391 C   0  0  0  0  0  0  0  0  0  0  0  0
    1.5003    1.2353   -0.4907 C   0  0  0  0  0  0  0  0  0  0  0  0
    1.6571    1.3050   -1.9482 C   0  0  0  0  0  0  0  0  0  0  0  0
    2.5929    0.4934   -2.5842 C   0  0  0  0  0  0  0  0  0  0  0  0
    2.7391    0.5043   -3.9574 C   0  0  0  0  0  0  0  0  0  0  0  0
    1.9440    1.3250   -4.7486 C   0  0  0  0  0  0  0  0  0  0  0  0
    1.9987    1.4291   -6.5067 S   0  0  0  0  0  0  0  0  0  0  0  0
    3.2593    0.2017   -6.9981 C   0  0  0  0  0  0  0  0  0  0  0  0
    2.7305   -1.2209   -6.9769 C   0  0  0  0  0  0  0  0  0  0  0  0
    1.0237    2.1483   -4.0959 C   0  0  0  0  0  0  0  0  0  0  0  0
    0.2408    2.9602   -4.8340 F   0  0  0  0  0  0  0  0  0  0  0  0
    0.8752    2.1544   -2.7271 C   0  0  0  0  0  0  0  0  0  0  0  0
    1.5183    2.3475    0.3343 C   0  0  0  0  0  0  0  0  0  0  0  0
    1.4428    2.2607    1.7477 C   0  0  0  0  0  0  0  0  0  0  0  0
    1.3428    1.0084    2.3798 C   0  0  0  0  0  0  0  0  0  0  0  0
    1.3370    0.8923    3.8424 C   0  0  0  0  0  0  0  0  0  0  0  0
    0.3682    0.1457    4.5052 C   0  0  0  0  0  0  0  0  0  0  0  0
    0.3727    0.0275    5.8817 C   0  0  0  0  0  0  0  0  0  0  0  0
    1.3576    0.6416    6.6463 C   0  0  0  0  0  0  0  0  0  0  0  0
    1.4813    0.5855    8.4023 S   0  0  0  0  0  0  0  0  0  0  0  0
    0.3373   -0.7507    8.8909 C   0  0  0  0  0  0  0  0  0  0  0  0
    0.8553   -2.1236    8.5060 C   0  0  0  0  0  0  0  0  0  0  0  0
    2.3209    1.3921    5.9683 C   0  0  0  0  0  0  0  0  0  0  0  0
    2.3218    1.5265    4.5990 C   0  0  0  0  0  0  0  0  0  0  0  0
    3.2907    2.0038    6.6771 F   0  0  0  0  0  0  0  0  0  0  0  0
    1.2521   -0.0987    1.5503 C   0  0  0  0  0  0  0  0  0  0  0  0
    1.0467   -1.7581    2.0628 S   0  0  0  0  0  0  0  0  0  0  0  0
    1.4288    3.5429    2.3523 C   0  0  0  0  0  0  0  0  0  0  0  0
    1.5093    4.5700    1.4597 C   0  0  0  0  0  0  0  0  0  0  0  0
    1.6369    4.0042   -0.1957 S   0  0  0  0  0  0  0  0  0  0  0  0
    1.4436    5.9682    1.7270 C   0  0  0  0  0  0  0  0  0  0  0  0
    1.4690    6.9890    0.8239 C   0  0  0  0  0  0  0  0  0  0  0  0
    1.3114    8.2693    1.4096 C   0  0  0  0  0  0  0  0  0  0  0  0
    1.2746    9.5163    0.7628 C   0  0  0  0  0  0  0  0  0  0  0  0
    1.5016    9.6422   -0.6820 C   0  0  0  0  0  0  0  0  0  0  0  0
    0.6157   10.3504   -1.4919 C   0  0  0  0  0  0  0  0  0  0  0  0
    0.8600   10.4947   -2.8404 C   0  0  0  0  0  0  0  0  0  0  0  0
    1.9889    9.9375   -3.4380 C   0  0  0  0  0  0  0  0  0  0  0  0
    2.1770   10.1650   -5.1822 S   0  0  0  0  0  0  0  0  0  0  0  0
    3.9704   10.4661   -5.3982 C   0  0  0  0  0  0  0  0  0  0  0  0
    4.4439   11.6627   -4.5979 C   0  0  0  0  0  0  0  0  0  0  0  0
    2.8474    9.2058   -2.6233 C   0  0  0  0  0  0  0  0  0  0  0  0
    3.9451    8.6041   -3.1335 F   0  0  0  0  0  0  0  0  0  0  0  0
    2.6239    9.0666   -1.2685 C   0  0  0  0  0  0  0  0  0  0  0  0
    1.0253   10.6201    1.5603 C   0  0  0  0  0  0  0  0  0  0  0  0
    0.8589   10.5473    2.9650 C   0  0  0  0  0  0  0  0  0  0  0  0
    0.9336    9.3040    3.6168 C   0  0  0  0  0  0  0  0  0  0  0  0
    0.8058    9.2024    5.0754 C   0  0  0  0  0  0  0  0  0  0  0  0
   -0.0779    8.3001    5.6643 C   0  0  0  0  0  0  0  0  0  0  0  0
   -0.2036    8.2345    7.0352 C   0  0  0  0  0  0  0  0  0  0  0  0
    0.5542    9.0488    7.8745 C   0  0  0  0  0  0  0  0  0  0  0  0
    0.3278    8.8494    9.6172 S   0  0  0  0  0  0  0  0  0  0  0  0
    0.4152   10.5561   10.2764 C   0  0  0  0  0  0  0  0  0  0  0  0
   -0.6183   11.4652    9.6423 C   0  0  0  0  0  0  0  0  0  0  0  0
    1.4623    9.9154    7.2738 C   0  0  0  0  0  0  0  0  0  0  0  0
    1.5798   10.0106    5.9024 C   0  0  0  0  0  0  0  0  0  0  0  0
    2.2708   10.7013    8.0199 F   0  0  0  0  0  0  0  0  0  0  0  0
    1.1351    8.1916    2.8139 C   0  0  0  0  0  0  0  0  0  0  0  0
    1.2330    6.5408    3.3718 S   0  0  0  0  0  0  0  0  0  0  0  0
    0.5939   11.8172    3.5301 C   0  0  0  0  0  0  0  0  0  0  0  0
    0.5779   12.8451    2.6271 C   0  0  0  0  0  0  0  0  0  0  0  0
    0.9041   12.2675    1.0002 S   0  0  0  0  0  0  0  0  0  0  0  0
    0.3284   14.2139    2.9181 C   0  0  0  0  0  0  0  0  0  0  0  0
    0.1062   14.6783    4.5825 S   0  0  0  0  0  0  0  0  0  0  0  0
   -0.1409   16.3156    4.1721 C   0  0  0  0  0  0  0  0  0  0  0  0
   -0.0624   16.5290    2.8165 C   0  0  0  0  0  0  0  0  0  0  0  0
    0.2082   15.3259    2.0855 C   0  0  0  0  0  0  0  0  0  0  0  0
    0.3079   15.3904    0.6781 C   0  0  0  0  0  0  0  0  0  0  0  0
    0.1505   16.5836    0.0325 C   0  0  0  0  0  0  0  0  0  0  0  0
    0.2201   16.7598   -1.3082 O   0  0  0  0  0  0  0  0  0  0  0  0
    0.4671   15.6366   -2.1183 C   0  0  0  0  0  0  0  0  0  0  0  0
   -0.1157   17.7957    0.7728 C   0  0  0  0  0  0  0  0  0  0  0  0
   -0.2434   18.8998   -0.0040 O   0  0  0  0  0  0  0  0  0  0  0  0
   -0.5082   20.1278    0.6259 C   0  0  0  0  0  0  0  0  0  0  0  0
   -0.2190   17.7601    2.1308 C   0  0  0  0  0  0  0  0  0  0  0  0
   -4.2625  -16.6908   -6.4826 H   0  0  0  0  0  0  0  0  0  0  0  0
   -4.7897  -15.0269   -8.6015 H   0  0  0  0  0  0  0  0  0  0  0  0
   -5.5097  -12.9202  -11.4873 H   0  0  0  0  0  0  0  0  0  0  0  0
   -6.1545  -14.0294  -10.2507 H   0  0  0  0  0  0  0  0  0  0  0  0
   -4.4535  -14.1679  -10.7778 H   0  0  0  0  0  0  0  0  0  0  0  0
   -2.8897   -9.5679   -6.9034 H   0  0  0  0  0  0  0  0  0  0  0  0
   -4.0334   -8.6249   -7.8885 H   0  0  0  0  0  0  0  0  0  0  0  0
   -4.5849   -9.3828   -6.3782 H   0  0  0  0  0  0  0  0  0  0  0  0
   -3.5978  -11.3008   -5.5283 H   0  0  0  0  0  0  0  0  0  0  0  0
   -3.7073  -15.5295   -2.0248 H   0  0  0  0  0  0  0  0  0  0  0  0
   -4.9684  -16.8569   -0.5939 H   0  0  0  0  0  0  0  0  0  0  0  0
   -4.2128  -17.9732    0.5713 H   0  0  0  0  0  0  0  0  0  0  0  0
   -3.3590  -17.5499   -0.9354 H   0  0  0  0  0  0  0  0  0  0  0  0
   -2.3074  -12.5104    2.9901 H   0  0  0  0  0  0  0  0  0  0  0  0
   -1.7278  -13.9171    3.9185 H   0  0  0  0  0  0  0  0  0  0  0  0
   -0.6938  -13.1951    2.6597 H   0  0  0  0  0  0  0  0  0  0  0  0
   -1.5756  -12.0690    0.8225 H   0  0  0  0  0  0  0  0  0  0  0  0
   -1.2973   -9.1216   -3.3049 H   0  0  0  0  0  0  0  0  0  0  0  0
    1.2859   -5.4395   -3.8157 H   0  0  0  0  0  0  0  0  0  0  0  0
    0.8703   -4.7916   -6.1229 H   0  0  0  0  0  0  0  0  0  0  0  0
    0.4657   -3.7723   -7.9948 H   0  0  0  0  0  0  0  0  0  0  0  0
   -0.8347   -3.2953   -9.0973 H   0  0  0  0  0  0  0  0  0  0  0  0
   -0.8279   -2.7877   -6.0716 H   0  0  0  0  0  0  0  0  0  0  0  0
   -2.1390   -2.3666   -7.1765 H   0  0  0  0  0  0  0  0  0  0  0  0
   -0.5746   -1.5621   -7.3196 H   0  0  0  0  0  0  0  0  0  0  0  0
   -2.6248   -7.1753   -3.5969 H   0  0  0  0  0  0  0  0  0  0  0  0
   -1.8749   -8.3122    2.4435 H   0  0  0  0  0  0  0  0  0  0  0  0
   -1.5139   -8.7903    4.8267 H   0  0  0  0  0  0  0  0  0  0  0  0
    1.6417   -7.3979    8.3797 H   0  0  0  0  0  0  0  0  0  0  0  0
    2.6289   -7.1820    6.9232 H   0  0  0  0  0  0  0  0  0  0  0  0
   -0.0207   -5.7463    7.5057 H   0  0  0  0  0  0  0  0  0  0  0  0
    1.5852   -5.0139    7.6443 H   0  0  0  0  0  0  0  0  0  0  0  0
    0.9702   -5.5008    6.0643 H   0  0  0  0  0  0  0  0  0  0  0  0
    2.0937   -6.7199    2.2053 H   0  0  0  0  0  0  0  0  0  0  0  0
    0.6519   -4.6731    1.9363 H   0  0  0  0  0  0  0  0  0  0  0  0
    1.1064   -1.4030   -1.5490 H   0  0  0  0  0  0  0  0  0  0  0  0
    3.2293   -0.1471   -1.9922 H   0  0  0  0  0  0  0  0  0  0  0  0
    3.4824   -0.1364   -4.4024 H   0  0  0  0  0  0  0  0  0  0  0  0
    4.1331    0.3333   -6.3617 H   0  0  0  0  0  0  0  0  0  0  0  0
    3.5242    0.4971   -8.0134 H   0  0  0  0  0  0  0  0  0  0  0  0
    1.9114   -1.3236   -7.6848 H   0  0  0  0  0  0  0  0  0  0  0  0
    3.5219   -1.9134   -7.2586 H   0  0  0  0  0  0  0  0  0  0  0  0
    2.3649   -1.4909   -5.9884 H   0  0  0  0  0  0  0  0  0  0  0  0
    0.1355    2.8007   -2.2823 H   0  0  0  0  0  0  0  0  0  0  0  0
   -0.4172   -0.3325    3.9404 H   0  0  0  0  0  0  0  0  0  0  0  0
   -0.4089   -0.5446    6.3543 H   0  0  0  0  0  0  0  0  0  0  0  0
   -0.6454   -0.5422    8.4700 H   0  0  0  0  0  0  0  0  0  0  0  0
    0.2780   -0.6494    9.9746 H   0  0  0  0  0  0  0  0  0  0  0  0
    1.8246   -2.2987    8.9672 H   0  0  0  0  0  0  0  0  0  0  0  0
    0.9673   -2.2120    7.4273 H   0  0  0  0  0  0  0  0  0  0  0  0
    0.1617   -2.8893    8.8483 H   0  0  0  0  0  0  0  0  0  0  0  0
    3.1034    2.1011    4.1272 H   0  0  0  0  0  0  0  0  0  0  0  0
    1.3284    3.7036    3.4110 H   0  0  0  0  0  0  0  0  0  0  0  0
    1.5691    6.8239   -0.2342 H   0  0  0  0  0  0  0  0  0  0  0  0
   -0.2747   10.7813   -1.0612 H   0  0  0  0  0  0  0  0  0  0  0  0
    0.1738   11.0461   -3.4642 H   0  0  0  0  0  0  0  0  0  0  0  0
    4.5163    9.5611   -5.1420 H   0  0  0  0  0  0  0  0  0  0  0  0
    4.0654   10.6463   -6.4690 H   0  0  0  0  0  0  0  0  0  0  0  0
    4.3420   11.4803   -3.5296 H   0  0  0  0  0  0  0  0  0  0  0  0
    5.4925   11.8568   -4.8146 H   0  0  0  0  0  0  0  0  0  0  0  0
    3.8637   12.5469   -4.8540 H   0  0  0  0  0  0  0  0  0  0  0  0
    3.3391    8.5142   -0.6785 H   0  0  0  0  0  0  0  0  0  0  0  0
   -0.6929    7.6687    5.0422 H   0  0  0  0  0  0  0  0  0  0  0  0
   -0.9010    7.5463    7.4868 H   0  0  0  0  0  0  0  0  0  0  0  0
    0.2194   10.4206   11.3401 H   0  0  0  0  0  0  0  0  0  0  0  0
    1.4262   10.9357   10.1480 H   0  0  0  0  0  0  0  0  0  0  0  0
   -0.4199   11.5987    8.5805 H   0  0  0  0  0  0  0  0  0  0  0  0
   -0.5899   12.4420   10.1212 H   0  0  0  0  0  0  0  0  0  0  0  0
   -1.6164   11.0474    9.7572 H   0  0  0  0  0  0  0  0  0  0  0  0
    2.3057   10.6945    5.4902 H   0  0  0  0  0  0  0  0  0  0  0  0
    0.3940   11.9699    4.5756 H   0  0  0  0  0  0  0  0  0  0  0  0
   -0.3310   17.0333    4.9448 H   0  0  0  0  0  0  0  0  0  0  0  0
    0.5065   14.4897    0.1249 H   0  0  0  0  0  0  0  0  0  0  0  0
    0.4798   16.0099   -3.1408 H   0  0  0  0  0  0  0  0  0  0  0  0
    1.4331   15.1770   -1.8856 H   0  0  0  0  0  0  0  0  0  0  0  0
   -0.3222   14.8851   -2.0145 H   0  0  0  0  0  0  0  0  0  0  0  0
   -0.5712   20.8624   -0.1751 H   0  0  0  0  0  0  0  0  0  0  0  0
   -1.4575   20.1029    1.1713 H   0  0  0  0  0  0  0  0  0  0  0  0
    0.2965   20.4084    1.3136 H   0  0  0  0  0  0  0  0  0  0  0  0
   -0.4192   18.6447    2.7128 H   0  0  0  0  0  0  0  0  0  0  0  0
  1  2  1  0  0  0  0
  2  3  1  0  0  0  0
  3  4  2  0  0  0  0
  4  5  1  0  0  0  0
  5  6  1  0  0  0  0
  6  7  2  0  0  0  0
  7  8  1  0  0  0  0
  8  9  1  0  0  0  0
  7 10  1  0  0  0  0
 10 11  1  0  0  0  0
 11 12  1  0  0  0  0
 10 13  2  0  0  0  0
  3 14  1  0  0  0  0
 14 15  1  0  0  0  0
 15 16  1  0  0  0  0
 16 17  2  0  0  0  0
 17 18  1  0  0  0  0
 18 19  1  0  0  0  0
 19 20  2  0  0  0  0
 20 21  1  0  0  0  0
 21 22  1  0  0  0  0
 20 23  1  0  0  0  0
 23 24  1  0  0  0  0
 24 25  1  0  0  0  0
 23 26  2  0  0  0  0
 16 27  1  0  0  0  0
 27 28  2  0  0  0  0
 28 29  1  0  0  0  0
 29 30  2  0  0  0  0
 30 31  1  0  0  0  0
 31 32  2  0  0  0  0
 32 33  1  0  0  0  0
 33 34  2  0  0  0  0
 34 35  1  0  0  0  0
 35 36  1  0  0  0  0
 36 37  1  0  0  0  0
 34 38  1  0  0  0  0
 38 39  1  0  0  0  0
 38 40  2  0  0  0  0
 30 41  1  0  0  0  0
 41 42  2  0  0  0  0
 42 43  1  0  0  0  0
 43 44  1  0  0  0  0
 44 45  2  0  0  0  0
 45 46  1  0  0  0  0
 46 47  2  0  0  0  0
 47 48  1  0  0  0  0
 48 49  1  0  0  0  0
 49 50  1  0  0  0  0
 47 51  1  0  0  0  0
 51 52  2  0  0  0  0
 51 53  1  0  0  0  0
 43 54  2  0  0  0  0
 54 55  1  0  0  0  0
 42 56  1  0  0  0  0
 56 57  2  0  0  0  0
 57 58  1  0  0  0  0
 57 59  1  0  0  0  0
 59 60  2  0  0  0  0
 60 61  1  0  0  0  0
 61 62  2  0  0  0  0
 62 63  1  0  0  0  0
 63 64  2  0  0  0  0
 64 65  1  0  0  0  0
 65 66  2  0  0  0  0
 66 67  1  0  0  0  0
 67 68  1  0  0  0  0
 68 69  1  0  0  0  0
 66 70  1  0  0  0  0
 70 71  1  0  0  0  0
 70 72  2  0  0  0  0
 62 73  1  0  0  0  0
 73 74  2  0  0  0  0
 74 75  1  0  0  0  0
 75 76  1  0  0  0  0
 76 77  2  0  0  0  0
 77 78  1  0  0  0  0
 78 79  2  0  0  0  0
 79 80  1  0  0  0  0
 80 81  1  0  0  0  0
 81 82  1  0  0  0  0
 79 83  1  0  0  0  0
 83 84  2  0  0  0  0
 83 85  1  0  0  0  0
 75 86  2  0  0  0  0
 86 87  1  0  0  0  0
 74 88  1  0  0  0  0
 88 89  2  0  0  0  0
 89 90  1  0  0  0  0
 89 91  1  0  0  0  0
 91 92  2  0  0  0  0
 92 93  1  0  0  0  0
 93 94  2  0  0  0  0
 94 95  1  0  0  0  0
 95 96  2  0  0  0  0
 96 97  1  0  0  0  0
 97 98  2  0  0  0  0
 98 99  1  0  0  0  0
 99100  1  0  0  0  0
100101  1  0  0  0  0
 98102  1  0  0  0  0
102103  1  0  0  0  0
102104  2  0  0  0  0
 94105  1  0  0  0  0
105106  2  0  0  0  0
106107  1  0  0  0  0
107108  1  0  0  0  0
108109  2  0  0  0  0
109110  1  0  0  0  0
110111  2  0  0  0  0
111112  1  0  0  0  0
112113  1  0  0  0  0
113114  1  0  0  0  0
111115  1  0  0  0  0
115116  2  0  0  0  0
115117  1  0  0  0  0
107118  2  0  0  0  0
118119  1  0  0  0  0
106120  1  0  0  0  0
120121  2  0  0  0  0
121122  1  0  0  0  0
121123  1  0  0  0  0
123124  1  0  0  0  0
124125  1  0  0  0  0
125126  2  0  0  0  0
126127  1  0  0  0  0
127128  1  0  0  0  0
128129  2  0  0  0  0
129130  1  0  0  0  0
130131  1  0  0  0  0
129132  1  0  0  0  0
132133  1  0  0  0  0
133134  1  0  0  0  0
132135  2  0  0  0  0
  5  1  2  0  0  0  0
 18 14  2  0  0  0  0
 55 27  1  0  0  0  0
 87 59  1  0  0  0  0
119 91  1  0  0  0  0
127123  2  0  0  0  0
 13  4  1  0  0  0  0
 26 17  1  0  0  0  0
 54 29  1  0  0  0  0
 86 61  1  0  0  0  0
118 93  1  0  0  0  0
135126  1  0  0  0  0
 40 31  1  0  0  0  0
 58 41  1  0  0  0  0
 72 63  1  0  0  0  0
 90 73  1  0  0  0  0
104 95  1  0  0  0  0
122105  1  0  0  0  0
 52 44  1  0  0  0  0
 84 76  1  0  0  0  0
116108  1  0  0  0  0
  1136  1  0  0  0  0
  6137  1  0  0  0  0
  9138  1  0  0  0  0
  9139  1  0  0  0  0
  9140  1  0  0  0  0
 12141  1  0  0  0  0
 12142  1  0  0  0  0
 12143  1  0  0  0  0
 13144  1  0  0  0  0
 19145  1  0  0  0  0
 22146  1  0  0  0  0
 22147  1  0  0  0  0
 22148  1  0  0  0  0
 25149  1  0  0  0  0
 25150  1  0  0  0  0
 25151  1  0  0  0  0
 26152  1  0  0  0  0
 28153  1  0  0  0  0
 32154  1  0  0  0  0
 33155  1  0  0  0  0
 36156  1  0  0  0  0
 36157  1  0  0  0  0
 37158  1  0  0  0  0
 37159  1  0  0  0  0
 37160  1  0  0  0  0
 40161  1  0  0  0  0
 45162  1  0  0  0  0
 46163  1  0  0  0  0
 49164  1  0  0  0  0
 49165  1  0  0  0  0
 50166  1  0  0  0  0
 50167  1  0  0  0  0
 50168  1  0  0  0  0
 52169  1  0  0  0  0
 56170  1  0  0  0  0
 60171  1  0  0  0  0
 64172  1  0  0  0  0
 65173  1  0  0  0  0
 68174  1  0  0  0  0
 68175  1  0  0  0  0
 69176  1  0  0  0  0
 69177  1  0  0  0  0
 69178  1  0  0  0  0
 72179  1  0  0  0  0
 77180  1  0  0  0  0
 78181  1  0  0  0  0
 81182  1  0  0  0  0
 81183  1  0  0  0  0
 82184  1  0  0  0  0
 82185  1  0  0  0  0
 82186  1  0  0  0  0
 84187  1  0  0  0  0
 88188  1  0  0  0  0
 92189  1  0  0  0  0
 96190  1  0  0  0  0
 97191  1  0  0  0  0
100192  1  0  0  0  0
100193  1  0  0  0  0
101194  1  0  0  0  0
101195  1  0  0  0  0
101196  1  0  0  0  0
104197  1  0  0  0  0
109198  1  0  0  0  0
110199  1  0  0  0  0
113200  1  0  0  0  0
113201  1  0  0  0  0
114202  1  0  0  0  0
114203  1  0  0  0  0
114204  1  0  0  0  0
116205  1  0  0  0  0
120206  1  0  0  0  0
125207  1  0  0  0  0
128208  1  0  0  0  0
131209  1  0  0  0  0
131210  1  0  0  0  0
131211  1  0  0  0  0
134212  1  0  0  0  0
134213  1  0  0  0  0
134214  1  0  0  0  0
135215  1  0  0  0  0
M  END
