93

C          8.65580       -0.38610        0.73660
O          8.24930        0.36950       -0.27450
C          6.90520        0.17250       -0.44140
C          6.47260       -0.75000        0.48250
C          7.60730       -1.11200        1.24940
C          7.64920       -2.04820        2.37590
O          8.61160       -2.24690        3.07540
O          6.47990       -2.67300        2.55180
C          6.31650        0.89630       -1.52770
C          5.02590        1.09600       -1.87800
C          3.82720        0.72120       -1.20530
O          3.83760        0.18050        0.02090
C          2.56050       -0.03780        0.42240
C          1.69670        0.37800       -0.56830
C          2.49630        0.87560       -1.61960
C          1.94120        1.43680       -2.84410
O          0.75860        1.61970       -3.02630
O          2.84820        1.75020       -3.78430
C          2.33480       -0.59080        1.71740
C          1.09840       -0.92460        2.14320
C          0.70040       -1.38380        3.42910
O         -0.62280       -1.60340        3.54100
C         -0.92420       -1.89580        4.82490
C          0.23530       -1.90180        5.56820
C          1.29210       -1.57180        4.68410
C          2.69050       -1.46310        5.07870
O          3.64000       -1.29790        4.34920
O          2.84420       -1.57690        6.41090
C         -2.27900       -2.14940        5.21350
C         -3.38390       -1.96750        4.45590
C         -3.45550       -1.35340        3.16210
S         -4.45960       -2.07140        1.94460
C         -3.96220       -0.92630        0.74130
C         -3.04880       -0.01330        1.26810
C         -2.80420       -0.22980        2.65740
C         -1.97700        0.67200        3.36640
C         -1.32390        1.66630        2.69700
O         -0.48140        2.56820        3.25870
C         -0.21160        2.46000        4.63350
C         -1.48270        1.81200        1.27010
O         -0.76130        2.81580        0.72760
C         -1.02410        3.17690       -0.61170
C         -2.32240        0.98090        0.58050
C         -4.45350       -1.06510       -0.58580
O         -4.70470       -2.30950       -1.03570
C         -5.07620       -2.22950       -2.34300
C         -5.11580       -0.91320       -2.72390
C         -4.73030       -0.14430       -1.59900
C         -4.81450        1.30720       -1.52300
O         -4.70750        1.98640       -0.52840
O         -5.07610        1.85630       -2.72610
C         -5.42610       -3.44500       -3.02550
C         -5.24870       -3.71700       -4.33500
C         -4.48660       -2.94340       -5.26680
O         -3.68260       -1.96190       -4.82830
C         -3.00770       -1.44250       -5.88040
C         -3.37810       -2.09440       -7.02920
C         -4.33070       -3.07300       -6.64770
C         -4.97040       -3.98510       -7.58790
O         -4.74890       -4.00700       -8.77440
O         -5.85550       -4.83030       -7.02160
C         -2.06350       -0.37820       -5.65000
C         -1.83080        0.14100       -4.44710
H          9.68950       -0.34990        1.01930
H          5.48940       -1.14170        0.61660
H          6.51760       -3.25080        3.32880
H          7.06680        1.34960       -2.16360
H          4.84270        1.63720       -2.79380
H          0.62790        0.34210       -0.55770
H          2.39480        2.11400       -4.56140
H          3.19780       -0.72140        2.35320
H          0.25690       -0.81400        1.47150
H          0.33340       -2.10580        6.61420
H          3.78440       -1.50330        6.63570
H         -2.38670       -2.57340        6.20130
H         -4.31850       -2.36700        4.83020
H         -1.88020        0.55210        4.43270
H         -1.11420        2.61020        5.23500
H          0.50490        3.24890        4.85570
H          0.23080        1.48860        4.88080
H         -0.64340        2.43490       -1.31970
H         -0.49950        4.11820       -0.76780
H         -2.09620        3.32290       -0.77180
H         -2.43260        1.06450       -0.48540
H         -5.41300       -0.51890       -3.67240
H         -5.16600        2.81640       -2.63030
H         -5.87400       -4.20150       -2.39500
H         -5.65670       -4.62880       -4.74220
H         -3.03000       -1.91830       -8.02560
H         -6.23450       -5.39860       -7.71050
H         -1.54600       -0.02930       -6.53200
H         -2.36110       -0.22110       -3.58220
H         -1.10840        0.91960       -4.28180
