
  xtb     03042221463D
 energy: -174.794986217031 gnorm: 0.000223933729 xtb: 6.4.1 (unknown)
104115  0     0  0            999 V2000
    9.9422    0.3240    2.3552 N   0  0  0  0  0  0  0  0  0  0  0  0
    9.0688    1.2893    2.8277 C   0  0  0  0  0  0  0  0  0  0  0  0
    9.3381    2.2487    3.7525 C   0  0  0  0  0  0  0  0  0  0  0  0
    7.9354    3.1701    4.1584 S   0  0  0  0  0  0  0  0  0  0  0  0
    6.9674    2.2528    3.0678 C   0  0  0  0  0  0  0  0  0  0  0  0
    7.6939    1.3024    2.4167 C   0  0  0  0  0  0  0  0  0  0  0  0
    7.2588    0.4112    1.4432 N   0  0  0  0  0  0  0  0  0  0  0  0
    8.0850   -0.7666    1.2770 C   0  0  0  0  0  0  0  0  0  0  0  0
    9.5431   -0.3304    1.1295 C   0  0  0  0  0  0  0  0  0  0  0  0
    5.9686    0.4113    0.9697 C   0  0  0  0  0  0  0  0  0  0  0  0
    5.0205   -1.0516    0.9537 S   0  0  0  0  0  0  0  0  0  0  0  0
    3.6375   -0.2361    0.2761 C   0  0  0  0  0  0  0  0  0  0  0  0
    3.8981    1.1236    0.1381 C   0  0  0  0  0  0  0  0  0  0  0  0
    5.2357    1.4838    0.4902 C   0  0  0  0  0  0  0  0  0  0  0  0
    5.6727    2.8213    0.3047 C   0  0  0  0  0  0  0  0  0  0  0  0
    4.7967    3.7691   -0.1312 C   0  0  0  0  0  0  0  0  0  0  0  0
    5.0931    5.0796   -0.3432 O   0  0  0  0  0  0  0  0  0  0  0  0
    6.3893    5.5208   -0.0297 C   0  0  0  0  0  0  0  0  0  0  0  0
    3.4184    3.4250   -0.3866 C   0  0  0  0  0  0  0  0  0  0  0  0
    2.6381    4.4756   -0.7601 O   0  0  0  0  0  0  0  0  0  0  0  0
    1.2748    4.2348   -0.9990 C   0  0  0  0  0  0  0  0  0  0  0  0
    2.9905    2.1385   -0.2512 C   0  0  0  0  0  0  0  0  0  0  0  0
    2.4455   -0.9408   -0.0456 C   0  0  0  0  0  0  0  0  0  0  0  0
    1.8331   -2.2014    0.9889 S   0  0  0  0  0  0  0  0  0  0  0  0
    0.3354   -2.3142    0.1082 C   0  0  0  0  0  0  0  0  0  0  0  0
    0.3334   -1.4431   -0.9766 C   0  0  0  0  0  0  0  0  0  0  0  0
    1.5566   -0.7065   -1.0873 C   0  0  0  0  0  0  0  0  0  0  0  0
    1.7792    0.1272   -2.2103 C   0  0  0  0  0  0  0  0  0  0  0  0
    0.7893    0.3304   -3.1232 C   0  0  0  0  0  0  0  0  0  0  0  0
    0.8893    1.1038   -4.2379 O   0  0  0  0  0  0  0  0  0  0  0  0
    2.1260    1.7136   -4.5078 C   0  0  0  0  0  0  0  0  0  0  0  0
   -0.4986   -0.2893   -2.9367 C   0  0  0  0  0  0  0  0  0  0  0  0
   -1.4289    0.0622   -3.8666 O   0  0  0  0  0  0  0  0  0  0  0  0
   -2.7063   -0.5160   -3.7885 C   0  0  0  0  0  0  0  0  0  0  0  0
   -0.7044   -1.1580   -1.9068 C   0  0  0  0  0  0  0  0  0  0  0  0
   -0.6200   -3.2339    0.4689 N   0  0  0  0  0  0  0  0  0  0  0  0
   -0.9838   -3.5538    1.7735 C   0  0  0  0  0  0  0  0  0  0  0  0
   -0.2220   -3.5457    2.9022 C   0  0  0  0  0  0  0  0  0  0  0  0
   -1.1121   -4.0414    4.2898 S   0  0  0  0  0  0  0  0  0  0  0  0
   -2.5326   -4.2858    3.3460 C   0  0  0  0  0  0  0  0  0  0  0  0
   -2.3299   -3.9895    2.0339 C   0  0  0  0  0  0  0  0  0  0  0  0
   -3.2908   -4.0791    1.0325 N   0  0  0  0  0  0  0  0  0  0  0  0
   -2.9107   -3.5016   -0.2484 C   0  0  0  0  0  0  0  0  0  0  0  0
   -1.4597   -3.8926   -0.5090 C   0  0  0  0  0  0  0  0  0  0  0  0
   -4.6107   -3.8716    1.4563 N   0  0  0  0  0  0  0  0  0  0  0  0
   -5.5762   -4.3919    0.5953 C   0  0  0  0  0  0  0  0  0  0  0  0
   -5.5907   -5.6621    0.1059 C   0  0  0  0  0  0  0  0  0  0  0  0
   -6.9460   -5.9454   -0.9136 S   0  0  0  0  0  0  0  0  0  0  0  0
   -7.5079   -4.3306   -0.6852 C   0  0  0  0  0  0  0  0  0  0  0  0
   -6.6857   -3.6135    0.1277 C   0  0  0  0  0  0  0  0  0  0  0  0
   -6.8478   -2.2888    0.5278 N   0  0  0  0  0  0  0  0  0  0  0  0
   -5.6428   -1.6399    1.0129 C   0  0  0  0  0  0  0  0  0  0  0  0
   -4.9545   -2.5703    2.0116 C   0  0  0  0  0  0  0  0  0  0  0  0
   -7.6629   -1.4498   -0.2251 N   0  0  0  0  0  0  0  0  0  0  0  0
   -7.4583   -1.3273   -1.5933 C   0  0  0  0  0  0  0  0  0  0  0  0
   -6.3602   -1.6883   -2.3094 C   0  0  0  0  0  0  0  0  0  0  0  0
   -6.4946   -1.2451   -3.9731 S   0  0  0  0  0  0  0  0  0  0  0  0
   -8.0513   -0.5519   -3.6980 C   0  0  0  0  0  0  0  0  0  0  0  0
   -8.4441   -0.6707   -2.4026 C   0  0  0  0  0  0  0  0  0  0  0  0
   -9.6623   -0.2949   -1.8575 N   0  0  0  0  0  0  0  0  0  0  0  0
   -9.6608   -0.1048   -0.4223 C   0  0  0  0  0  0  0  0  0  0  0  0
   -9.0377   -1.3422    0.2214 C   0  0  0  0  0  0  0  0  0  0  0  0
   10.9205    0.5623    2.4261 H   0  0  0  0  0  0  0  0  0  0  0  0
   10.2713    2.4637    4.2313 H   0  0  0  0  0  0  0  0  0  0  0  0
    5.9260    2.4781    2.9695 H   0  0  0  0  0  0  0  0  0  0  0  0
    7.7563   -1.2997    0.3833 H   0  0  0  0  0  0  0  0  0  0  0  0
    7.9940   -1.4355    2.1432 H   0  0  0  0  0  0  0  0  0  0  0  0
    9.6320    0.3286    0.2505 H   0  0  0  0  0  0  0  0  0  0  0  0
   10.1792   -1.2051    0.9771 H   0  0  0  0  0  0  0  0  0  0  0  0
    6.7013    3.0582    0.5169 H   0  0  0  0  0  0  0  0  0  0  0  0
    6.6311    5.3431    1.0236 H   0  0  0  0  0  0  0  0  0  0  0  0
    7.1431    5.0351   -0.6591 H   0  0  0  0  0  0  0  0  0  0  0  0
    6.3919    6.5916   -0.2262 H   0  0  0  0  0  0  0  0  0  0  0  0
    0.8509    5.1969   -1.2817 H   0  0  0  0  0  0  0  0  0  0  0  0
    0.7686    3.8636   -0.1015 H   0  0  0  0  0  0  0  0  0  0  0  0
    1.1235    3.5186   -1.8143 H   0  0  0  0  0  0  0  0  0  0  0  0
    1.9621    1.8671   -0.4174 H   0  0  0  0  0  0  0  0  0  0  0  0
    2.7517    0.5768   -2.3196 H   0  0  0  0  0  0  0  0  0  0  0  0
    1.9859    2.2657   -5.4356 H   0  0  0  0  0  0  0  0  0  0  0  0
    2.4201    2.4084   -3.7131 H   0  0  0  0  0  0  0  0  0  0  0  0
    2.9191    0.9706   -4.6421 H   0  0  0  0  0  0  0  0  0  0  0  0
   -3.2701   -0.1112   -4.6267 H   0  0  0  0  0  0  0  0  0  0  0  0
   -3.2152   -0.2499   -2.8555 H   0  0  0  0  0  0  0  0  0  0  0  0
   -2.6645   -1.6069   -3.8798 H   0  0  0  0  0  0  0  0  0  0  0  0
   -1.6725   -1.6078   -1.7803 H   0  0  0  0  0  0  0  0  0  0  0  0
    0.8029   -3.2656    3.0207 H   0  0  0  0  0  0  0  0  0  0  0  0
   -3.4377   -4.6196    3.8083 H   0  0  0  0  0  0  0  0  0  0  0  0
   -2.9985   -2.4035   -0.2452 H   0  0  0  0  0  0  0  0  0  0  0  0
   -3.5736   -3.9153   -1.0146 H   0  0  0  0  0  0  0  0  0  0  0  0
   -1.3655   -4.9784   -0.3826 H   0  0  0  0  0  0  0  0  0  0  0  0
   -1.1355   -3.6303   -1.5134 H   0  0  0  0  0  0  0  0  0  0  0  0
   -4.8733   -6.4367    0.2815 H   0  0  0  0  0  0  0  0  0  0  0  0
   -8.3940   -4.0113   -1.1937 H   0  0  0  0  0  0  0  0  0  0  0  0
   -4.9616   -1.3798    0.1895 H   0  0  0  0  0  0  0  0  0  0  0  0
   -5.9424   -0.7136    1.5094 H   0  0  0  0  0  0  0  0  0  0  0  0
   -4.0463   -2.1072    2.4013 H   0  0  0  0  0  0  0  0  0  0  0  0
   -5.6384   -2.7491    2.8477 H   0  0  0  0  0  0  0  0  0  0  0  0
   -5.4808   -2.2052   -1.9843 H   0  0  0  0  0  0  0  0  0  0  0  0
   -8.5864   -0.1120   -4.5145 H   0  0  0  0  0  0  0  0  0  0  0  0
  -10.1558    0.4123   -2.3832 H   0  0  0  0  0  0  0  0  0  0  0  0
   -9.0875    0.7851   -0.1178 H   0  0  0  0  0  0  0  0  0  0  0  0
  -10.6930    0.0095   -0.0848 H   0  0  0  0  0  0  0  0  0  0  0  0
   -9.6303   -2.2270   -0.0492 H   0  0  0  0  0  0  0  0  0  0  0  0
   -9.0268   -1.2460    1.3088 H   0  0  0  0  0  0  0  0  0  0  0  0
  1  2  1  0  0  0  0
  2  3  2  0  0  0  0
  3  4  1  0  0  0  0
  4  5  1  0  0  0  0
  5  6  2  0  0  0  0
  6  7  1  0  0  0  0
  7  8  1  0  0  0  0
  8  9  1  0  0  0  0
  7 10  1  0  0  0  0
 10 11  1  0  0  0  0
 11 12  1  0  0  0  0
 12 13  2  0  0  0  0
 13 14  1  0  0  0  0
 14 15  1  0  0  0  0
 15 16  2  0  0  0  0
 16 17  1  0  0  0  0
 17 18  1  0  0  0  0
 16 19  1  0  0  0  0
 19 20  1  0  0  0  0
 20 21  1  0  0  0  0
 19 22  2  0  0  0  0
 12 23  1  0  0  0  0
 23 24  1  0  0  0  0
 24 25  1  0  0  0  0
 25 26  2  0  0  0  0
 26 27  1  0  0  0  0
 27 28  1  0  0  0  0
 28 29  2  0  0  0  0
 29 30  1  0  0  0  0
 30 31  1  0  0  0  0
 29 32  1  0  0  0  0
 32 33  1  0  0  0  0
 33 34  1  0  0  0  0
 32 35  2  0  0  0  0
 25 36  1  0  0  0  0
 36 37  1  0  0  0  0
 37 38  2  0  0  0  0
 38 39  1  0  0  0  0
 39 40  1  0  0  0  0
 40 41  2  0  0  0  0
 41 42  1  0  0  0  0
 42 43  1  0  0  0  0
 43 44  1  0  0  0  0
 42 45  1  0  0  0  0
 45 46  1  0  0  0  0
 46 47  2  0  0  0  0
 47 48  1  0  0  0  0
 48 49  1  0  0  0  0
 49 50  2  0  0  0  0
 50 51  1  0  0  0  0
 51 52  1  0  0  0  0
 52 53  1  0  0  0  0
 51 54  1  0  0  0  0
 54 55  1  0  0  0  0
 55 56  2  0  0  0  0
 56 57  1  0  0  0  0
 57 58  1  0  0  0  0
 58 59  2  0  0  0  0
 59 60  1  0  0  0  0
 60 61  1  0  0  0  0
 61 62  1  0  0  0  0
  9  1  1  0  0  0  0
 14 10  2  0  0  0  0
 27 23  2  0  0  0  0
 44 36  1  0  0  0  0
 53 45  1  0  0  0  0
 62 54  1  0  0  0  0
  6  2  1  0  0  0  0
 22 13  1  0  0  0  0
 35 26  1  0  0  0  0
 41 37  1  0  0  0  0
 50 46  1  0  0  0  0
 59 55  1  0  0  0  0
  1 63  1  0  0  0  0
  3 64  1  0  0  0  0
  5 65  1  0  0  0  0
  8 66  1  0  0  0  0
  8 67  1  0  0  0  0
  9 68  1  0  0  0  0
  9 69  1  0  0  0  0
 15 70  1  0  0  0  0
 18 71  1  0  0  0  0
 18 72  1  0  0  0  0
 18 73  1  0  0  0  0
 21 74  1  0  0  0  0
 21 75  1  0  0  0  0
 21 76  1  0  0  0  0
 22 77  1  0  0  0  0
 28 78  1  0  0  0  0
 31 79  1  0  0  0  0
 31 80  1  0  0  0  0
 31 81  1  0  0  0  0
 34 82  1  0  0  0  0
 34 83  1  0  0  0  0
 34 84  1  0  0  0  0
 35 85  1  0  0  0  0
 38 86  1  0  0  0  0
 40 87  1  0  0  0  0
 43 88  1  0  0  0  0
 43 89  1  0  0  0  0
 44 90  1  0  0  0  0
 44 91  1  0  0  0  0
 47 92  1  0  0  0  0
 49 93  1  0  0  0  0
 52 94  1  0  0  0  0
 52 95  1  0  0  0  0
 53 96  1  0  0  0  0
 53 97  1  0  0  0  0
 56 98  1  0  0  0  0
 58 99  1  0  0  0  0
 60100  1  0  0  0  0
 61101  1  0  0  0  0
 61102  1  0  0  0  0
 62103  1  0  0  0  0
 62104  1  0  0  0  0
M  END
