
  xtb     03042208573D
 energy: -236.508536554337 gnorm: 0.000209096470 xtb: 6.4.1 (unknown)
132147  0     0  0            999 V2000
    6.5658    1.7819    1.7518 C   0  0  0  0  0  0  0  0  0  0  0  0
    7.4606    1.3116    0.7961 C   0  0  0  0  0  0  0  0  0  0  0  0
    7.3896   -0.0456    0.3374 C   0  0  0  0  0  0  0  0  0  0  0  0
    8.2547   -0.4913   -0.6020 N   0  0  0  0  0  0  0  0  0  0  0  0
    9.1225    0.3524   -1.0787 C   0  0  0  0  0  0  0  0  0  0  0  0
    9.1805    1.6982   -0.6410 C   0  0  0  0  0  0  0  0  0  0  0  0
    8.3840    2.1612    0.2753 N   0  0  0  0  0  0  0  0  0  0  0  0
    6.3998   -0.9217    0.8272 C   0  0  0  0  0  0  0  0  0  0  0  0
    5.5728   -0.4587    1.8751 C   0  0  0  0  0  0  0  0  0  0  0  0
    5.6259    0.9118    2.2935 C   0  0  0  0  0  0  0  0  0  0  0  0
    4.7224    1.3812    3.1918 N   0  0  0  0  0  0  0  0  0  0  0  0
    3.8462    0.5489    3.6677 C   0  0  0  0  0  0  0  0  0  0  0  0
    3.8652   -0.8273    3.3354 C   0  0  0  0  0  0  0  0  0  0  0  0
    4.7064   -1.3073    2.4671 N   0  0  0  0  0  0  0  0  0  0  0  0
    6.2985   -2.2579    0.2897 C   0  0  0  0  0  0  0  0  0  0  0  0
    5.1654   -2.9647    0.1345 C   0  0  0  0  0  0  0  0  0  0  0  0
    3.8196   -2.4796    0.3034 C   0  0  0  0  0  0  0  0  0  0  0  0
    3.4367   -1.1563   -0.0041 C   0  0  0  0  0  0  0  0  0  0  0  0
    2.1128   -0.6962    0.2683 C   0  0  0  0  0  0  0  0  0  0  0  0
    1.7966    0.5972    0.0436 N   0  0  0  0  0  0  0  0  0  0  0  0
    2.7172    1.3924   -0.4214 C   0  0  0  0  0  0  0  0  0  0  0  0
    4.0091    0.9252   -0.7388 C   0  0  0  0  0  0  0  0  0  0  0  0
    4.3478   -0.3143   -0.5345 N   0  0  0  0  0  0  0  0  0  0  0  0
    1.1288   -1.5460    0.8401 C   0  0  0  0  0  0  0  0  0  0  0  0
    1.4809   -2.9076    1.0194 C   0  0  0  0  0  0  0  0  0  0  0  0
    2.8109   -3.3642    0.7395 C   0  0  0  0  0  0  0  0  0  0  0  0
    3.1368   -4.6614    0.9305 N   0  0  0  0  0  0  0  0  0  0  0  0
    2.2262   -5.4659    1.4021 C   0  0  0  0  0  0  0  0  0  0  0  0
    0.9140   -5.0253    1.6561 C   0  0  0  0  0  0  0  0  0  0  0  0
    0.5526   -3.7885    1.4433 N   0  0  0  0  0  0  0  0  0  0  0  0
   -0.1108   -0.9550    1.2203 C   0  0  0  0  0  0  0  0  0  0  0  0
   -1.0330   -1.4762    2.0694 C   0  0  0  0  0  0  0  0  0  0  0  0
   -2.2411   -0.8411    2.4895 C   0  0  0  0  0  0  0  0  0  0  0  0
   -3.0202   -1.4874    3.4859 C   0  0  0  0  0  0  0  0  0  0  0  0
   -4.3114   -0.9999    3.8746 C   0  0  0  0  0  0  0  0  0  0  0  0
   -5.0357   -1.6521    4.8154 N   0  0  0  0  0  0  0  0  0  0  0  0
   -4.5239   -2.7286    5.3405 C   0  0  0  0  0  0  0  0  0  0  0  0
   -3.2656   -3.2259    4.9411 C   0  0  0  0  0  0  0  0  0  0  0  0
   -2.5395   -2.6149    4.0496 N   0  0  0  0  0  0  0  0  0  0  0  0
   -4.8684    0.1189    3.2394 C   0  0  0  0  0  0  0  0  0  0  0  0
   -4.0340    0.8671    2.3864 C   0  0  0  0  0  0  0  0  0  0  0  0
   -2.7415    0.3901    1.9904 C   0  0  0  0  0  0  0  0  0  0  0  0
   -2.0260    1.1061    1.1019 N   0  0  0  0  0  0  0  0  0  0  0  0
   -2.5116    2.2232    0.6393 C   0  0  0  0  0  0  0  0  0  0  0  0
   -3.7485    2.7248    1.0905 C   0  0  0  0  0  0  0  0  0  0  0  0
   -4.4850    2.0603    1.9342 N   0  0  0  0  0  0  0  0  0  0  0  0
   -6.2990    0.4451    3.3179 C   0  0  0  0  0  0  0  0  0  0  0  0
   -7.0407    0.3751    2.2057 C   0  0  0  0  0  0  0  0  0  0  0  0
   -6.4010   -0.1919    1.0301 C   0  0  0  0  0  0  0  0  0  0  0  0
   -5.9615    0.7430   -0.3507 S   0  0  0  0  0  0  0  0  0  0  0  0
   -4.6563   -0.3511   -0.7869 C   0  0  0  0  0  0  0  0  0  0  0  0
   -4.7202   -1.5028    0.0224 C   0  0  0  0  0  0  0  0  0  0  0  0
   -5.7263   -1.4103    1.0254 C   0  0  0  0  0  0  0  0  0  0  0  0
   -5.9720   -2.4910    1.9008 C   0  0  0  0  0  0  0  0  0  0  0  0
   -5.2033   -3.6155    1.8195 C   0  0  0  0  0  0  0  0  0  0  0  0
   -5.3569   -4.7296    2.5790 O   0  0  0  0  0  0  0  0  0  0  0  0
   -6.5032   -4.8210    3.3908 C   0  0  0  0  0  0  0  0  0  0  0  0
   -4.1333   -3.6844    0.8593 C   0  0  0  0  0  0  0  0  0  0  0  0
   -3.4249   -4.8333    0.8997 O   0  0  0  0  0  0  0  0  0  0  0  0
   -2.2998   -4.9479    0.0600 C   0  0  0  0  0  0  0  0  0  0  0  0
   -3.9155   -2.6559   -0.0215 C   0  0  0  0  0  0  0  0  0  0  0  0
   -3.6382    0.0569   -1.6583 C   0  0  0  0  0  0  0  0  0  0  0  0
   -2.0919   -0.7579   -1.6626 S   0  0  0  0  0  0  0  0  0  0  0  0
   -1.3422    0.4774   -2.6267 C   0  0  0  0  0  0  0  0  0  0  0  0
   -2.3128    1.3972   -3.0794 C   0  0  0  0  0  0  0  0  0  0  0  0
   -3.6034    1.1675   -2.5282 C   0  0  0  0  0  0  0  0  0  0  0  0
   -4.6828    1.9833   -2.9111 C   0  0  0  0  0  0  0  0  0  0  0  0
   -4.5000    2.9985   -3.8141 C   0  0  0  0  0  0  0  0  0  0  0  0
   -5.4654    3.8480   -4.2435 O   0  0  0  0  0  0  0  0  0  0  0  0
   -6.7607    3.7079   -3.7130 C   0  0  0  0  0  0  0  0  0  0  0  0
   -3.2121    3.1992   -4.4079 C   0  0  0  0  0  0  0  0  0  0  0  0
   -3.1604    4.1974   -5.3244 O   0  0  0  0  0  0  0  0  0  0  0  0
   -1.9299    4.4661   -5.9491 C   0  0  0  0  0  0  0  0  0  0  0  0
   -2.1571    2.3991   -4.0524 C   0  0  0  0  0  0  0  0  0  0  0  0
    0.0524    0.4109   -2.8401 C   0  0  0  0  0  0  0  0  0  0  0  0
    0.8865    1.5251   -3.1370 C   0  0  0  0  0  0  0  0  0  0  0  0
    2.2707    1.3372   -3.4582 C   0  0  0  0  0  0  0  0  0  0  0  0
    3.0212    2.4083   -3.8052 N   0  0  0  0  0  0  0  0  0  0  0  0
    2.4901    3.5972   -3.7346 C   0  0  0  0  0  0  0  0  0  0  0  0
    1.1764    3.7857   -3.2735 C   0  0  0  0  0  0  0  0  0  0  0  0
    0.3952    2.7692   -3.0142 N   0  0  0  0  0  0  0  0  0  0  0  0
    2.9029    0.0727   -3.3947 C   0  0  0  0  0  0  0  0  0  0  0  0
    2.1116   -1.0114   -2.9585 C   0  0  0  0  0  0  0  0  0  0  0  0
    0.7214   -0.8327   -2.6631 C   0  0  0  0  0  0  0  0  0  0  0  0
   -0.0053   -1.8632   -2.2120 N   0  0  0  0  0  0  0  0  0  0  0  0
    0.5618   -3.0298   -2.0499 C   0  0  0  0  0  0  0  0  0  0  0  0
    1.9136   -3.2165   -2.3806 C   0  0  0  0  0  0  0  0  0  0  0  0
    2.6559   -2.2396   -2.8224 N   0  0  0  0  0  0  0  0  0  0  0  0
    4.3065   -0.0075   -3.7319 C   0  0  0  0  0  0  0  0  0  0  0  0
    5.1488   -1.0000   -3.4473 C   0  0  0  0  0  0  0  0  0  0  0  0
    6.5799    2.8181    2.0473 H   0  0  0  0  0  0  0  0  0  0  0  0
    9.8151   -0.0255   -1.8193 H   0  0  0  0  0  0  0  0  0  0  0  0
    9.9099    2.3873   -1.0466 H   0  0  0  0  0  0  0  0  0  0  0  0
    3.1153    0.9475    4.3585 H   0  0  0  0  0  0  0  0  0  0  0  0
    3.1905   -1.5302    3.8057 H   0  0  0  0  0  0  0  0  0  0  0  0
    7.2406   -2.6942   -0.0120 H   0  0  0  0  0  0  0  0  0  0  0  0
    5.2286   -4.0066   -0.1496 H   0  0  0  0  0  0  0  0  0  0  0  0
    2.4363    2.4264   -0.5714 H   0  0  0  0  0  0  0  0  0  0  0  0
    4.7553    1.5725   -1.1782 H   0  0  0  0  0  0  0  0  0  0  0  0
    2.5158   -6.4982    1.5478 H   0  0  0  0  0  0  0  0  0  0  0  0
    0.1431   -5.7012    2.0009 H   0  0  0  0  0  0  0  0  0  0  0  0
   -0.2649    0.0378    0.8232 H   0  0  0  0  0  0  0  0  0  0  0  0
   -0.8553   -2.4395    2.5272 H   0  0  0  0  0  0  0  0  0  0  0  0
   -5.1013   -3.2154    6.1164 H   0  0  0  0  0  0  0  0  0  0  0  0
   -2.8493   -4.1237    5.3775 H   0  0  0  0  0  0  0  0  0  0  0  0
   -1.9051    2.7540   -0.0822 H   0  0  0  0  0  0  0  0  0  0  0  0
   -4.1268    3.6842    0.7648 H   0  0  0  0  0  0  0  0  0  0  0  0
   -6.7103    0.7390    4.2714 H   0  0  0  0  0  0  0  0  0  0  0  0
   -8.0632    0.7195    2.1603 H   0  0  0  0  0  0  0  0  0  0  0  0
   -6.7710   -2.3940    2.6174 H   0  0  0  0  0  0  0  0  0  0  0  0
   -6.5141   -4.0505    4.1673 H   0  0  0  0  0  0  0  0  0  0  0  0
   -7.4176   -4.7422    2.7937 H   0  0  0  0  0  0  0  0  0  0  0  0
   -6.4558   -5.8044    3.8554 H   0  0  0  0  0  0  0  0  0  0  0  0
   -1.5611   -4.1730    0.2893 H   0  0  0  0  0  0  0  0  0  0  0  0
   -2.5819   -4.8952   -0.9969 H   0  0  0  0  0  0  0  0  0  0  0  0
   -1.8804   -5.9309    0.2691 H   0  0  0  0  0  0  0  0  0  0  0  0
   -3.1436   -2.7294   -0.7659 H   0  0  0  0  0  0  0  0  0  0  0  0
   -5.6612    1.7803   -2.5125 H   0  0  0  0  0  0  0  0  0  0  0  0
   -7.3502    4.5031   -4.1662 H   0  0  0  0  0  0  0  0  0  0  0  0
   -7.1988    2.7388   -3.9730 H   0  0  0  0  0  0  0  0  0  0  0  0
   -6.7648    3.8247   -2.6245 H   0  0  0  0  0  0  0  0  0  0  0  0
   -1.5942    3.6200   -6.5580 H   0  0  0  0  0  0  0  0  0  0  0  0
   -2.1091    5.3250   -6.5937 H   0  0  0  0  0  0  0  0  0  0  0  0
   -1.1533    4.7126   -5.2177 H   0  0  0  0  0  0  0  0  0  0  0  0
   -1.1984    2.5200   -4.5211 H   0  0  0  0  0  0  0  0  0  0  0  0
    3.1151    4.4281   -4.0346 H   0  0  0  0  0  0  0  0  0  0  0  0
    0.7569    4.7716   -3.1211 H   0  0  0  0  0  0  0  0  0  0  0  0
   -0.0570   -3.8312   -1.6707 H   0  0  0  0  0  0  0  0  0  0  0  0
    2.3917   -4.1827   -2.2867 H   0  0  0  0  0  0  0  0  0  0  0  0
    4.6721    0.8830   -4.2272 H   0  0  0  0  0  0  0  0  0  0  0  0
    4.8377   -1.8825   -2.9209 H   0  0  0  0  0  0  0  0  0  0  0  0
    6.1856   -0.9356   -3.7320 H   0  0  0  0  0  0  0  0  0  0  0  0
  1  2  2  0  0  0  0
  2  3  1  0  0  0  0
  3  4  1  0  0  0  0
  4  5  2  0  0  0  0
  5  6  1  0  0  0  0
  6  7  2  0  0  0  0
  3  8  2  0  0  0  0
  8  9  1  0  0  0  0
  9 10  2  0  0  0  0
 10 11  1  0  0  0  0
 11 12  2  0  0  0  0
 12 13  1  0  0  0  0
 13 14  2  0  0  0  0
  8 15  1  0  0  0  0
 15 16  2  0  0  0  0
 16 17  1  0  0  0  0
 17 18  1  0  0  0  0
 18 19  1  0  0  0  0
 19 20  2  0  0  0  0
 20 21  1  0  0  0  0
 21 22  2  0  0  0  0
 22 23  1  0  0  0  0
 19 24  1  0  0  0  0
 24 25  2  0  0  0  0
 25 26  1  0  0  0  0
 26 27  1  0  0  0  0
 27 28  2  0  0  0  0
 28 29  1  0  0  0  0
 29 30  2  0  0  0  0
 24 31  1  0  0  0  0
 31 32  2  0  0  0  0
 32 33  1  0  0  0  0
 33 34  1  0  0  0  0
 34 35  1  0  0  0  0
 35 36  2  0  0  0  0
 36 37  1  0  0  0  0
 37 38  2  0  0  0  0
 38 39  1  0  0  0  0
 35 40  1  0  0  0  0
 40 41  2  0  0  0  0
 41 42  1  0  0  0  0
 42 43  1  0  0  0  0
 43 44  2  0  0  0  0
 44 45  1  0  0  0  0
 45 46  2  0  0  0  0
 40 47  1  0  0  0  0
 47 48  2  0  0  0  0
 48 49  1  0  0  0  0
 49 50  1  0  0  0  0
 50 51  1  0  0  0  0
 51 52  2  0  0  0  0
 52 53  1  0  0  0  0
 53 54  1  0  0  0  0
 54 55  2  0  0  0  0
 55 56  1  0  0  0  0
 56 57  1  0  0  0  0
 55 58  1  0  0  0  0
 58 59  1  0  0  0  0
 59 60  1  0  0  0  0
 58 61  2  0  0  0  0
 51 62  1  0  0  0  0
 62 63  1  0  0  0  0
 63 64  1  0  0  0  0
 64 65  2  0  0  0  0
 65 66  1  0  0  0  0
 66 67  1  0  0  0  0
 67 68  2  0  0  0  0
 68 69  1  0  0  0  0
 69 70  1  0  0  0  0
 68 71  1  0  0  0  0
 71 72  1  0  0  0  0
 72 73  1  0  0  0  0
 71 74  2  0  0  0  0
 64 75  1  0  0  0  0
 75 76  1  0  0  0  0
 76 77  1  0  0  0  0
 77 78  2  0  0  0  0
 78 79  1  0  0  0  0
 79 80  2  0  0  0  0
 80 81  1  0  0  0  0
 77 82  1  0  0  0  0
 82 83  2  0  0  0  0
 83 84  1  0  0  0  0
 84 85  1  0  0  0  0
 85 86  2  0  0  0  0
 86 87  1  0  0  0  0
 87 88  2  0  0  0  0
 82 89  1  0  0  0  0
 89 90  2  0  0  0  0
 10  1  1  0  0  0  0
 26 17  2  0  0  0  0
 42 33  2  0  0  0  0
 53 49  2  0  0  0  0
 66 62  2  0  0  0  0
 84 75  2  0  0  0  0
  7  2  1  0  0  0  0
 14  9  1  0  0  0  0
 23 18  2  0  0  0  0
 30 25  1  0  0  0  0
 39 34  2  0  0  0  0
 46 41  1  0  0  0  0
 61 52  1  0  0  0  0
 74 65  1  0  0  0  0
 81 76  2  0  0  0  0
 88 83  1  0  0  0  0
  1 91  1  0  0  0  0
  5 92  1  0  0  0  0
  6 93  1  0  0  0  0
 12 94  1  0  0  0  0
 13 95  1  0  0  0  0
 15 96  1  0  0  0  0
 16 97  1  0  0  0  0
 21 98  1  0  0  0  0
 22 99  1  0  0  0  0
 28100  1  0  0  0  0
 29101  1  0  0  0  0
 31102  1  0  0  0  0
 32103  1  0  0  0  0
 37104  1  0  0  0  0
 38105  1  0  0  0  0
 44106  1  0  0  0  0
 45107  1  0  0  0  0
 47108  1  0  0  0  0
 48109  1  0  0  0  0
 54110  1  0  0  0  0
 57111  1  0  0  0  0
 57112  1  0  0  0  0
 57113  1  0  0  0  0
 60114  1  0  0  0  0
 60115  1  0  0  0  0
 60116  1  0  0  0  0
 61117  1  0  0  0  0
 67118  1  0  0  0  0
 70119  1  0  0  0  0
 70120  1  0  0  0  0
 70121  1  0  0  0  0
 73122  1  0  0  0  0
 73123  1  0  0  0  0
 73124  1  0  0  0  0
 74125  1  0  0  0  0
 79126  1  0  0  0  0
 80127  1  0  0  0  0
 86128  1  0  0  0  0
 87129  1  0  0  0  0
 89130  1  0  0  0  0
 90131  1  0  0  0  0
 90132  1  0  0  0  0
M  END
