96

C          5.14500        6.16470        1.83530
S          3.83170        5.80560        2.86400
C          3.01360        4.86190        1.64380
C          3.77760        4.85420        0.46800
C          4.99330        5.60160        0.59100
C          5.89070        5.69820       -0.50160
C          5.59210        5.08140       -1.67920
O          6.36120        5.08800       -2.79620
C          7.58240        5.78220       -2.75680
C          4.35650        4.34900       -1.81720
O          4.17250        3.80340       -3.04340
C          3.01050        3.04400       -3.27140
C          3.48120        4.24880       -0.77170
C          1.80310        4.18800        1.93720
S          1.27290        2.85380        0.95210
C         -0.13520        2.55390        1.92610
C         -0.16100        3.42860        3.01560
C          0.91210        4.36830        3.00800
C          0.96070        5.35050        4.02160
C          0.04330        5.34860        5.03500
O         -0.00490        6.24620        6.05020
C          0.96740        7.26140        6.09060
C         -0.96640        4.32590        5.09990
O         -1.77060        4.39570        6.18930
C         -2.79770        3.44480        6.32000
C         -1.05890        3.39440        4.10530
C         -1.03480        1.52280        1.56430
S         -0.43360        0.06800        0.83200
C         -2.00400       -0.67380        0.79020
C         -2.97490        0.21940        1.25250
C         -2.43020        1.47180        1.68880
C         -3.29360        2.52530        2.05720
C         -4.64510        2.33650        2.03670
C         -5.19920        1.11470        1.61130
C         -4.38210        0.09970        1.21000
F         -4.94280       -1.02170        0.70630
C         -2.15470       -2.01210        0.34050
S         -1.30610       -2.57660       -1.06140
C         -2.03090       -4.15140       -0.97740
C         -2.83020       -4.25910        0.16470
C         -2.90910       -3.04090        0.91340
C         -3.60310       -3.00580        2.14090
C         -4.21150       -4.13390        2.60610
C         -4.12450       -5.34810        1.89890
C         -3.43730       -5.40590        0.72280
F         -3.28770       -6.60330        0.11440
C         -1.80730       -5.09840       -2.01170
S         -0.23440       -5.29600       -2.71020
C         -0.76830       -6.54430       -3.78740
C         -2.14490       -6.74260       -3.66050
C         -2.74080       -5.92310       -2.64720
C         -4.13920       -5.92850       -2.46010
C         -4.92080       -6.73540       -3.23260
C         -4.35800       -7.53700       -4.24450
C         -3.01230       -7.52200       -4.45930
F         -2.51170       -8.22430       -5.49910
C          0.17060       -7.22340       -4.61660
S          1.41090       -6.34580       -5.45490
C          2.05000       -7.75930       -6.15860
C          1.36420       -8.88420       -5.75920
C          0.28770       -8.59240       -4.85560
C         -0.44510       -9.65190       -4.27630
C         -0.16130      -10.93700       -4.62890
C          0.85760      -11.24060       -5.55990
C          1.59970      -10.23810       -6.09900
F          2.59740      -10.51600       -6.96740
H          5.95120        6.77010        2.19750
H          6.79690        6.26540       -0.36590
H          8.25320        5.37200       -1.99450
H          8.02920        5.64880       -3.74050
H          7.43140        6.85040       -2.56830
H          2.10580        3.65130       -3.16490
H          2.95150        2.18670       -2.59320
H          3.08890        2.69000       -4.29780
H          2.55360        3.71850       -0.89160
H          1.72230        6.10800        3.98180
H          0.90920        7.90940        5.21000
H          1.97780        6.84670        6.16730
H          0.74550        7.84390        6.98320
H         -3.49480        3.48570        5.47610
H         -3.32360        3.70480        7.23700
H         -2.39720        2.42940        6.40660
H         -1.79320        2.60790        4.14150
H         -2.87430        3.48480        2.31340
H         -5.31060        3.13980        2.31200
H         -6.26830        0.98630        1.55660
H         -3.62320       -2.09070        2.71130
H         -4.74390       -4.11780        3.54430
H         -4.56870       -6.24670        2.29620
H         -4.57830       -5.27330       -1.72490
H         -5.99100       -6.74620       -3.09790
H         -4.98770       -8.13960       -4.87940
H          2.88810       -7.70240       -6.82340
H         -1.21420       -9.43300       -3.55230
H         -0.71620      -11.75280       -4.19240
H          1.05800      -12.26430       -5.83310
