
  xtb     03042200033D
 energy: -474.590712474421 gnorm: 0.000405234017 xtb: 6.4.1 (unknown)
273299  0     0  0            999 V2000
   -3.9356   10.7898    4.3432 C   0  0  0  0  0  0  0  0  0  0  0  0
   -3.0586   10.0162    3.6729 C   0  0  0  0  0  0  0  0  0  0  0  0
   -3.2962    8.6218    3.8574 C   0  0  0  0  0  0  0  0  0  0  0  0
   -2.5598    7.5429    3.3503 C   0  0  0  0  0  0  0  0  0  0  0  0
   -1.3953    7.7124    2.4719 C   0  0  0  0  0  0  0  0  0  0  0  0
   -1.4496    8.4776    1.3070 C   0  0  0  0  0  0  0  0  0  0  0  0
   -0.3557    8.5622    0.4739 C   0  0  0  0  0  0  0  0  0  0  0  0
    0.8445    7.9084    0.7654 C   0  0  0  0  0  0  0  0  0  0  0  0
    2.1586    8.1572   -0.3825 S   0  0  0  0  0  0  0  0  0  0  0  0
    3.2567    6.7017   -0.2241 C   0  0  0  0  0  0  0  0  0  0  0  0
    2.5502    5.4105   -0.5817 C   0  0  0  0  0  0  0  0  0  0  0  0
    0.8910    7.1769    1.9483 C   0  0  0  0  0  0  0  0  0  0  0  0
    2.0179    6.5418    2.3465 F   0  0  0  0  0  0  0  0  0  0  0  0
   -0.2045    7.0634    2.7796 C   0  0  0  0  0  0  0  0  0  0  0  0
   -2.9778    6.2766    3.7314 C   0  0  0  0  0  0  0  0  0  0  0  0
   -4.0738    6.0370    4.5940 C   0  0  0  0  0  0  0  0  0  0  0  0
   -4.8012    7.1192    5.1143 C   0  0  0  0  0  0  0  0  0  0  0  0
   -5.9125    6.9083    6.0487 C   0  0  0  0  0  0  0  0  0  0  0  0
   -5.7571    6.0909    7.1649 C   0  0  0  0  0  0  0  0  0  0  0  0
   -6.7954    5.8807    8.0519 C   0  0  0  0  0  0  0  0  0  0  0  0
   -8.0317    6.4852    7.8551 C   0  0  0  0  0  0  0  0  0  0  0  0
   -9.4529    6.2911    8.8755 S   0  0  0  0  0  0  0  0  0  0  0  0
   -8.8555    5.3423   10.3166 C   0  0  0  0  0  0  0  0  0  0  0  0
   -8.0332    6.1900   11.2690 C   0  0  0  0  0  0  0  0  0  0  0  0
   -8.1716    7.3060    6.7332 C   0  0  0  0  0  0  0  0  0  0  0  0
   -7.1453    7.5244    5.8433 C   0  0  0  0  0  0  0  0  0  0  0  0
   -9.3593    7.9004    6.5073 F   0  0  0  0  0  0  0  0  0  0  0  0
   -4.3993    8.3876    4.7151 C   0  0  0  0  0  0  0  0  0  0  0  0
   -5.1073    9.8917    5.2456 S   0  0  0  0  0  0  0  0  0  0  0  0
   -4.3034    4.6470    4.7854 C   0  0  0  0  0  0  0  0  0  0  0  0
   -3.4289    3.8555    4.1070 C   0  0  0  0  0  0  0  0  0  0  0  0
   -2.2628    4.7841    3.1876 S   0  0  0  0  0  0  0  0  0  0  0  0
   -3.3048    2.4307    4.1098 C   0  0  0  0  0  0  0  0  0  0  0  0
   -3.6725    1.5487    5.0795 C   0  0  0  0  0  0  0  0  0  0  0  0
   -3.2497    0.2170    4.8230 C   0  0  0  0  0  0  0  0  0  0  0  0
   -3.3071   -0.8924    5.6839 C   0  0  0  0  0  0  0  0  0  0  0  0
   -3.8809   -0.7804    7.0300 C   0  0  0  0  0  0  0  0  0  0  0  0
   -3.4771    0.2293    7.8992 C   0  0  0  0  0  0  0  0  0  0  0  0
   -4.0435    0.3626    9.1517 C   0  0  0  0  0  0  0  0  0  0  0  0
   -5.0449   -0.5036    9.5761 C   0  0  0  0  0  0  0  0  0  0  0  0
   -5.8680   -0.4271   11.1316 S   0  0  0  0  0  0  0  0  0  0  0  0
   -5.4931    1.2517   11.7465 C   0  0  0  0  0  0  0  0  0  0  0  0
   -6.1841    2.3321   10.9353 C   0  0  0  0  0  0  0  0  0  0  0  0
   -5.4123   -1.5346    8.7085 C   0  0  0  0  0  0  0  0  0  0  0  0
   -6.3635   -2.4051    9.0962 F   0  0  0  0  0  0  0  0  0  0  0  0
   -4.8480   -1.6853    7.4618 C   0  0  0  0  0  0  0  0  0  0  0  0
   -2.7397   -2.0702    5.2210 C   0  0  0  0  0  0  0  0  0  0  0  0
   -2.1685   -2.1963    3.9305 C   0  0  0  0  0  0  0  0  0  0  0  0
   -2.0737   -1.0810    3.0841 C   0  0  0  0  0  0  0  0  0  0  0  0
   -1.3121   -1.0999    1.8275 C   0  0  0  0  0  0  0  0  0  0  0  0
   -0.0040   -1.5823    1.7985 C   0  0  0  0  0  0  0  0  0  0  0  0
    0.7430   -1.5272    0.6411 C   0  0  0  0  0  0  0  0  0  0  0  0
    0.2187   -0.9869   -0.5297 C   0  0  0  0  0  0  0  0  0  0  0  0
    1.2859   -0.8878   -1.9416 S   0  0  0  0  0  0  0  0  0  0  0  0
    0.2430   -1.4943   -3.3197 C   0  0  0  0  0  0  0  0  0  0  0  0
   -0.1467   -2.9454   -3.1233 C   0  0  0  0  0  0  0  0  0  0  0  0
   -1.0789   -0.4885   -0.4836 C   0  0  0  0  0  0  0  0  0  0  0  0
   -1.8432   -0.5504    0.6644 C   0  0  0  0  0  0  0  0  0  0  0  0
   -1.6314    0.0884   -1.5731 F   0  0  0  0  0  0  0  0  0  0  0  0
   -2.6125    0.1026    3.5632 C   0  0  0  0  0  0  0  0  0  0  0  0
   -2.4837    1.6500    2.7762 S   0  0  0  0  0  0  0  0  0  0  0  0
   -1.6042   -3.4797    3.7298 C   0  0  0  0  0  0  0  0  0  0  0  0
   -1.6107   -4.2594    4.8485 C   0  0  0  0  0  0  0  0  0  0  0  0
   -2.4643   -3.5104    6.1767 S   0  0  0  0  0  0  0  0  0  0  0  0
   -0.6883   -5.3556    4.9960 C   0  0  0  0  0  0  0  0  0  0  0  0
    0.3226   -5.3797    5.9090 C   0  0  0  0  0  0  0  0  0  0  0  0
    1.4825   -6.0587    5.4407 C   0  0  0  0  0  0  0  0  0  0  0  0
    2.7936   -5.8100    5.8937 C   0  0  0  0  0  0  0  0  0  0  0  0
    3.0077   -5.1962    7.2090 C   0  0  0  0  0  0  0  0  0  0  0  0
    3.7965   -4.0668    7.3987 C   0  0  0  0  0  0  0  0  0  0  0  0
    3.9849   -3.5272    8.6572 C   0  0  0  0  0  0  0  0  0  0  0  0
    3.3950   -4.1039    9.7763 C   0  0  0  0  0  0  0  0  0  0  0  0
    3.5624   -3.5339   11.4297 S   0  0  0  0  0  0  0  0  0  0  0  0
    4.7370   -2.1355   11.2832 C   0  0  0  0  0  0  0  0  0  0  0  0
    5.0195   -1.5937   12.6718 C   0  0  0  0  0  0  0  0  0  0  0  0
    2.5935   -5.2305    9.5698 C   0  0  0  0  0  0  0  0  0  0  0  0
    1.9988   -5.8104   10.6311 F   0  0  0  0  0  0  0  0  0  0  0  0
    2.3903   -5.7704    8.3219 C   0  0  0  0  0  0  0  0  0  0  0  0
    3.8052   -6.0522    4.9746 C   0  0  0  0  0  0  0  0  0  0  0  0
    3.5834   -6.7527    3.7623 C   0  0  0  0  0  0  0  0  0  0  0  0
    2.2846   -7.1045    3.3628 C   0  0  0  0  0  0  0  0  0  0  0  0
    2.0349   -7.6302    2.0091 C   0  0  0  0  0  0  0  0  0  0  0  0
    2.4159   -6.8835    0.8978 C   0  0  0  0  0  0  0  0  0  0  0  0
    2.2487   -7.3667   -0.3849 C   0  0  0  0  0  0  0  0  0  0  0  0
    1.6808   -8.6166   -0.6012 C   0  0  0  0  0  0  0  0  0  0  0  0
    1.4632   -9.3878   -2.1689 S   0  0  0  0  0  0  0  0  0  0  0  0
    2.1718   -8.2031   -3.3655 C   0  0  0  0  0  0  0  0  0  0  0  0
    1.2071   -7.0815   -3.7070 C   0  0  0  0  0  0  0  0  0  0  0  0
    1.2585   -9.3327    0.5216 C   0  0  0  0  0  0  0  0  0  0  0  0
    1.4246   -8.8631    1.8066 C   0  0  0  0  0  0  0  0  0  0  0  0
    0.6811  -10.5368    0.3446 F   0  0  0  0  0  0  0  0  0  0  0  0
    1.2599   -6.6629    4.1804 C   0  0  0  0  0  0  0  0  0  0  0  0
   -0.3799   -6.4130    3.6288 S   0  0  0  0  0  0  0  0  0  0  0  0
    4.6979   -6.6881    2.8889 C   0  0  0  0  0  0  0  0  0  0  0  0
    5.6455   -5.7946    3.2999 C   0  0  0  0  0  0  0  0  0  0  0  0
    5.3903   -5.2997    4.9657 S   0  0  0  0  0  0  0  0  0  0  0  0
    6.2757   -4.9288    2.3405 C   0  0  0  0  0  0  0  0  0  0  0  0
    6.1114   -3.5729    2.3759 C   0  0  0  0  0  0  0  0  0  0  0  0
    6.0407   -2.9773    1.0898 C   0  0  0  0  0  0  0  0  0  0  0  0
    5.5016   -1.7188    0.7722 C   0  0  0  0  0  0  0  0  0  0  0  0
    4.8243   -0.8564    1.7497 C   0  0  0  0  0  0  0  0  0  0  0  0
    3.8722   -1.3946    2.6178 C   0  0  0  0  0  0  0  0  0  0  0  0
    3.0261   -0.5729    3.3304 C   0  0  0  0  0  0  0  0  0  0  0  0
    3.0866    0.8118    3.2039 C   0  0  0  0  0  0  0  0  0  0  0  0
    1.8382    1.7772    4.0052 S   0  0  0  0  0  0  0  0  0  0  0  0
    1.3749    2.9693    2.6940 C   0  0  0  0  0  0  0  0  0  0  0  0
    1.0016    2.2727    1.4014 C   0  0  0  0  0  0  0  0  0  0  0  0
    4.1107    1.3378    2.4215 C   0  0  0  0  0  0  0  0  0  0  0  0
    4.2856    2.6711    2.3231 F   0  0  0  0  0  0  0  0  0  0  0  0
    4.9594    0.5274    1.6945 C   0  0  0  0  0  0  0  0  0  0  0  0
    5.3582   -1.4237   -0.5790 C   0  0  0  0  0  0  0  0  0  0  0  0
    5.6598   -2.3523   -1.6033 C   0  0  0  0  0  0  0  0  0  0  0  0
    6.1085   -3.6451   -1.2818 C   0  0  0  0  0  0  0  0  0  0  0  0
    6.1548   -4.6905   -2.3117 C   0  0  0  0  0  0  0  0  0  0  0  0
    5.0502   -4.8862   -3.1397 C   0  0  0  0  0  0  0  0  0  0  0  0
    5.0632   -5.8404   -4.1355 C   0  0  0  0  0  0  0  0  0  0  0  0
    6.1842   -6.6360   -4.3449 C   0  0  0  0  0  0  0  0  0  0  0  0
    6.3113   -7.8625   -5.6029 S   0  0  0  0  0  0  0  0  0  0  0  0
    5.1139   -7.3082   -6.8713 C   0  0  0  0  0  0  0  0  0  0  0  0
    5.4901   -5.9759   -7.4890 C   0  0  0  0  0  0  0  0  0  0  0  0
    7.2633   -6.4652   -3.4755 C   0  0  0  0  0  0  0  0  0  0  0  0
    7.2619   -5.5178   -2.4737 C   0  0  0  0  0  0  0  0  0  0  0  0
    8.3534   -7.2396   -3.6258 F   0  0  0  0  0  0  0  0  0  0  0  0
    6.3110   -3.9158    0.0605 C   0  0  0  0  0  0  0  0  0  0  0  0
    6.6067   -5.5094    0.7169 S   0  0  0  0  0  0  0  0  0  0  0  0
    5.2711   -1.8757   -2.8783 C   0  0  0  0  0  0  0  0  0  0  0  0
    4.6246   -0.6763   -2.8426 C   0  0  0  0  0  0  0  0  0  0  0  0
    4.5685   -0.0052   -1.2274 S   0  0  0  0  0  0  0  0  0  0  0  0
    3.9120   -0.0850   -3.9247 C   0  0  0  0  0  0  0  0  0  0  0  0
    3.1002    1.0091   -3.9367 C   0  0  0  0  0  0  0  0  0  0  0  0
    2.3979    1.1838   -5.1586 C   0  0  0  0  0  0  0  0  0  0  0  0
    1.4251    2.1479   -5.4774 C   0  0  0  0  0  0  0  0  0  0  0  0
    0.8968    3.0878   -4.4819 C   0  0  0  0  0  0  0  0  0  0  0  0
    0.4539    2.6275   -3.2450 C   0  0  0  0  0  0  0  0  0  0  0  0
   -0.1538    3.4747   -2.3395 C   0  0  0  0  0  0  0  0  0  0  0  0
   -0.3336    4.8208   -2.6356 C   0  0  0  0  0  0  0  0  0  0  0  0
   -1.0946    6.0186   -1.5923 S   0  0  0  0  0  0  0  0  0  0  0  0
   -1.7747    5.0603   -0.2000 C   0  0  0  0  0  0  0  0  0  0  0  0
   -3.0055    4.2558   -0.5697 C   0  0  0  0  0  0  0  0  0  0  0  0
    0.1480    5.2765   -3.8655 C   0  0  0  0  0  0  0  0  0  0  0  0
    0.0188    6.5827   -4.1706 F   0  0  0  0  0  0  0  0  0  0  0  0
    0.7453    4.4408   -4.7809 C   0  0  0  0  0  0  0  0  0  0  0  0
    0.9088    2.1083   -6.7655 C   0  0  0  0  0  0  0  0  0  0  0  0
    1.2623    1.1166   -7.7133 C   0  0  0  0  0  0  0  0  0  0  0  0
    2.1729    0.1057   -7.3692 C   0  0  0  0  0  0  0  0  0  0  0  0
    2.4253   -1.0470   -8.2416 C   0  0  0  0  0  0  0  0  0  0  0  0
    1.3580   -1.7733   -8.7655 C   0  0  0  0  0  0  0  0  0  0  0  0
    1.5660   -2.9209   -9.5053 C   0  0  0  0  0  0  0  0  0  0  0  0
    2.8534   -3.3891   -9.7414 C   0  0  0  0  0  0  0  0  0  0  0  0
    3.2493   -4.8518  -10.6473 S   0  0  0  0  0  0  0  0  0  0  0  0
    1.7230   -5.8507  -10.5422 C   0  0  0  0  0  0  0  0  0  0  0  0
    1.4361   -6.3112   -9.1258 C   0  0  0  0  0  0  0  0  0  0  0  0
    3.9150   -2.6345   -9.2404 C   0  0  0  0  0  0  0  0  0  0  0  0
    3.7206   -1.4878   -8.5031 C   0  0  0  0  0  0  0  0  0  0  0  0
    5.1760   -3.0473   -9.4734 F   0  0  0  0  0  0  0  0  0  0  0  0
    2.7443    0.1921   -6.1100 C   0  0  0  0  0  0  0  0  0  0  0  0
    3.8805   -0.9525   -5.4514 S   0  0  0  0  0  0  0  0  0  0  0  0
    0.5911    1.2881   -8.9475 C   0  0  0  0  0  0  0  0  0  0  0  0
   -0.2909    2.3308   -8.9556 C   0  0  0  0  0  0  0  0  0  0  0  0
   -0.3033    3.1807   -7.4173 S   0  0  0  0  0  0  0  0  0  0  0  0
   -1.1334    2.7743  -10.0150 C   0  0  0  0  0  0  0  0  0  0  0  0
   -1.6902    4.4176  -10.0501 S   0  0  0  0  0  0  0  0  0  0  0  0
   -2.5195    4.1825  -11.5206 C   0  0  0  0  0  0  0  0  0  0  0  0
   -2.4044    2.8918  -11.9841 C   0  0  0  0  0  0  0  0  0  0  0  0
   -1.6147    2.0691  -11.1174 C   0  0  0  0  0  0  0  0  0  0  0  0
   -1.4594    0.6991  -11.4287 C   0  0  0  0  0  0  0  0  0  0  0  0
   -2.0127    0.1880  -12.5670 C   0  0  0  0  0  0  0  0  0  0  0  0
   -1.9234   -1.1060  -12.9667 O   0  0  0  0  0  0  0  0  0  0  0  0
   -1.1890   -2.0012  -12.1718 C   0  0  0  0  0  0  0  0  0  0  0  0
   -2.7713    1.0297  -13.4624 C   0  0  0  0  0  0  0  0  0  0  0  0
   -3.2471    0.3843  -14.5562 O   0  0  0  0  0  0  0  0  0  0  0  0
   -4.0082    1.1198  -15.4815 C   0  0  0  0  0  0  0  0  0  0  0  0
   -2.9681    2.3450  -13.1643 C   0  0  0  0  0  0  0  0  0  0  0  0
   -3.9803   11.8610    4.3736 H   0  0  0  0  0  0  0  0  0  0  0  0
   -2.2538   10.4026    3.0745 H   0  0  0  0  0  0  0  0  0  0  0  0
   -2.3681    8.9760    1.0367 H   0  0  0  0  0  0  0  0  0  0  0  0
   -0.4106    9.1328   -0.4396 H   0  0  0  0  0  0  0  0  0  0  0  0
    4.0555    6.9193   -0.9334 H   0  0  0  0  0  0  0  0  0  0  0  0
    3.6740    6.6760    0.7796 H   0  0  0  0  0  0  0  0  0  0  0  0
    1.7095    5.2354    0.0863 H   0  0  0  0  0  0  0  0  0  0  0  0
    3.2411    4.5750   -0.4883 H   0  0  0  0  0  0  0  0  0  0  0  0
    2.1783    5.4480   -1.6033 H   0  0  0  0  0  0  0  0  0  0  0  0
   -0.1001    6.4894    3.6874 H   0  0  0  0  0  0  0  0  0  0  0  0
   -4.7997    5.6294    7.3562 H   0  0  0  0  0  0  0  0  0  0  0  0
   -6.6306    5.2352    8.8992 H   0  0  0  0  0  0  0  0  0  0  0  0
   -9.7740    5.0053   10.7971 H   0  0  0  0  0  0  0  0  0  0  0  0
   -8.3131    4.4694    9.9561 H   0  0  0  0  0  0  0  0  0  0  0  0
   -7.1392    6.5745   10.7828 H   0  0  0  0  0  0  0  0  0  0  0  0
   -8.6206    7.0358   11.6177 H   0  0  0  0  0  0  0  0  0  0  0  0
   -7.7352    5.5960   12.1312 H   0  0  0  0  0  0  0  0  0  0  0  0
   -7.3196    8.1559    4.9869 H   0  0  0  0  0  0  0  0  0  0  0  0
   -5.1124    4.2552    5.3743 H   0  0  0  0  0  0  0  0  0  0  0  0
   -4.1995    1.8432    5.9682 H   0  0  0  0  0  0  0  0  0  0  0  0
   -2.6898    0.9051    7.6007 H   0  0  0  0  0  0  0  0  0  0  0  0
   -3.6903    1.1479    9.8003 H   0  0  0  0  0  0  0  0  0  0  0  0
   -4.4124    1.3827   11.7797 H   0  0  0  0  0  0  0  0  0  0  0  0
   -5.8705    1.2366   12.7688 H   0  0  0  0  0  0  0  0  0  0  0  0
   -7.2607    2.1769   10.9514 H   0  0  0  0  0  0  0  0  0  0  0  0
   -5.8491    2.3156    9.8997 H   0  0  0  0  0  0  0  0  0  0  0  0
   -5.9635    3.3102   11.3599 H   0  0  0  0  0  0  0  0  0  0  0  0
   -5.1841   -2.4891    6.8259 H   0  0  0  0  0  0  0  0  0  0  0  0
    0.4359   -1.9825    2.6980 H   0  0  0  0  0  0  0  0  0  0  0  0
    1.7594   -1.8902    0.6294 H   0  0  0  0  0  0  0  0  0  0  0  0
    0.8809   -1.3707   -4.1955 H   0  0  0  0  0  0  0  0  0  0  0  0
   -0.6255   -0.8477   -3.4230 H   0  0  0  0  0  0  0  0  0  0  0  0
   -0.7664   -3.0622   -2.2356 H   0  0  0  0  0  0  0  0  0  0  0  0
   -0.7093   -3.2966   -3.9859 H   0  0  0  0  0  0  0  0  0  0  0  0
    0.7407   -3.5650   -3.0089 H   0  0  0  0  0  0  0  0  0  0  0  0
   -2.8493   -0.1619    0.6384 H   0  0  0  0  0  0  0  0  0  0  0  0
   -1.1358   -3.7867    2.8121 H   0  0  0  0  0  0  0  0  0  0  0  0
    0.3111   -4.7834    6.8042 H   0  0  0  0  0  0  0  0  0  0  0  0
    4.2530   -3.5798    6.5518 H   0  0  0  0  0  0  0  0  0  0  0  0
    4.5972   -2.6463    8.7563 H   0  0  0  0  0  0  0  0  0  0  0  0
    4.2781   -1.3727   10.6540 H   0  0  0  0  0  0  0  0  0  0  0  0
    5.6487   -2.5109   10.8183 H   0  0  0  0  0  0  0  0  0  0  0  0
    4.1007   -1.2489   13.1403 H   0  0  0  0  0  0  0  0  0  0  0  0
    5.4570   -2.3660   13.2998 H   0  0  0  0  0  0  0  0  0  0  0  0
    5.7144   -0.7590   12.6084 H   0  0  0  0  0  0  0  0  0  0  0  0
    1.7698   -6.6472    8.2208 H   0  0  0  0  0  0  0  0  0  0  0  0
    2.8452   -5.9017    1.0362 H   0  0  0  0  0  0  0  0  0  0  0  0
    2.5803   -6.7598   -1.2114 H   0  0  0  0  0  0  0  0  0  0  0  0
    2.3738   -8.8179   -4.2430 H   0  0  0  0  0  0  0  0  0  0  0  0
    3.1204   -7.8389   -2.9724 H   0  0  0  0  0  0  0  0  0  0  0  0
    0.9399   -6.5091   -2.8216 H   0  0  0  0  0  0  0  0  0  0  0  0
    1.6557   -6.4062   -4.4341 H   0  0  0  0  0  0  0  0  0  0  0  0
    0.2942   -7.4911   -4.1329 H   0  0  0  0  0  0  0  0  0  0  0  0
    1.0973   -9.4675    2.6378 H   0  0  0  0  0  0  0  0  0  0  0  0
    4.7062   -7.1346    1.9115 H   0  0  0  0  0  0  0  0  0  0  0  0
    5.9254   -3.0360    3.2886 H   0  0  0  0  0  0  0  0  0  0  0  0
    3.7485   -2.4654    2.6826 H   0  0  0  0  0  0  0  0  0  0  0  0
    2.2685   -0.9923    3.9743 H   0  0  0  0  0  0  0  0  0  0  0  0
    0.5155    3.4909    3.1160 H   0  0  0  0  0  0  0  0  0  0  0  0
    2.1899    3.6776    2.5587 H   0  0  0  0  0  0  0  0  0  0  0  0
    0.7173    3.0159    0.6601 H   0  0  0  0  0  0  0  0  0  0  0  0
    0.1656    1.5935    1.5580 H   0  0  0  0  0  0  0  0  0  0  0  0
    1.8375    1.7029    0.9986 H   0  0  0  0  0  0  0  0  0  0  0  0
    5.7203    0.9888    1.0847 H   0  0  0  0  0  0  0  0  0  0  0  0
    4.1616   -4.2909   -2.9900 H   0  0  0  0  0  0  0  0  0  0  0  0
    4.1898   -5.9636   -4.7559 H   0  0  0  0  0  0  0  0  0  0  0  0
    5.1594   -8.1057   -7.6131 H   0  0  0  0  0  0  0  0  0  0  0  0
    4.1155   -7.2994   -6.4331 H   0  0  0  0  0  0  0  0  0  0  0  0
    6.4994   -6.0180   -7.8901 H   0  0  0  0  0  0  0  0  0  0  0  0
    4.8112   -5.7375   -8.3050 H   0  0  0  0  0  0  0  0  0  0  0  0
    5.4460   -5.1732   -6.7559 H   0  0  0  0  0  0  0  0  0  0  0  0
    8.1335   -5.4130   -1.8472 H   0  0  0  0  0  0  0  0  0  0  0  0
    5.4337   -2.4185   -3.7923 H   0  0  0  0  0  0  0  0  0  0  0  0
    2.9991    1.6648   -3.0907 H   0  0  0  0  0  0  0  0  0  0  0  0
    0.5561    1.5832   -2.9965 H   0  0  0  0  0  0  0  0  0  0  0  0
   -0.4981    3.0674   -1.4033 H   0  0  0  0  0  0  0  0  0  0  0  0
   -0.9867    4.4368    0.2199 H   0  0  0  0  0  0  0  0  0  0  0  0
   -2.0226    5.8313    0.5295 H   0  0  0  0  0  0  0  0  0  0  0  0
   -3.3746    3.7357    0.3126 H   0  0  0  0  0  0  0  0  0  0  0  0
   -3.7869    4.9140   -0.9418 H   0  0  0  0  0  0  0  0  0  0  0  0
   -2.7821    3.5194   -1.3382 H   0  0  0  0  0  0  0  0  0  0  0  0
    1.0977    4.8526   -5.7131 H   0  0  0  0  0  0  0  0  0  0  0  0
    0.3475   -1.4502   -8.5630 H   0  0  0  0  0  0  0  0  0  0  0  0
    0.7130   -3.4550   -9.8932 H   0  0  0  0  0  0  0  0  0  0  0  0
    1.9308   -6.7000  -11.1926 H   0  0  0  0  0  0  0  0  0  0  0  0
    0.8982   -5.2818  -10.9695 H   0  0  0  0  0  0  0  0  0  0  0  0
    1.2894   -5.4606   -8.4627 H   0  0  0  0  0  0  0  0  0  0  0  0
    0.5368   -6.9237   -9.1106 H   0  0  0  0  0  0  0  0  0  0  0  0
    2.2668   -6.9039   -8.7491 H   0  0  0  0  0  0  0  0  0  0  0  0
    4.5798   -0.9445   -8.1437 H   0  0  0  0  0  0  0  0  0  0  0  0
    0.8188    0.6946   -9.8125 H   0  0  0  0  0  0  0  0  0  0  0  0
   -3.0455    4.9999  -11.9716 H   0  0  0  0  0  0  0  0  0  0  0  0
   -0.9231    0.0658  -10.7448 H   0  0  0  0  0  0  0  0  0  0  0  0
   -1.2354   -2.9577  -12.6905 H   0  0  0  0  0  0  0  0  0  0  0  0
   -1.6293   -2.1066  -11.1739 H   0  0  0  0  0  0  0  0  0  0  0  0
   -0.1427   -1.6904  -12.0745 H   0  0  0  0  0  0  0  0  0  0  0  0
   -4.2757    0.4164  -16.2681 H   0  0  0  0  0  0  0  0  0  0  0  0
   -3.4297    1.9438  -15.9119 H   0  0  0  0  0  0  0  0  0  0  0  0
   -4.9202    1.5178  -15.0245 H   0  0  0  0  0  0  0  0  0  0  0  0
   -3.5472    2.9940  -13.8002 H   0  0  0  0  0  0  0  0  0  0  0  0
  1  2  2  0  0  0  0
  2  3  1  0  0  0  0
  3  4  2  0  0  0  0
  4  5  1  0  0  0  0
  5  6  2  0  0  0  0
  6  7  1  0  0  0  0
  7  8  2  0  0  0  0
  8  9  1  0  0  0  0
  9 10  1  0  0  0  0
 10 11  1  0  0  0  0
  8 12  1  0  0  0  0
 12 13  1  0  0  0  0
 12 14  2  0  0  0  0
  4 15  1  0  0  0  0
 15 16  2  0  0  0  0
 16 17  1  0  0  0  0
 17 18  1  0  0  0  0
 18 19  2  0  0  0  0
 19 20  1  0  0  0  0
 20 21  2  0  0  0  0
 21 22  1  0  0  0  0
 22 23  1  0  0  0  0
 23 24  1  0  0  0  0
 21 25  1  0  0  0  0
 25 26  2  0  0  0  0
 25 27  1  0  0  0  0
 17 28  2  0  0  0  0
 28 29  1  0  0  0  0
 16 30  1  0  0  0  0
 30 31  2  0  0  0  0
 31 32  1  0  0  0  0
 31 33  1  0  0  0  0
 33 34  2  0  0  0  0
 34 35  1  0  0  0  0
 35 36  2  0  0  0  0
 36 37  1  0  0  0  0
 37 38  2  0  0  0  0
 38 39  1  0  0  0  0
 39 40  2  0  0  0  0
 40 41  1  0  0  0  0
 41 42  1  0  0  0  0
 42 43  1  0  0  0  0
 40 44  1  0  0  0  0
 44 45  1  0  0  0  0
 44 46  2  0  0  0  0
 36 47  1  0  0  0  0
 47 48  2  0  0  0  0
 48 49  1  0  0  0  0
 49 50  1  0  0  0  0
 50 51  2  0  0  0  0
 51 52  1  0  0  0  0
 52 53  2  0  0  0  0
 53 54  1  0  0  0  0
 54 55  1  0  0  0  0
 55 56  1  0  0  0  0
 53 57  1  0  0  0  0
 57 58  2  0  0  0  0
 57 59  1  0  0  0  0
 49 60  2  0  0  0  0
 60 61  1  0  0  0  0
 48 62  1  0  0  0  0
 62 63  2  0  0  0  0
 63 64  1  0  0  0  0
 63 65  1  0  0  0  0
 65 66  2  0  0  0  0
 66 67  1  0  0  0  0
 67 68  2  0  0  0  0
 68 69  1  0  0  0  0
 69 70  2  0  0  0  0
 70 71  1  0  0  0  0
 71 72  2  0  0  0  0
 72 73  1  0  0  0  0
 73 74  1  0  0  0  0
 74 75  1  0  0  0  0
 72 76  1  0  0  0  0
 76 77  1  0  0  0  0
 76 78  2  0  0  0  0
 68 79  1  0  0  0  0
 79 80  2  0  0  0  0
 80 81  1  0  0  0  0
 81 82  1  0  0  0  0
 82 83  2  0  0  0  0
 83 84  1  0  0  0  0
 84 85  2  0  0  0  0
 85 86  1  0  0  0  0
 86 87  1  0  0  0  0
 87 88  1  0  0  0  0
 85 89  1  0  0  0  0
 89 90  2  0  0  0  0
 89 91  1  0  0  0  0
 81 92  2  0  0  0  0
 92 93  1  0  0  0  0
 80 94  1  0  0  0  0
 94 95  2  0  0  0  0
 95 96  1  0  0  0  0
 95 97  1  0  0  0  0
 97 98  2  0  0  0  0
 98 99  1  0  0  0  0
 99100  2  0  0  0  0
100101  1  0  0  0  0
101102  2  0  0  0  0
102103  1  0  0  0  0
103104  2  0  0  0  0
104105  1  0  0  0  0
105106  1  0  0  0  0
106107  1  0  0  0  0
104108  1  0  0  0  0
108109  1  0  0  0  0
108110  2  0  0  0  0
100111  1  0  0  0  0
111112  2  0  0  0  0
112113  1  0  0  0  0
113114  1  0  0  0  0
114115  2  0  0  0  0
115116  1  0  0  0  0
116117  2  0  0  0  0
117118  1  0  0  0  0
118119  1  0  0  0  0
119120  1  0  0  0  0
117121  1  0  0  0  0
121122  2  0  0  0  0
121123  1  0  0  0  0
113124  2  0  0  0  0
124125  1  0  0  0  0
112126  1  0  0  0  0
126127  2  0  0  0  0
127128  1  0  0  0  0
127129  1  0  0  0  0
129130  2  0  0  0  0
130131  1  0  0  0  0
131132  2  0  0  0  0
132133  1  0  0  0  0
133134  2  0  0  0  0
134135  1  0  0  0  0
135136  2  0  0  0  0
136137  1  0  0  0  0
137138  1  0  0  0  0
138139  1  0  0  0  0
136140  1  0  0  0  0
140141  1  0  0  0  0
140142  2  0  0  0  0
132143  1  0  0  0  0
143144  2  0  0  0  0
144145  1  0  0  0  0
145146  1  0  0  0  0
146147  2  0  0  0  0
147148  1  0  0  0  0
148149  2  0  0  0  0
149150  1  0  0  0  0
150151  1  0  0  0  0
151152  1  0  0  0  0
149153  1  0  0  0  0
153154  2  0  0  0  0
153155  1  0  0  0  0
145156  2  0  0  0  0
156157  1  0  0  0  0
144158  1  0  0  0  0
158159  2  0  0  0  0
159160  1  0  0  0  0
159161  1  0  0  0  0
161162  1  0  0  0  0
162163  1  0  0  0  0
163164  2  0  0  0  0
164165  1  0  0  0  0
165166  1  0  0  0  0
166167  2  0  0  0  0
167168  1  0  0  0  0
168169  1  0  0  0  0
167170  1  0  0  0  0
170171  1  0  0  0  0
171172  1  0  0  0  0
170173  2  0  0  0  0
 29  1  1  0  0  0  0
 61 33  1  0  0  0  0
 93 65  1  0  0  0  0
125 97  1  0  0  0  0
157129  1  0  0  0  0
165161  2  0  0  0  0
 28  3  1  0  0  0  0
 60 35  1  0  0  0  0
 92 67  1  0  0  0  0
124 99  1  0  0  0  0
156131  1  0  0  0  0
173164  1  0  0  0  0
 14  5  1  0  0  0  0
 32 15  1  0  0  0  0
 46 37  1  0  0  0  0
 64 47  1  0  0  0  0
 78 69  1  0  0  0  0
 96 79  1  0  0  0  0
110101  1  0  0  0  0
128111  1  0  0  0  0
142133  1  0  0  0  0
160143  1  0  0  0  0
 26 18  1  0  0  0  0
 58 50  1  0  0  0  0
 90 82  1  0  0  0  0
122114  1  0  0  0  0
154146  1  0  0  0  0
  1174  1  0  0  0  0
  2175  1  0  0  0  0
  6176  1  0  0  0  0
  7177  1  0  0  0  0
 10178  1  0  0  0  0
 10179  1  0  0  0  0
 11180  1  0  0  0  0
 11181  1  0  0  0  0
 11182  1  0  0  0  0
 14183  1  0  0  0  0
 19184  1  0  0  0  0
 20185  1  0  0  0  0
 23186  1  0  0  0  0
 23187  1  0  0  0  0
 24188  1  0  0  0  0
 24189  1  0  0  0  0
 24190  1  0  0  0  0
 26191  1  0  0  0  0
 30192  1  0  0  0  0
 34193  1  0  0  0  0
 38194  1  0  0  0  0
 39195  1  0  0  0  0
 42196  1  0  0  0  0
 42197  1  0  0  0  0
 43198  1  0  0  0  0
 43199  1  0  0  0  0
 43200  1  0  0  0  0
 46201  1  0  0  0  0
 51202  1  0  0  0  0
 52203  1  0  0  0  0
 55204  1  0  0  0  0
 55205  1  0  0  0  0
 56206  1  0  0  0  0
 56207  1  0  0  0  0
 56208  1  0  0  0  0
 58209  1  0  0  0  0
 62210  1  0  0  0  0
 66211  1  0  0  0  0
 70212  1  0  0  0  0
 71213  1  0  0  0  0
 74214  1  0  0  0  0
 74215  1  0  0  0  0
 75216  1  0  0  0  0
 75217  1  0  0  0  0
 75218  1  0  0  0  0
 78219  1  0  0  0  0
 83220  1  0  0  0  0
 84221  1  0  0  0  0
 87222  1  0  0  0  0
 87223  1  0  0  0  0
 88224  1  0  0  0  0
 88225  1  0  0  0  0
 88226  1  0  0  0  0
 90227  1  0  0  0  0
 94228  1  0  0  0  0
 98229  1  0  0  0  0
102230  1  0  0  0  0
103231  1  0  0  0  0
106232  1  0  0  0  0
106233  1  0  0  0  0
107234  1  0  0  0  0
107235  1  0  0  0  0
107236  1  0  0  0  0
110237  1  0  0  0  0
115238  1  0  0  0  0
116239  1  0  0  0  0
119240  1  0  0  0  0
119241  1  0  0  0  0
120242  1  0  0  0  0
120243  1  0  0  0  0
120244  1  0  0  0  0
122245  1  0  0  0  0
126246  1  0  0  0  0
130247  1  0  0  0  0
134248  1  0  0  0  0
135249  1  0  0  0  0
138250  1  0  0  0  0
138251  1  0  0  0  0
139252  1  0  0  0  0
139253  1  0  0  0  0
139254  1  0  0  0  0
142255  1  0  0  0  0
147256  1  0  0  0  0
148257  1  0  0  0  0
151258  1  0  0  0  0
151259  1  0  0  0  0
152260  1  0  0  0  0
152261  1  0  0  0  0
152262  1  0  0  0  0
154263  1  0  0  0  0
158264  1  0  0  0  0
163265  1  0  0  0  0
166266  1  0  0  0  0
169267  1  0  0  0  0
169268  1  0  0  0  0
169269  1  0  0  0  0
172270  1  0  0  0  0
172271  1  0  0  0  0
172272  1  0  0  0  0
173273  1  0  0  0  0
M  END
