76

C          0.14720       -4.49390        8.85190
C         -1.10840       -4.73800        8.31600
N         -1.46770       -4.28290        7.12940
C         -0.56640       -3.56750        6.43860
C          0.70780       -3.33770        6.99490
N          1.05300       -3.79090        8.17830
C         -0.93180       -3.05650        5.15140
S          0.18070       -2.07810        4.24950
C         -0.93830       -1.85260        2.94670
C         -2.11970       -2.55980        3.18200
C         -2.12250       -3.22890        4.44200
C         -3.25210       -3.98030        4.83060
C         -4.32070       -4.08940        3.98530
O         -5.45650       -4.77830        4.24580
C         -5.55400       -5.45230        5.47740
C         -4.29060       -3.46760        2.68410
O         -5.39460       -3.69300        1.92930
C         -5.43250       -3.16420        0.62710
C         -3.20860       -2.72930        2.29730
C         -0.60060       -1.04340        1.82720
S          0.99310       -1.08450        1.15120
C          0.57350        0.01460       -0.12630
C         -0.75720        0.42740       -0.00180
C         -1.41680       -0.15790        1.11830
C         -2.73110        0.24460        1.44630
C         -3.39110        1.13030        0.64250
O         -4.65240        1.58490        0.84830
C         -5.33540        1.15870        2.00100
C         -2.74810        1.66620       -0.53160
O         -3.52000        2.51380       -1.25020
C         -2.96120        3.10930       -2.39670
C         -1.45560        1.33100       -0.82870
C          1.53330        0.36250       -1.12220
C          2.85990       -0.12190       -1.08870
N          3.74820        0.18820       -1.99500
C          3.37120        0.99590       -2.99610
C          2.05540        1.46740       -3.04700
N          1.15760        1.16400       -2.13460
C          4.36070        1.32520       -4.01670
C          4.30820        2.51090       -4.76490
N          5.18070        2.78070       -5.71020
C          6.14840        1.89180       -5.93950
C          6.22360        0.72440       -5.17000
N          5.34260        0.44730       -4.23420
C          7.10210        2.18240       -7.01370
C          8.44520        1.79320       -6.93960
N          9.28650        2.00830       -7.93360
C          8.82060        2.63650       -9.00290
C          7.50370        3.07810       -9.05940
N          6.65170        2.84070       -8.08060
H          0.44400       -4.85720        9.82490
H         -1.85610       -5.31250        8.84740
H          1.45720       -2.77160        6.45670
H         -3.22380       -4.45650        5.79460
H         -6.52740       -5.93980        5.46930
H         -5.50010       -4.75580        6.31980
H         -4.76810       -6.20660        5.58320
H         -4.62640       -3.56740        0.00580
H         -5.36830       -2.07050        0.63060
H         -6.39330       -3.46690        0.21470
H         -3.15120       -2.28580        1.31770
H         -3.18030       -0.14390        2.34450
H         -5.47560        0.07220        2.01230
H         -6.30780        1.64640        1.96380
H         -4.81120        1.46080        2.91330
H         -2.09040        3.72210       -2.14430
H         -3.74430        3.74270       -2.80980
H         -2.67010        2.35700       -3.13640
H         -0.93210        1.73630       -1.67620
H          3.19200       -0.77470       -0.29140
H          1.70220        2.08790       -3.86040
H          3.56050        3.27100       -4.58360
H          6.99260       -0.01920       -5.33150
H          8.85610        1.31330       -6.06190
H          9.51850        2.78680       -9.81450
H          7.11530        3.62260       -9.90920
