
  xtb     03022223343D
 energy: -212.992154150224 gnorm: 0.000844355725 xtb: 6.4.1 (unknown)
118129  0     0  0            999 V2000
    3.4272    1.2640    5.0916 C   0  0  0  0  0  0  0  0  0  0  0  0
    2.5389    0.6628    3.7677 S   0  0  0  0  0  0  0  0  0  0  0  0
    2.0937    2.2522    3.2365 C   0  0  0  0  0  0  0  0  0  0  0  0
    2.6321    3.2167    4.0978 C   0  0  0  0  0  0  0  0  0  0  0  0
    3.4174    2.6394    5.1542 C   0  0  0  0  0  0  0  0  0  0  0  0
    4.0581    3.4877    6.0967 C   0  0  0  0  0  0  0  0  0  0  0  0
    5.0438    2.8375    7.4186 S   0  0  0  0  0  0  0  0  0  0  0  0
    3.8875    4.8394    6.0057 C   0  0  0  0  0  0  0  0  0  0  0  0
    3.1127    5.4035    4.9796 C   0  0  0  0  0  0  0  0  0  0  0  0
    2.5011    4.6282    4.0269 C   0  0  0  0  0  0  0  0  0  0  0  0
    1.7708    5.1794    3.0209 O   0  0  0  0  0  0  0  0  0  0  0  0
    1.2113    2.4840    2.1481 C   0  0  0  0  0  0  0  0  0  0  0  0
    0.8459    1.6405    1.1523 C   0  0  0  0  0  0  0  0  0  0  0  0
    1.3034    0.3194    0.8544 C   0  0  0  0  0  0  0  0  0  0  0  0
    0.0737   -0.8190    0.4233 S   0  0  0  0  0  0  0  0  0  0  0  0
    1.1622   -2.1770    0.4313 C   0  0  0  0  0  0  0  0  0  0  0  0
    2.4800   -1.7295    0.6669 C   0  0  0  0  0  0  0  0  0  0  0  0
    2.5576   -0.3005    0.8529 C   0  0  0  0  0  0  0  0  0  0  0  0
    3.8301    0.3225    0.9425 C   0  0  0  0  0  0  0  0  0  0  0  0
    4.1029    2.0692    0.8575 S   0  0  0  0  0  0  0  0  0  0  0  0
    4.9562   -0.4556    1.0339 C   0  0  0  0  0  0  0  0  0  0  0  0
    4.8765   -1.8447    0.9566 C   0  0  0  0  0  0  0  0  0  0  0  0
    3.6803   -2.4816    0.7223 C   0  0  0  0  0  0  0  0  0  0  0  0
    3.6537   -3.8244    0.5229 O   0  0  0  0  0  0  0  0  0  0  0  0
    0.5038   -3.4069    0.2101 C   0  0  0  0  0  0  0  0  0  0  0  0
    0.9431   -4.6938    0.2910 C   0  0  0  0  0  0  0  0  0  0  0  0
    0.0968   -5.7969    0.0370 C   0  0  0  0  0  0  0  0  0  0  0  0
   -1.6200   -5.5486    0.0310 S   0  0  0  0  0  0  0  0  0  0  0  0
   -1.9785   -7.2073   -0.2946 C   0  0  0  0  0  0  0  0  0  0  0  0
   -0.7871   -7.9514   -0.3649 C   0  0  0  0  0  0  0  0  0  0  0  0
    0.3957   -7.1494   -0.2120 C   0  0  0  0  0  0  0  0  0  0  0  0
    1.6585   -7.7710   -0.3690 C   0  0  0  0  0  0  0  0  0  0  0  0
    3.2135   -6.9070   -0.3694 S   0  0  0  0  0  0  0  0  0  0  0  0
    1.7342   -9.1295   -0.5373 C   0  0  0  0  0  0  0  0  0  0  0  0
    0.5834   -9.9188   -0.6035 C   0  0  0  0  0  0  0  0  0  0  0  0
   -0.6662   -9.3532   -0.5514 C   0  0  0  0  0  0  0  0  0  0  0  0
   -1.7863  -10.1187   -0.6675 O   0  0  0  0  0  0  0  0  0  0  0  0
   -3.3076   -7.6932   -0.3993 C   0  0  0  0  0  0  0  0  0  0  0  0
   -4.4624   -6.9853   -0.3508 C   0  0  0  0  0  0  0  0  0  0  0  0
   -4.5898   -5.5459   -0.3767 C   0  0  0  0  0  0  0  0  0  0  0  0
   -3.9387   -4.6574   -1.7111 S   0  0  0  0  0  0  0  0  0  0  0  0
   -4.3877   -3.1205   -1.0367 C   0  0  0  0  0  0  0  0  0  0  0  0
   -5.1644   -3.3099    0.1159 C   0  0  0  0  0  0  0  0  0  0  0  0
   -5.2513   -4.6942    0.5043 C   0  0  0  0  0  0  0  0  0  0  0  0
   -5.9244   -5.0283    1.7101 C   0  0  0  0  0  0  0  0  0  0  0  0
   -5.9802   -6.6677    2.3775 S   0  0  0  0  0  0  0  0  0  0  0  0
   -6.5987   -4.0557    2.3980 C   0  0  0  0  0  0  0  0  0  0  0  0
   -6.6279   -2.7326    1.9415 C   0  0  0  0  0  0  0  0  0  0  0  0
   -5.9196   -2.3452    0.8318 C   0  0  0  0  0  0  0  0  0  0  0  0
   -5.9647   -1.0605    0.3821 O   0  0  0  0  0  0  0  0  0  0  0  0
   -3.8131   -1.9824   -1.6471 C   0  0  0  0  0  0  0  0  0  0  0  0
   -3.5280   -0.8014   -1.0378 C   0  0  0  0  0  0  0  0  0  0  0  0
   -2.8355    0.2626   -1.6448 C   0  0  0  0  0  0  0  0  0  0  0  0
   -2.3007    0.1981   -3.2990 S   0  0  0  0  0  0  0  0  0  0  0  0
   -1.4961    1.7366   -3.1898 C   0  0  0  0  0  0  0  0  0  0  0  0
   -1.6870    2.3042   -1.9262 C   0  0  0  0  0  0  0  0  0  0  0  0
   -2.4337    1.4673   -1.0499 C   0  0  0  0  0  0  0  0  0  0  0  0
   -2.6892    1.8992    0.2681 C   0  0  0  0  0  0  0  0  0  0  0  0
   -2.2265    3.1153    0.6918 C   0  0  0  0  0  0  0  0  0  0  0  0
   -2.3772    3.6228    1.9412 O   0  0  0  0  0  0  0  0  0  0  0  0
   -2.9722    2.8095    2.9200 C   0  0  0  0  0  0  0  0  0  0  0  0
   -1.5012    3.9752   -0.2088 C   0  0  0  0  0  0  0  0  0  0  0  0
   -1.1072    5.1518    0.3382 O   0  0  0  0  0  0  0  0  0  0  0  0
   -0.2891    5.9957   -0.4324 C   0  0  0  0  0  0  0  0  0  0  0  0
   -1.2465    3.5729   -1.4895 C   0  0  0  0  0  0  0  0  0  0  0  0
   -0.8791    2.3279   -4.3326 C   0  0  0  0  0  0  0  0  0  0  0  0
   -1.7453    2.3273   -5.8349 S   0  0  0  0  0  0  0  0  0  0  0  0
   -0.6314    3.4110   -6.5906 C   0  0  0  0  0  0  0  0  0  0  0  0
    0.4268    3.7048   -5.7345 C   0  0  0  0  0  0  0  0  0  0  0  0
    0.3080    3.0535   -4.4517 C   0  0  0  0  0  0  0  0  0  0  0  0
    1.4012    3.1195   -3.5474 C   0  0  0  0  0  0  0  0  0  0  0  0
    1.5226    2.1462   -2.0691 S   0  0  0  0  0  0  0  0  0  0  0  0
    2.4791    3.9092   -3.8419 C   0  0  0  0  0  0  0  0  0  0  0  0
    2.5608    4.6036   -5.0563 C   0  0  0  0  0  0  0  0  0  0  0  0
    1.5911    4.4763   -6.0156 C   0  0  0  0  0  0  0  0  0  0  0  0
    1.7307    5.0437   -7.2416 O   0  0  0  0  0  0  0  0  0  0  0  0
   -0.9815    3.8487   -7.9194 C   0  0  0  0  0  0  0  0  0  0  0  0
   -0.8211    5.0690   -8.4211 C   0  0  0  0  0  0  0  0  0  0  0  0
    3.8942    0.5669    5.7590 H   0  0  0  0  0  0  0  0  0  0  0  0
    5.4321    1.7326    6.7869 H   0  0  0  0  0  0  0  0  0  0  0  0
    4.3622    5.4876    6.7257 H   0  0  0  0  0  0  0  0  0  0  0  0
    3.0118    6.4796    4.9366 H   0  0  0  0  0  0  0  0  0  0  0  0
    1.7738    6.1403    3.1125 H   0  0  0  0  0  0  0  0  0  0  0  0
    0.7562    3.4639    2.1460 H   0  0  0  0  0  0  0  0  0  0  0  0
    0.0185    1.9600    0.5335 H   0  0  0  0  0  0  0  0  0  0  0  0
    2.9683    2.3748    0.2374 H   0  0  0  0  0  0  0  0  0  0  0  0
    5.9199    0.0202    1.1269 H   0  0  0  0  0  0  0  0  0  0  0  0
    5.7837   -2.4302    1.0194 H   0  0  0  0  0  0  0  0  0  0  0  0
    4.5462   -4.1856    0.6023 H   0  0  0  0  0  0  0  0  0  0  0  0
   -0.5401   -3.2707   -0.0613 H   0  0  0  0  0  0  0  0  0  0  0  0
    1.9581   -4.8967    0.5772 H   0  0  0  0  0  0  0  0  0  0  0  0
    2.8182   -5.8715   -1.1062 H   0  0  0  0  0  0  0  0  0  0  0  0
    2.7026   -9.5947   -0.6360 H   0  0  0  0  0  0  0  0  0  0  0  0
    0.6834  -10.9880   -0.7321 H   0  0  0  0  0  0  0  0  0  0  0  0
   -1.5288  -11.0421   -0.7846 H   0  0  0  0  0  0  0  0  0  0  0  0
   -3.3887   -8.7670   -0.4650 H   0  0  0  0  0  0  0  0  0  0  0  0
   -5.3933   -7.5409   -0.3409 H   0  0  0  0  0  0  0  0  0  0  0  0
   -4.8592   -7.0941    1.7923 H   0  0  0  0  0  0  0  0  0  0  0  0
   -7.1297   -4.3175    3.2998 H   0  0  0  0  0  0  0  0  0  0  0  0
   -7.2161   -2.0037    2.4825 H   0  0  0  0  0  0  0  0  0  0  0  0
   -6.5991   -0.5619    0.9122 H   0  0  0  0  0  0  0  0  0  0  0  0
   -3.4589   -2.1332   -2.6609 H   0  0  0  0  0  0  0  0  0  0  0  0
   -3.8020   -0.6583   -0.0061 H   0  0  0  0  0  0  0  0  0  0  0  0
   -3.2413    1.2523    0.9279 H   0  0  0  0  0  0  0  0  0  0  0  0
   -2.4208    1.8722    3.0491 H   0  0  0  0  0  0  0  0  0  0  0  0
   -2.9318    3.3830    3.8444 H   0  0  0  0  0  0  0  0  0  0  0  0
   -4.0170    2.5867    2.6781 H   0  0  0  0  0  0  0  0  0  0  0  0
    0.6341    5.4897   -0.7335 H   0  0  0  0  0  0  0  0  0  0  0  0
   -0.8104    6.3597   -1.3241 H   0  0  0  0  0  0  0  0  0  0  0  0
   -0.0467    6.8391    0.2116 H   0  0  0  0  0  0  0  0  0  0  0  0
   -0.7136    4.2022   -2.1825 H   0  0  0  0  0  0  0  0  0  0  0  0
    0.6148    1.2349   -2.4054 H   0  0  0  0  0  0  0  0  0  0  0  0
    3.3027    3.9596   -3.1467 H   0  0  0  0  0  0  0  0  0  0  0  0
    3.4416    5.1969   -5.2607 H   0  0  0  0  0  0  0  0  0  0  0  0
    2.5928    5.4752   -7.2967 H   0  0  0  0  0  0  0  0  0  0  0  0
   -1.5043    3.0992   -8.5028 H   0  0  0  0  0  0  0  0  0  0  0  0
   -0.3623    5.8637   -7.8627 H   0  0  0  0  0  0  0  0  0  0  0  0
   -1.1454    5.3016   -9.4201 H   0  0  0  0  0  0  0  0  0  0  0  0
  1  2  1  0  0  0  0
  2  3  1  0  0  0  0
  3  4  2  0  0  0  0
  4  5  1  0  0  0  0
  5  6  1  0  0  0  0
  6  7  1  0  0  0  0
  6  8  2  0  0  0  0
  8  9  1  0  0  0  0
  9 10  2  0  0  0  0
 10 11  1  0  0  0  0
  3 12  1  0  0  0  0
 12 13  2  0  0  0  0
 13 14  1  0  0  0  0
 14 15  1  0  0  0  0
 15 16  1  0  0  0  0
 16 17  2  0  0  0  0
 17 18  1  0  0  0  0
 18 19  1  0  0  0  0
 19 20  1  0  0  0  0
 19 21  2  0  0  0  0
 21 22  1  0  0  0  0
 22 23  2  0  0  0  0
 23 24  1  0  0  0  0
 16 25  1  0  0  0  0
 25 26  2  0  0  0  0
 26 27  1  0  0  0  0
 27 28  1  0  0  0  0
 28 29  1  0  0  0  0
 29 30  2  0  0  0  0
 30 31  1  0  0  0  0
 31 32  1  0  0  0  0
 32 33  1  0  0  0  0
 32 34  2  0  0  0  0
 34 35  1  0  0  0  0
 35 36  2  0  0  0  0
 36 37  1  0  0  0  0
 29 38  1  0  0  0  0
 38 39  2  0  0  0  0
 39 40  1  0  0  0  0
 40 41  1  0  0  0  0
 41 42  1  0  0  0  0
 42 43  2  0  0  0  0
 43 44  1  0  0  0  0
 44 45  1  0  0  0  0
 45 46  1  0  0  0  0
 45 47  2  0  0  0  0
 47 48  1  0  0  0  0
 48 49  2  0  0  0  0
 49 50  1  0  0  0  0
 42 51  1  0  0  0  0
 51 52  2  0  0  0  0
 52 53  1  0  0  0  0
 53 54  1  0  0  0  0
 54 55  1  0  0  0  0
 55 56  2  0  0  0  0
 56 57  1  0  0  0  0
 57 58  1  0  0  0  0
 58 59  2  0  0  0  0
 59 60  1  0  0  0  0
 60 61  1  0  0  0  0
 59 62  1  0  0  0  0
 62 63  1  0  0  0  0
 63 64  1  0  0  0  0
 62 65  2  0  0  0  0
 55 66  1  0  0  0  0
 66 67  1  0  0  0  0
 67 68  1  0  0  0  0
 68 69  2  0  0  0  0
 69 70  1  0  0  0  0
 70 71  1  0  0  0  0
 71 72  1  0  0  0  0
 71 73  2  0  0  0  0
 73 74  1  0  0  0  0
 74 75  2  0  0  0  0
 75 76  1  0  0  0  0
 68 77  1  0  0  0  0
 77 78  2  0  0  0  0
  5  1  2  0  0  0  0
 18 14  2  0  0  0  0
 31 27  2  0  0  0  0
 44 40  2  0  0  0  0
 57 53  2  0  0  0  0
 70 66  2  0  0  0  0
 10  4  1  0  0  0  0
 23 17  1  0  0  0  0
 36 30  1  0  0  0  0
 49 43  1  0  0  0  0
 65 56  1  0  0  0  0
 75 69  1  0  0  0  0
  1 79  1  0  0  0  0
  7 80  1  0  0  0  0
  8 81  1  0  0  0  0
  9 82  1  0  0  0  0
 11 83  1  0  0  0  0
 12 84  1  0  0  0  0
 13 85  1  0  0  0  0
 20 86  1  0  0  0  0
 21 87  1  0  0  0  0
 22 88  1  0  0  0  0
 24 89  1  0  0  0  0
 25 90  1  0  0  0  0
 26 91  1  0  0  0  0
 33 92  1  0  0  0  0
 34 93  1  0  0  0  0
 35 94  1  0  0  0  0
 37 95  1  0  0  0  0
 38 96  1  0  0  0  0
 39 97  1  0  0  0  0
 46 98  1  0  0  0  0
 47 99  1  0  0  0  0
 48100  1  0  0  0  0
 50101  1  0  0  0  0
 51102  1  0  0  0  0
 52103  1  0  0  0  0
 58104  1  0  0  0  0
 61105  1  0  0  0  0
 61106  1  0  0  0  0
 61107  1  0  0  0  0
 64108  1  0  0  0  0
 64109  1  0  0  0  0
 64110  1  0  0  0  0
 65111  1  0  0  0  0
 72112  1  0  0  0  0
 73113  1  0  0  0  0
 74114  1  0  0  0  0
 76115  1  0  0  0  0
 77116  1  0  0  0  0
 78117  1  0  0  0  0
 78118  1  0  0  0  0
M  END
