
  xtb     03022202543D
 energy: -460.353145116268 gnorm: 0.001367272440 xtb: 6.4.1 (unknown)
233259  0     0  0            999 V2000
   -9.2119   -9.6487   15.6637 C   0  0  0  0  0  0  0  0  0  0  0  0
   -8.9407   -8.3728   16.0073 C   0  0  0  0  0  0  0  0  0  0  0  0
   -8.6333   -7.5520   14.8841 C   0  0  0  0  0  0  0  0  0  0  0  0
   -8.2400   -6.2042   14.8719 C   0  0  0  0  0  0  0  0  0  0  0  0
   -8.1538   -5.4137   16.0900 C   0  0  0  0  0  0  0  0  0  0  0  0
   -9.5151   -5.2519   17.1605 S   0  0  0  0  0  0  0  0  0  0  0  0
   -8.6566   -4.1913   18.2241 C   0  0  0  0  0  0  0  0  0  0  0  0
   -9.3102   -3.5899   19.4194 C   0  0  0  0  0  0  0  0  0  0  0  0
   -9.8465   -2.1922   19.1022 C   0  0  0  0  0  0  0  0  0  0  0  0
   -7.3930   -3.9797   17.7602 C   0  0  0  0  0  0  0  0  0  0  0  0
   -6.2413   -2.9792   18.5471 Cl  0  0  0  0  0  0  0  0  0  0  0  0
   -7.1025   -4.6732   16.5551 C   0  0  0  0  0  0  0  0  0  0  0  0
   -5.5489   -4.6309   15.8314 Cl  0  0  0  0  0  0  0  0  0  0  0  0
   -7.9348   -5.6502   13.6369 C   0  0  0  0  0  0  0  0  0  0  0  0
   -7.9929   -6.3742   12.4215 C   0  0  0  0  0  0  0  0  0  0  0  0
   -8.3841   -7.7242   12.4355 C   0  0  0  0  0  0  0  0  0  0  0  0
   -8.4314   -8.5031   11.2100 C   0  0  0  0  0  0  0  0  0  0  0  0
   -7.0441   -8.6036   10.1657 S   0  0  0  0  0  0  0  0  0  0  0  0
   -7.8580   -9.6473    9.0530 C   0  0  0  0  0  0  0  0  0  0  0  0
   -7.1980  -10.0938    7.7959 C   0  0  0  0  0  0  0  0  0  0  0  0
   -7.4034   -9.0642    6.6821 C   0  0  0  0  0  0  0  0  0  0  0  0
   -9.1318   -9.8863    9.4735 C   0  0  0  0  0  0  0  0  0  0  0  0
   -9.4585   -9.2469   10.6997 C   0  0  0  0  0  0  0  0  0  0  0  0
  -11.0195   -9.3441   11.3993 Cl  0  0  0  0  0  0  0  0  0  0  0  0
  -10.2509  -10.8663    8.6187 Cl  0  0  0  0  0  0  0  0  0  0  0  0
   -8.6932   -8.2804   13.6720 C   0  0  0  0  0  0  0  0  0  0  0  0
   -9.1198   -9.9429   13.9627 S   0  0  0  0  0  0  0  0  0  0  0  0
   -7.6497   -5.5686   11.3113 C   0  0  0  0  0  0  0  0  0  0  0  0
   -7.3217   -4.2785   11.6348 C   0  0  0  0  0  0  0  0  0  0  0  0
   -7.4680   -4.0003   13.3606 S   0  0  0  0  0  0  0  0  0  0  0  0
   -6.8913   -3.2699   10.7331 C   0  0  0  0  0  0  0  0  0  0  0  0
   -6.9523   -3.5947    9.0294 S   0  0  0  0  0  0  0  0  0  0  0  0
   -6.2878   -2.0496    8.6183 C   0  0  0  0  0  0  0  0  0  0  0  0
   -5.9971   -1.3132    9.7718 C   0  0  0  0  0  0  0  0  0  0  0  0
   -6.3556   -2.0002   10.9720 C   0  0  0  0  0  0  0  0  0  0  0  0
   -6.1173   -1.3847   12.2191 C   0  0  0  0  0  0  0  0  0  0  0  0
   -5.5448   -0.1453   12.2854 C   0  0  0  0  0  0  0  0  0  0  0  0
   -5.2756    0.5280   13.4262 O   0  0  0  0  0  0  0  0  0  0  0  0
   -5.5775   -0.0915   14.6546 C   0  0  0  0  0  0  0  0  0  0  0  0
   -5.1534    0.5334   11.0773 C   0  0  0  0  0  0  0  0  0  0  0  0
   -4.5741    1.7421   11.2683 O   0  0  0  0  0  0  0  0  0  0  0  0
   -4.1824    2.4837   10.1384 C   0  0  0  0  0  0  0  0  0  0  0  0
   -5.3668   -0.0528    9.8616 C   0  0  0  0  0  0  0  0  0  0  0  0
   -6.0771   -1.7030    7.2564 C   0  0  0  0  0  0  0  0  0  0  0  0
   -5.8819   -0.4634    6.7132 C   0  0  0  0  0  0  0  0  0  0  0  0
   -5.5750   -0.4807    5.3343 C   0  0  0  0  0  0  0  0  0  0  0  0
   -5.1563    0.6041    4.5430 C   0  0  0  0  0  0  0  0  0  0  0  0
   -5.0266    1.9359    5.1162 C   0  0  0  0  0  0  0  0  0  0  0  0
   -6.3746    2.7455    5.8600 S   0  0  0  0  0  0  0  0  0  0  0  0
   -5.4147    4.1206    6.2905 C   0  0  0  0  0  0  0  0  0  0  0  0
   -6.0119    5.2984    6.9788 C   0  0  0  0  0  0  0  0  0  0  0  0
   -6.5186    6.3290    5.9669 C   0  0  0  0  0  0  0  0  0  0  0  0
   -4.1313    3.9514    5.8656 C   0  0  0  0  0  0  0  0  0  0  0  0
   -2.8822    5.0985    6.1236 Cl  0  0  0  0  0  0  0  0  0  0  0  0
   -3.9065    2.7143    5.2020 C   0  0  0  0  0  0  0  0  0  0  0  0
   -2.3567    2.2344    4.6492 Cl  0  0  0  0  0  0  0  0  0  0  0  0
   -4.8062    0.3268    3.2299 C   0  0  0  0  0  0  0  0  0  0  0  0
   -4.8913   -0.9760    2.6780 C   0  0  0  0  0  0  0  0  0  0  0  0
   -5.2702   -2.0680    3.4811 C   0  0  0  0  0  0  0  0  0  0  0  0
   -5.2749   -3.4167    2.9400 C   0  0  0  0  0  0  0  0  0  0  0  0
   -6.6732   -4.4379    3.0954 S   0  0  0  0  0  0  0  0  0  0  0  0
   -5.9363   -5.7190    2.1948 C   0  0  0  0  0  0  0  0  0  0  0  0
   -6.6440   -7.0098    1.9752 C   0  0  0  0  0  0  0  0  0  0  0  0
   -6.6026   -7.8724    3.2382 C   0  0  0  0  0  0  0  0  0  0  0  0
   -4.6745   -5.3677    1.8188 C   0  0  0  0  0  0  0  0  0  0  0  0
   -4.2943   -4.0651    2.2393 C   0  0  0  0  0  0  0  0  0  0  0  0
   -2.7170   -3.4425    1.9534 Cl  0  0  0  0  0  0  0  0  0  0  0  0
   -3.6276   -6.3732    0.9027 Cl  0  0  0  0  0  0  0  0  0  0  0  0
   -5.6001   -1.7920    4.7993 C   0  0  0  0  0  0  0  0  0  0  0  0
   -5.9793   -2.9631    6.0309 S   0  0  0  0  0  0  0  0  0  0  0  0
   -4.4989   -0.9974    1.3213 C   0  0  0  0  0  0  0  0  0  0  0  0
   -4.0524    0.2088    0.8624 C   0  0  0  0  0  0  0  0  0  0  0  0
   -4.2119    1.4719    2.0619 S   0  0  0  0  0  0  0  0  0  0  0  0
   -3.3542    0.4191   -0.3648 C   0  0  0  0  0  0  0  0  0  0  0  0
   -2.8076   -0.5730   -1.1277 C   0  0  0  0  0  0  0  0  0  0  0  0
   -2.0020   -0.0969   -2.1855 C   0  0  0  0  0  0  0  0  0  0  0  0
   -1.2484   -0.8644   -3.0920 C   0  0  0  0  0  0  0  0  0  0  0  0
   -1.2954   -2.3174   -3.0368 C   0  0  0  0  0  0  0  0  0  0  0  0
   -2.8123   -3.1701   -3.0981 S   0  0  0  0  0  0  0  0  0  0  0  0
   -2.0499   -4.7100   -2.9012 C   0  0  0  0  0  0  0  0  0  0  0  0
   -2.8381   -5.9731   -2.8925 C   0  0  0  0  0  0  0  0  0  0  0  0
   -2.9388   -6.5692   -4.2979 C   0  0  0  0  0  0  0  0  0  0  0  0
   -0.6987   -4.5579   -2.8120 C   0  0  0  0  0  0  0  0  0  0  0  0
    0.3941   -5.8636   -2.6052 Cl  0  0  0  0  0  0  0  0  0  0  0  0
   -0.2668   -3.2054   -2.8844 C   0  0  0  0  0  0  0  0  0  0  0  0
    1.3776   -2.7602   -2.7000 Cl  0  0  0  0  0  0  0  0  0  0  0  0
   -0.4479   -0.1674   -3.9856 C   0  0  0  0  0  0  0  0  0  0  0  0
   -0.3848    1.2493   -4.0055 C   0  0  0  0  0  0  0  0  0  0  0  0
   -1.1368    2.0169   -3.0968 C   0  0  0  0  0  0  0  0  0  0  0  0
   -1.0303    3.4675   -3.0949 C   0  0  0  0  0  0  0  0  0  0  0  0
   -1.2646    4.3871   -4.5550 S   0  0  0  0  0  0  0  0  0  0  0  0
   -0.9223    5.8884   -3.7644 C   0  0  0  0  0  0  0  0  0  0  0  0
   -0.9750    7.1788   -4.5044 C   0  0  0  0  0  0  0  0  0  0  0  0
   -2.4188    7.6432   -4.7051 C   0  0  0  0  0  0  0  0  0  0  0  0
   -0.6595    5.6744   -2.4450 C   0  0  0  0  0  0  0  0  0  0  0  0
   -0.7134    4.3058   -2.0622 C   0  0  0  0  0  0  0  0  0  0  0  0
   -0.3172    3.7881   -0.4774 Cl  0  0  0  0  0  0  0  0  0  0  0  0
   -0.2733    6.9213   -1.3315 Cl  0  0  0  0  0  0  0  0  0  0  0  0
   -1.9325    1.3195   -2.1988 C   0  0  0  0  0  0  0  0  0  0  0  0
   -2.9260    2.0099   -0.9466 S   0  0  0  0  0  0  0  0  0  0  0  0
    0.5552    1.7181   -4.9505 C   0  0  0  0  0  0  0  0  0  0  0  0
    1.1783    0.7212   -5.6449 C   0  0  0  0  0  0  0  0  0  0  0  0
    0.6095   -0.8640   -5.1799 S   0  0  0  0  0  0  0  0  0  0  0  0
    2.2663    0.9112   -6.5498 C   0  0  0  0  0  0  0  0  0  0  0  0
    2.6648    2.1062   -7.0758 C   0  0  0  0  0  0  0  0  0  0  0  0
    3.9048    2.0411   -7.7504 C   0  0  0  0  0  0  0  0  0  0  0  0
    4.6188    3.0989   -8.3409 C   0  0  0  0  0  0  0  0  0  0  0  0
    4.1300    4.4643   -8.2552 C   0  0  0  0  0  0  0  0  0  0  0  0
    3.9911    5.4657   -9.6700 S   0  0  0  0  0  0  0  0  0  0  0  0
    3.3487    6.7931   -8.7656 C   0  0  0  0  0  0  0  0  0  0  0  0
    2.9296    8.0557   -9.4339 C   0  0  0  0  0  0  0  0  0  0  0  0
    1.4849    7.9600   -9.9306 C   0  0  0  0  0  0  0  0  0  0  0  0
    3.2506    6.4634   -7.4467 C   0  0  0  0  0  0  0  0  0  0  0  0
    2.6407    7.5179   -6.2372 Cl  0  0  0  0  0  0  0  0  0  0  0  0
    3.7024    5.1502   -7.1501 C   0  0  0  0  0  0  0  0  0  0  0  0
    3.7771    4.5554   -5.5390 Cl  0  0  0  0  0  0  0  0  0  0  0  0
    5.8065    2.7723   -8.9810 C   0  0  0  0  0  0  0  0  0  0  0  0
    6.3146    1.4507   -9.0276 C   0  0  0  0  0  0  0  0  0  0  0  0
    5.6173    0.3981   -8.4058 C   0  0  0  0  0  0  0  0  0  0  0  0
    6.1383   -0.9590   -8.4246 C   0  0  0  0  0  0  0  0  0  0  0  0
    6.5736   -1.7292   -9.9235 S   0  0  0  0  0  0  0  0  0  0  0  0
    7.0551   -3.1892   -9.1278 C   0  0  0  0  0  0  0  0  0  0  0  0
    7.6307   -4.3273   -9.8954 C   0  0  0  0  0  0  0  0  0  0  0  0
    9.0962   -4.0618  -10.2487 C   0  0  0  0  0  0  0  0  0  0  0  0
    6.8876   -3.0692   -7.7812 C   0  0  0  0  0  0  0  0  0  0  0  0
    6.3635   -1.8101   -7.3784 C   0  0  0  0  0  0  0  0  0  0  0  0
    6.1404   -1.4003   -5.7298 Cl  0  0  0  0  0  0  0  0  0  0  0  0
    7.2662   -4.3065   -6.6546 Cl  0  0  0  0  0  0  0  0  0  0  0  0
    4.4238    0.7216   -7.7748 C   0  0  0  0  0  0  0  0  0  0  0  0
    3.3674   -0.3866   -6.9478 S   0  0  0  0  0  0  0  0  0  0  0  0
    7.5703    1.3931   -9.6769 C   0  0  0  0  0  0  0  0  0  0  0  0
    8.0156    2.6063  -10.1159 C   0  0  0  0  0  0  0  0  0  0  0  0
    6.8918    3.8959   -9.7478 S   0  0  0  0  0  0  0  0  0  0  0  0
    9.2483    2.8692  -10.7874 C   0  0  0  0  0  0  0  0  0  0  0  0
   10.1568    1.9451  -11.2150 C   0  0  0  0  0  0  0  0  0  0  0  0
   11.2971    2.5162  -11.8295 C   0  0  0  0  0  0  0  0  0  0  0  0
   12.4098    1.8521  -12.3720 C   0  0  0  0  0  0  0  0  0  0  0  0
   12.4873    0.3996  -12.3828 C   0  0  0  0  0  0  0  0  0  0  0  0
   11.2375   -0.5658  -13.1129 S   0  0  0  0  0  0  0  0  0  0  0  0
   12.0499   -2.0460  -12.7362 C   0  0  0  0  0  0  0  0  0  0  0  0
   11.5127   -3.3629  -13.1768 C   0  0  0  0  0  0  0  0  0  0  0  0
   12.1112   -3.7647  -14.5274 C   0  0  0  0  0  0  0  0  0  0  0  0
   13.2198   -1.7908  -12.0855 C   0  0  0  0  0  0  0  0  0  0  0  0
   14.2944   -3.0130  -11.5435 Cl  0  0  0  0  0  0  0  0  0  0  0  0
   13.4701   -0.4071  -11.8806 C   0  0  0  0  0  0  0  0  0  0  0  0
   14.8346    0.1606  -11.0146 Cl  0  0  0  0  0  0  0  0  0  0  0  0
   13.4224    2.6457  -12.8966 C   0  0  0  0  0  0  0  0  0  0  0  0
   13.3686    4.0612  -12.8968 C   0  0  0  0  0  0  0  0  0  0  0  0
   12.2466    4.7225  -12.3743 C   0  0  0  0  0  0  0  0  0  0  0  0
   12.1381    6.1726  -12.4072 C   0  0  0  0  0  0  0  0  0  0  0  0
   11.8215    7.0916  -10.9665 S   0  0  0  0  0  0  0  0  0  0  0  0
   11.8432    8.5934  -11.8271 C   0  0  0  0  0  0  0  0  0  0  0  0
   11.6682    9.8891  -11.1152 C   0  0  0  0  0  0  0  0  0  0  0  0
   12.9356   10.2730  -10.3482 C   0  0  0  0  0  0  0  0  0  0  0  0
   12.0836    8.3777  -13.1511 C   0  0  0  0  0  0  0  0  0  0  0  0
   12.2479    7.0062  -13.4847 C   0  0  0  0  0  0  0  0  0  0  0  0
   12.4812    6.4681  -15.0980 Cl  0  0  0  0  0  0  0  0  0  0  0  0
   12.1741    9.6246  -14.3273 Cl  0  0  0  0  0  0  0  0  0  0  0  0
   11.2398    3.9307  -11.8377 C   0  0  0  0  0  0  0  0  0  0  0  0
    9.7600    4.5080  -11.1267 S   0  0  0  0  0  0  0  0  0  0  0  0
   14.5475    4.6298  -13.4617 C   0  0  0  0  0  0  0  0  0  0  0  0
   15.4174    3.6990  -13.9032 C   0  0  0  0  0  0  0  0  0  0  0  0
   14.8826    2.0742  -13.6516 S   0  0  0  0  0  0  0  0  0  0  0  0
   -9.4681  -10.4643   16.3112 H   0  0  0  0  0  0  0  0  0  0  0  0
   -8.9470   -8.0137   17.0200 H   0  0  0  0  0  0  0  0  0  0  0  0
  -10.1297   -4.2318   19.7436 H   0  0  0  0  0  0  0  0  0  0  0  0
   -8.5774   -3.5221   20.2259 H   0  0  0  0  0  0  0  0  0  0  0  0
   -9.0351   -1.5412   18.7883 H   0  0  0  0  0  0  0  0  0  0  0  0
  -10.3164   -1.7641   19.9834 H   0  0  0  0  0  0  0  0  0  0  0  0
  -10.5818   -2.2424   18.3029 H   0  0  0  0  0  0  0  0  0  0  0  0
   -6.1302  -10.2265    7.9749 H   0  0  0  0  0  0  0  0  0  0  0  0
   -7.6257  -11.0510    7.4931 H   0  0  0  0  0  0  0  0  0  0  0  0
   -6.9156   -9.3994    5.7714 H   0  0  0  0  0  0  0  0  0  0  0  0
   -8.4636   -8.9317    6.4828 H   0  0  0  0  0  0  0  0  0  0  0  0
   -6.9815   -8.1047    6.9727 H   0  0  0  0  0  0  0  0  0  0  0  0
   -7.6323   -5.9260   10.2977 H   0  0  0  0  0  0  0  0  0  0  0  0
   -6.3822   -1.9075   13.1200 H   0  0  0  0  0  0  0  0  0  0  0  0
   -5.2737    0.6174   15.4225 H   0  0  0  0  0  0  0  0  0  0  0  0
   -5.0212   -1.0254   14.7806 H   0  0  0  0  0  0  0  0  0  0  0  0
   -6.6488   -0.2951   14.7494 H   0  0  0  0  0  0  0  0  0  0  0  0
   -5.0335    2.6982    9.4828 H   0  0  0  0  0  0  0  0  0  0  0  0
   -3.7813    3.4186   10.5252 H   0  0  0  0  0  0  0  0  0  0  0  0
   -3.4061    1.9676    9.5646 H   0  0  0  0  0  0  0  0  0  0  0  0
   -5.0195    0.4234    8.9638 H   0  0  0  0  0  0  0  0  0  0  0  0
   -5.9856    0.4494    7.2650 H   0  0  0  0  0  0  0  0  0  0  0  0
   -5.2498    5.7564    7.6124 H   0  0  0  0  0  0  0  0  0  0  0  0
   -6.8406    4.9683    7.6077 H   0  0  0  0  0  0  0  0  0  0  0  0
   -6.9583    7.1758    6.4867 H   0  0  0  0  0  0  0  0  0  0  0  0
   -7.2721    5.8863    5.3208 H   0  0  0  0  0  0  0  0  0  0  0  0
   -5.6979    6.6856    5.3505 H   0  0  0  0  0  0  0  0  0  0  0  0
   -7.6837   -6.8141    1.7065 H   0  0  0  0  0  0  0  0  0  0  0  0
   -6.1617   -7.5370    1.1504 H   0  0  0  0  0  0  0  0  0  0  0  0
   -7.1124   -8.8155    3.0615 H   0  0  0  0  0  0  0  0  0  0  0  0
   -7.0921   -7.3564    4.0606 H   0  0  0  0  0  0  0  0  0  0  0  0
   -5.5728   -8.0778    3.5198 H   0  0  0  0  0  0  0  0  0  0  0  0
   -4.5417   -1.8754    0.7063 H   0  0  0  0  0  0  0  0  0  0  0  0
   -2.9311   -1.6149   -0.9027 H   0  0  0  0  0  0  0  0  0  0  0  0
   -3.8387   -5.7721   -2.5064 H   0  0  0  0  0  0  0  0  0  0  0  0
   -2.3455   -6.6870   -2.2292 H   0  0  0  0  0  0  0  0  0  0  0  0
   -3.5086   -7.4941   -4.2705 H   0  0  0  0  0  0  0  0  0  0  0  0
   -1.9468   -6.7819   -4.6874 H   0  0  0  0  0  0  0  0  0  0  0  0
   -3.4346   -5.8728   -4.9700 H   0  0  0  0  0  0  0  0  0  0  0  0
   -0.4229    7.9274   -3.9339 H   0  0  0  0  0  0  0  0  0  0  0  0
   -0.4939    7.0588   -5.4769 H   0  0  0  0  0  0  0  0  0  0  0  0
   -2.9095    7.7739   -3.7440 H   0  0  0  0  0  0  0  0  0  0  0  0
   -2.4354    8.5909   -5.2365 H   0  0  0  0  0  0  0  0  0  0  0  0
   -2.9746    6.9082   -5.2823 H   0  0  0  0  0  0  0  0  0  0  0  0
    0.8009    2.7552   -5.0759 H   0  0  0  0  0  0  0  0  0  0  0  0
    2.0834    3.0037   -6.9891 H   0  0  0  0  0  0  0  0  0  0  0  0
    3.5920    8.2545  -10.2777 H   0  0  0  0  0  0  0  0  0  0  0  0
    3.0156    8.8761   -8.7189 H   0  0  0  0  0  0  0  0  0  0  0  0
    0.8127    7.7659   -9.0988 H   0  0  0  0  0  0  0  0  0  0  0  0
    1.1916    8.8921  -10.4055 H   0  0  0  0  0  0  0  0  0  0  0  0
    1.3872    7.1534  -10.6529 H   0  0  0  0  0  0  0  0  0  0  0  0
    7.0584   -4.4739  -10.8133 H   0  0  0  0  0  0  0  0  0  0  0  0
    7.5563   -5.2306   -9.2881 H   0  0  0  0  0  0  0  0  0  0  0  0
    9.6863   -3.9399   -9.3441 H   0  0  0  0  0  0  0  0  0  0  0  0
    9.4992   -4.8952  -10.8175 H   0  0  0  0  0  0  0  0  0  0  0  0
    9.1825   -3.1557  -10.8443 H   0  0  0  0  0  0  0  0  0  0  0  0
    8.1319    0.4862   -9.7950 H   0  0  0  0  0  0  0  0  0  0  0  0
   10.0192    0.8871  -11.0963 H   0  0  0  0  0  0  0  0  0  0  0  0
   11.7677   -4.1150  -12.4276 H   0  0  0  0  0  0  0  0  0  0  0  0
   10.4269   -3.3032  -13.2619 H   0  0  0  0  0  0  0  0  0  0  0  0
   11.8689   -3.0216  -15.2833 H   0  0  0  0  0  0  0  0  0  0  0  0
   11.7132   -4.7256  -14.8420 H   0  0  0  0  0  0  0  0  0  0  0  0
   13.1926   -3.8426  -14.4509 H   0  0  0  0  0  0  0  0  0  0  0  0
   10.8340    9.8081  -10.4157 H   0  0  0  0  0  0  0  0  0  0  0  0
   11.4341   10.6604  -11.8507 H   0  0  0  0  0  0  0  0  0  0  0  0
   13.1731    9.5120   -9.6088 H   0  0  0  0  0  0  0  0  0  0  0  0
   13.7760   10.3694  -11.0309 H   0  0  0  0  0  0  0  0  0  0  0  0
   12.7905   11.2219   -9.8389 H   0  0  0  0  0  0  0  0  0  0  0  0
   14.7262    5.6874  -13.5193 H   0  0  0  0  0  0  0  0  0  0  0  0
   16.3712    3.8566  -14.3678 H   0  0  0  0  0  0  0  0  0  0  0  0
  1  2  2  0  0  0  0
  2  3  1  0  0  0  0
  3  4  2  0  0  0  0
  4  5  1  0  0  0  0
  5  6  1  0  0  0  0
  6  7  1  0  0  0  0
  7  8  1  0  0  0  0
  8  9  1  0  0  0  0
  7 10  2  0  0  0  0
 10 11  1  0  0  0  0
 10 12  1  0  0  0  0
 12 13  1  0  0  0  0
  4 14  1  0  0  0  0
 14 15  2  0  0  0  0
 15 16  1  0  0  0  0
 16 17  1  0  0  0  0
 17 18  1  0  0  0  0
 18 19  1  0  0  0  0
 19 20  1  0  0  0  0
 20 21  1  0  0  0  0
 19 22  2  0  0  0  0
 22 23  1  0  0  0  0
 23 24  1  0  0  0  0
 22 25  1  0  0  0  0
 16 26  2  0  0  0  0
 26 27  1  0  0  0  0
 15 28  1  0  0  0  0
 28 29  2  0  0  0  0
 29 30  1  0  0  0  0
 29 31  1  0  0  0  0
 31 32  1  0  0  0  0
 32 33  1  0  0  0  0
 33 34  2  0  0  0  0
 34 35  1  0  0  0  0
 35 36  1  0  0  0  0
 36 37  2  0  0  0  0
 37 38  1  0  0  0  0
 38 39  1  0  0  0  0
 37 40  1  0  0  0  0
 40 41  1  0  0  0  0
 41 42  1  0  0  0  0
 40 43  2  0  0  0  0
 33 44  1  0  0  0  0
 44 45  2  0  0  0  0
 45 46  1  0  0  0  0
 46 47  2  0  0  0  0
 47 48  1  0  0  0  0
 48 49  1  0  0  0  0
 49 50  1  0  0  0  0
 50 51  1  0  0  0  0
 51 52  1  0  0  0  0
 50 53  2  0  0  0  0
 53 54  1  0  0  0  0
 53 55  1  0  0  0  0
 55 56  1  0  0  0  0
 47 57  1  0  0  0  0
 57 58  2  0  0  0  0
 58 59  1  0  0  0  0
 59 60  1  0  0  0  0
 60 61  1  0  0  0  0
 61 62  1  0  0  0  0
 62 63  1  0  0  0  0
 63 64  1  0  0  0  0
 62 65  2  0  0  0  0
 65 66  1  0  0  0  0
 66 67  1  0  0  0  0
 65 68  1  0  0  0  0
 59 69  2  0  0  0  0
 69 70  1  0  0  0  0
 58 71  1  0  0  0  0
 71 72  2  0  0  0  0
 72 73  1  0  0  0  0
 72 74  1  0  0  0  0
 74 75  2  0  0  0  0
 75 76  1  0  0  0  0
 76 77  2  0  0  0  0
 77 78  1  0  0  0  0
 78 79  1  0  0  0  0
 79 80  1  0  0  0  0
 80 81  1  0  0  0  0
 81 82  1  0  0  0  0
 80 83  2  0  0  0  0
 83 84  1  0  0  0  0
 83 85  1  0  0  0  0
 85 86  1  0  0  0  0
 77 87  1  0  0  0  0
 87 88  2  0  0  0  0
 88 89  1  0  0  0  0
 89 90  1  0  0  0  0
 90 91  1  0  0  0  0
 91 92  1  0  0  0  0
 92 93  1  0  0  0  0
 93 94  1  0  0  0  0
 92 95  2  0  0  0  0
 95 96  1  0  0  0  0
 96 97  1  0  0  0  0
 95 98  1  0  0  0  0
 89 99  2  0  0  0  0
 99100  1  0  0  0  0
 88101  1  0  0  0  0
101102  2  0  0  0  0
102103  1  0  0  0  0
102104  1  0  0  0  0
104105  2  0  0  0  0
105106  1  0  0  0  0
106107  2  0  0  0  0
107108  1  0  0  0  0
108109  1  0  0  0  0
109110  1  0  0  0  0
110111  1  0  0  0  0
111112  1  0  0  0  0
110113  2  0  0  0  0
113114  1  0  0  0  0
113115  1  0  0  0  0
115116  1  0  0  0  0
107117  1  0  0  0  0
117118  2  0  0  0  0
118119  1  0  0  0  0
119120  1  0  0  0  0
120121  1  0  0  0  0
121122  1  0  0  0  0
122123  1  0  0  0  0
123124  1  0  0  0  0
122125  2  0  0  0  0
125126  1  0  0  0  0
126127  1  0  0  0  0
125128  1  0  0  0  0
119129  2  0  0  0  0
129130  1  0  0  0  0
118131  1  0  0  0  0
131132  2  0  0  0  0
132133  1  0  0  0  0
132134  1  0  0  0  0
134135  2  0  0  0  0
135136  1  0  0  0  0
136137  2  0  0  0  0
137138  1  0  0  0  0
138139  1  0  0  0  0
139140  1  0  0  0  0
140141  1  0  0  0  0
141142  1  0  0  0  0
140143  2  0  0  0  0
143144  1  0  0  0  0
143145  1  0  0  0  0
145146  1  0  0  0  0
137147  1  0  0  0  0
147148  2  0  0  0  0
148149  1  0  0  0  0
149150  1  0  0  0  0
150151  1  0  0  0  0
151152  1  0  0  0  0
152153  1  0  0  0  0
153154  1  0  0  0  0
152155  2  0  0  0  0
155156  1  0  0  0  0
156157  1  0  0  0  0
155158  1  0  0  0  0
149159  2  0  0  0  0
159160  1  0  0  0  0
148161  1  0  0  0  0
161162  2  0  0  0  0
162163  1  0  0  0  0
 27  1  1  0  0  0  0
 35 31  2  0  0  0  0
 70 44  1  0  0  0  0
100 74  1  0  0  0  0
130104  1  0  0  0  0
160134  1  0  0  0  0
 26  3  1  0  0  0  0
 43 34  1  0  0  0  0
 69 46  1  0  0  0  0
 99 76  1  0  0  0  0
129106  1  0  0  0  0
159136  1  0  0  0  0
 12  5  2  0  0  0  0
 30 14  1  0  0  0  0
 55 48  2  0  0  0  0
 73 57  1  0  0  0  0
 85 78  2  0  0  0  0
103 87  1  0  0  0  0
115108  2  0  0  0  0
133117  1  0  0  0  0
145138  2  0  0  0  0
163147  1  0  0  0  0
 23 17  2  0  0  0  0
 66 60  2  0  0  0  0
 96 90  2  0  0  0  0
126120  2  0  0  0  0
156150  2  0  0  0  0
  1164  1  0  0  0  0
  2165  1  0  0  0  0
  8166  1  0  0  0  0
  8167  1  0  0  0  0
  9168  1  0  0  0  0
  9169  1  0  0  0  0
  9170  1  0  0  0  0
 20171  1  0  0  0  0
 20172  1  0  0  0  0
 21173  1  0  0  0  0
 21174  1  0  0  0  0
 21175  1  0  0  0  0
 28176  1  0  0  0  0
 36177  1  0  0  0  0
 39178  1  0  0  0  0
 39179  1  0  0  0  0
 39180  1  0  0  0  0
 42181  1  0  0  0  0
 42182  1  0  0  0  0
 42183  1  0  0  0  0
 43184  1  0  0  0  0
 45185  1  0  0  0  0
 51186  1  0  0  0  0
 51187  1  0  0  0  0
 52188  1  0  0  0  0
 52189  1  0  0  0  0
 52190  1  0  0  0  0
 63191  1  0  0  0  0
 63192  1  0  0  0  0
 64193  1  0  0  0  0
 64194  1  0  0  0  0
 64195  1  0  0  0  0
 71196  1  0  0  0  0
 75197  1  0  0  0  0
 81198  1  0  0  0  0
 81199  1  0  0  0  0
 82200  1  0  0  0  0
 82201  1  0  0  0  0
 82202  1  0  0  0  0
 93203  1  0  0  0  0
 93204  1  0  0  0  0
 94205  1  0  0  0  0
 94206  1  0  0  0  0
 94207  1  0  0  0  0
101208  1  0  0  0  0
105209  1  0  0  0  0
111210  1  0  0  0  0
111211  1  0  0  0  0
112212  1  0  0  0  0
112213  1  0  0  0  0
112214  1  0  0  0  0
123215  1  0  0  0  0
123216  1  0  0  0  0
124217  1  0  0  0  0
124218  1  0  0  0  0
124219  1  0  0  0  0
131220  1  0  0  0  0
135221  1  0  0  0  0
141222  1  0  0  0  0
141223  1  0  0  0  0
142224  1  0  0  0  0
142225  1  0  0  0  0
142226  1  0  0  0  0
153227  1  0  0  0  0
153228  1  0  0  0  0
154229  1  0  0  0  0
154230  1  0  0  0  0
154231  1  0  0  0  0
161232  1  0  0  0  0
162233  1  0  0  0  0
M  END
