
  xtb     03042217503D
 energy: -323.235078219451 gnorm: 0.000172512781 xtb: 6.4.1 (unknown)
186203  0     0  0            999 V2000
   11.8837   -0.9144    8.7509 C   0  0  0  0  0  0  0  0  0  0  0  0
   11.4379   -2.0289    7.5369 S   0  0  0  0  0  0  0  0  0  0  0  0
    9.7583   -1.5622    7.5979 C   0  0  0  0  0  0  0  0  0  0  0  0
    9.5832   -0.5620    8.5634 C   0  0  0  0  0  0  0  0  0  0  0  0
   10.8060   -0.1984    9.2142 C   0  0  0  0  0  0  0  0  0  0  0  0
   10.8131    0.8065   10.2140 C   0  0  0  0  0  0  0  0  0  0  0  0
    9.6488    1.4214   10.5652 C   0  0  0  0  0  0  0  0  0  0  0  0
    9.5176    2.3996   11.4961 O   0  0  0  0  0  0  0  0  0  0  0  0
   10.6735    2.8383   12.1642 C   0  0  0  0  0  0  0  0  0  0  0  0
    8.4088    1.0328    9.9377 C   0  0  0  0  0  0  0  0  0  0  0  0
    7.3209    1.6986   10.3976 O   0  0  0  0  0  0  0  0  0  0  0  0
    6.0656    1.3916    9.8419 C   0  0  0  0  0  0  0  0  0  0  0  0
    8.3874    0.0680    8.9704 C   0  0  0  0  0  0  0  0  0  0  0  0
    8.8099   -2.1165    6.7024 C   0  0  0  0  0  0  0  0  0  0  0  0
    7.3370   -1.2637    6.3577 S   0  0  0  0  0  0  0  0  0  0  0  0
    6.8078   -2.4294    5.1884 C   0  0  0  0  0  0  0  0  0  0  0  0
    7.7337   -3.4707    5.0868 C   0  0  0  0  0  0  0  0  0  0  0  0
    8.8688   -3.2902    5.9349 C   0  0  0  0  0  0  0  0  0  0  0  0
    9.8745   -4.2806    5.9550 C   0  0  0  0  0  0  0  0  0  0  0  0
    9.7726   -5.3900    5.1631 C   0  0  0  0  0  0  0  0  0  0  0  0
   10.6811   -6.3948    5.1015 O   0  0  0  0  0  0  0  0  0  0  0  0
   11.8409   -6.2938    5.8901 C   0  0  0  0  0  0  0  0  0  0  0  0
    8.6223   -5.5762    4.3199 C   0  0  0  0  0  0  0  0  0  0  0  0
    8.6282   -6.7265    3.6034 O   0  0  0  0  0  0  0  0  0  0  0  0
    7.5368   -6.9934    2.7575 C   0  0  0  0  0  0  0  0  0  0  0  0
    7.6287   -4.6385    4.3012 C   0  0  0  0  0  0  0  0  0  0  0  0
    5.5765   -2.2067    4.5222 C   0  0  0  0  0  0  0  0  0  0  0  0
    5.1006   -2.7263    3.3494 C   0  0  0  0  0  0  0  0  0  0  0  0
    3.8131   -2.2611    2.9939 C   0  0  0  0  0  0  0  0  0  0  0  0
    3.0681   -2.5836    1.8455 C   0  0  0  0  0  0  0  0  0  0  0  0
    3.5210   -3.6017    0.8920 C   0  0  0  0  0  0  0  0  0  0  0  0
    3.9429   -4.8570    1.3305 C   0  0  0  0  0  0  0  0  0  0  0  0
    4.3121   -5.8303    0.4277 C   0  0  0  0  0  0  0  0  0  0  0  0
    4.2875   -5.5931   -0.9460 C   0  0  0  0  0  0  0  0  0  0  0  0
    4.8076   -6.9130   -2.0021 S   0  0  0  0  0  0  0  0  0  0  0  0
    3.6929   -6.8029   -3.4507 C   0  0  0  0  0  0  0  0  0  0  0  0
    2.2313   -6.8721   -3.0563 C   0  0  0  0  0  0  0  0  0  0  0  0
    3.8981   -4.3259   -1.3678 C   0  0  0  0  0  0  0  0  0  0  0  0
    3.8906   -4.0034   -2.6811 F   0  0  0  0  0  0  0  0  0  0  0  0
    3.5069   -3.3489   -0.4756 C   0  0  0  0  0  0  0  0  0  0  0  0
    1.8677   -1.9139    1.6753 C   0  0  0  0  0  0  0  0  0  0  0  0
    1.3646   -0.9644    2.5987 C   0  0  0  0  0  0  0  0  0  0  0  0
    2.1051   -0.6515    3.7538 C   0  0  0  0  0  0  0  0  0  0  0  0
    1.6360    0.3500    4.7178 C   0  0  0  0  0  0  0  0  0  0  0  0
    1.2271    1.6151    4.2962 C   0  0  0  0  0  0  0  0  0  0  0  0
    0.8086    2.5590    5.2092 C   0  0  0  0  0  0  0  0  0  0  0  0
    0.7725    2.2805    6.5737 C   0  0  0  0  0  0  0  0  0  0  0  0
    0.1745    3.5497    7.6536 S   0  0  0  0  0  0  0  0  0  0  0  0
    1.3330    3.4908    9.0704 C   0  0  0  0  0  0  0  0  0  0  0  0
    2.7723    3.6807    8.6352 C   0  0  0  0  0  0  0  0  0  0  0  0
    1.1649    1.0089    6.9787 C   0  0  0  0  0  0  0  0  0  0  0  0
    1.6044    0.0606    6.0780 C   0  0  0  0  0  0  0  0  0  0  0  0
    1.1208    0.6561    8.2828 F   0  0  0  0  0  0  0  0  0  0  0  0
    3.3064   -1.3194    3.9237 C   0  0  0  0  0  0  0  0  0  0  0  0
    4.4289   -1.0761    5.2358 S   0  0  0  0  0  0  0  0  0  0  0  0
    0.0972   -0.4649    2.2169 C   0  0  0  0  0  0  0  0  0  0  0  0
   -0.3743   -0.9811    1.0403 C   0  0  0  0  0  0  0  0  0  0  0  0
    0.7552   -2.1462    0.3547 S   0  0  0  0  0  0  0  0  0  0  0  0
   -1.5439   -0.6856    0.2962 C   0  0  0  0  0  0  0  0  0  0  0  0
   -1.5782   -1.1813   -1.3636 S   0  0  0  0  0  0  0  0  0  0  0  0
   -3.1333   -0.4679   -1.6684 C   0  0  0  0  0  0  0  0  0  0  0  0
   -3.6218    0.1108   -0.4783 C   0  0  0  0  0  0  0  0  0  0  0  0
   -2.7245   -0.0130    0.6260 C   0  0  0  0  0  0  0  0  0  0  0  0
   -3.0924    0.5015    1.8876 C   0  0  0  0  0  0  0  0  0  0  0  0
   -4.2825    1.1540    2.0520 C   0  0  0  0  0  0  0  0  0  0  0  0
   -4.7260    1.6996    3.2101 O   0  0  0  0  0  0  0  0  0  0  0  0
   -3.9053    1.6140    4.3492 C   0  0  0  0  0  0  0  0  0  0  0  0
   -5.1829    1.2901    0.9408 C   0  0  0  0  0  0  0  0  0  0  0  0
   -6.3330    1.9487    1.2189 O   0  0  0  0  0  0  0  0  0  0  0  0
   -7.2676    2.1329    0.1819 C   0  0  0  0  0  0  0  0  0  0  0  0
   -4.8563    0.7603   -0.2781 C   0  0  0  0  0  0  0  0  0  0  0  0
   -3.6775   -0.4607   -2.9702 C   0  0  0  0  0  0  0  0  0  0  0  0
   -5.0775    0.5002   -3.3359 S   0  0  0  0  0  0  0  0  0  0  0  0
   -5.0575    0.1045   -5.0229 C   0  0  0  0  0  0  0  0  0  0  0  0
   -3.9857   -0.7489   -5.3073 C   0  0  0  0  0  0  0  0  0  0  0  0
   -3.2194   -1.0847   -4.1495 C   0  0  0  0  0  0  0  0  0  0  0  0
   -2.1329   -1.9721   -4.2887 C   0  0  0  0  0  0  0  0  0  0  0  0
   -1.7816   -2.4673   -5.5150 C   0  0  0  0  0  0  0  0  0  0  0  0
   -0.7507   -3.3142   -5.7467 O   0  0  0  0  0  0  0  0  0  0  0  0
    0.0659   -3.6912   -4.6638 C   0  0  0  0  0  0  0  0  0  0  0  0
   -2.5214   -2.0856   -6.6862 C   0  0  0  0  0  0  0  0  0  0  0  0
   -2.0661   -2.6168   -7.8442 O   0  0  0  0  0  0  0  0  0  0  0  0
   -2.7376   -2.2979   -9.0397 C   0  0  0  0  0  0  0  0  0  0  0  0
   -3.5980   -1.2508   -6.5675 C   0  0  0  0  0  0  0  0  0  0  0  0
   -6.0725    0.6692   -5.8348 C   0  0  0  0  0  0  0  0  0  0  0  0
   -6.4294    0.4265   -7.1328 C   0  0  0  0  0  0  0  0  0  0  0  0
   -7.5088    1.2196   -7.5935 C   0  0  0  0  0  0  0  0  0  0  0  0
   -8.0764    1.2402   -8.8787 C   0  0  0  0  0  0  0  0  0  0  0  0
   -7.4944    0.4388   -9.9613 C   0  0  0  0  0  0  0  0  0  0  0  0
   -8.2737   -0.3952  -10.7601 C   0  0  0  0  0  0  0  0  0  0  0  0
   -7.6958   -1.1531  -11.7568 C   0  0  0  0  0  0  0  0  0  0  0  0
   -6.3232   -1.1193  -11.9930 C   0  0  0  0  0  0  0  0  0  0  0  0
   -5.6771   -2.1825  -13.2524 S   0  0  0  0  0  0  0  0  0  0  0  0
   -4.4559   -1.1295  -14.1212 C   0  0  0  0  0  0  0  0  0  0  0  0
   -5.0854    0.1365  -14.6664 C   0  0  0  0  0  0  0  0  0  0  0  0
   -5.5557   -0.2921  -11.1799 C   0  0  0  0  0  0  0  0  0  0  0  0
   -4.2097   -0.2298  -11.3228 F   0  0  0  0  0  0  0  0  0  0  0  0
   -6.1221    0.4880  -10.1940 C   0  0  0  0  0  0  0  0  0  0  0  0
   -9.1763    2.0676   -9.0601 C   0  0  0  0  0  0  0  0  0  0  0  0
   -9.7001    2.8967   -8.0387 C   0  0  0  0  0  0  0  0  0  0  0  0
   -9.1096    2.9029   -6.7660 C   0  0  0  0  0  0  0  0  0  0  0  0
   -9.5710    3.7734   -5.6771 C   0  0  0  0  0  0  0  0  0  0  0  0
   -9.7172    5.1477   -5.8555 C   0  0  0  0  0  0  0  0  0  0  0  0
  -10.0642    5.9587   -4.7959 C   0  0  0  0  0  0  0  0  0  0  0  0
  -10.2927    5.4356   -3.5244 C   0  0  0  0  0  0  0  0  0  0  0  0
  -10.7393    6.5716   -2.2441 S   0  0  0  0  0  0  0  0  0  0  0  0
   -9.8507    5.9483   -0.7684 C   0  0  0  0  0  0  0  0  0  0  0  0
   -8.3574    5.8409   -1.0031 C   0  0  0  0  0  0  0  0  0  0  0  0
  -10.1895    4.0565   -3.3730 C   0  0  0  0  0  0  0  0  0  0  0  0
   -9.8206    3.2360   -4.4185 C   0  0  0  0  0  0  0  0  0  0  0  0
  -10.4468    3.4666   -2.1833 F   0  0  0  0  0  0  0  0  0  0  0  0
   -8.0327    2.0522   -6.5759 C   0  0  0  0  0  0  0  0  0  0  0  0
   -7.1114    1.8930   -5.1056 S   0  0  0  0  0  0  0  0  0  0  0  0
  -10.8300    3.6404   -8.4916 C   0  0  0  0  0  0  0  0  0  0  0  0
  -11.1255    3.4109   -9.7866 C   0  0  0  0  0  0  0  0  0  0  0  0
  -10.0644    2.2741  -10.5487 S   0  0  0  0  0  0  0  0  0  0  0  0
   12.9079   -0.8483    9.0580 H   0  0  0  0  0  0  0  0  0  0  0  0
   11.7545    1.0583   10.6741 H   0  0  0  0  0  0  0  0  0  0  0  0
   10.3413    3.6177   12.8477 H   0  0  0  0  0  0  0  0  0  0  0  0
   11.1389    2.0284   12.7359 H   0  0  0  0  0  0  0  0  0  0  0  0
   11.4069    3.2555   11.4661 H   0  0  0  0  0  0  0  0  0  0  0  0
    5.7914    0.3465   10.0171 H   0  0  0  0  0  0  0  0  0  0  0  0
    6.0405    1.5949    8.7664 H   0  0  0  0  0  0  0  0  0  0  0  0
    5.3541    2.0395   10.3509 H   0  0  0  0  0  0  0  0  0  0  0  0
    7.4559   -0.2290    8.5232 H   0  0  0  0  0  0  0  0  0  0  0  0
   10.7142   -4.1584    6.6154 H   0  0  0  0  0  0  0  0  0  0  0  0
   12.4215   -5.4005    5.6380 H   0  0  0  0  0  0  0  0  0  0  0  0
   11.6009   -6.2782    6.9584 H   0  0  0  0  0  0  0  0  0  0  0  0
   12.4268   -7.1832    5.6648 H   0  0  0  0  0  0  0  0  0  0  0  0
    6.6026   -7.0790    3.3226 H   0  0  0  0  0  0  0  0  0  0  0  0
    7.4246   -6.2234    1.9868 H   0  0  0  0  0  0  0  0  0  0  0  0
    7.7596   -7.9472    2.2824 H   0  0  0  0  0  0  0  0  0  0  0  0
    6.7443   -4.7881    3.7088 H   0  0  0  0  0  0  0  0  0  0  0  0
    5.6762   -3.3654    2.7075 H   0  0  0  0  0  0  0  0  0  0  0  0
    3.9402   -5.0796    2.3868 H   0  0  0  0  0  0  0  0  0  0  0  0
    4.6203   -6.8063    0.7702 H   0  0  0  0  0  0  0  0  0  0  0  0
    3.9234   -5.8970   -4.0071 H   0  0  0  0  0  0  0  0  0  0  0  0
    3.9803   -7.6690   -4.0471 H   0  0  0  0  0  0  0  0  0  0  0  0
    1.6127   -6.9017   -3.9510 H   0  0  0  0  0  0  0  0  0  0  0  0
    2.0371   -7.7663   -2.4676 H   0  0  0  0  0  0  0  0  0  0  0  0
    1.9437   -6.0017   -2.4696 H   0  0  0  0  0  0  0  0  0  0  0  0
    3.2192   -2.3837   -0.8616 H   0  0  0  0  0  0  0  0  0  0  0  0
    1.2732    1.8686    3.2481 H   0  0  0  0  0  0  0  0  0  0  0  0
    0.5054    3.5411    4.8806 H   0  0  0  0  0  0  0  0  0  0  0  0
    0.9990    4.3167    9.6984 H   0  0  0  0  0  0  0  0  0  0  0  0
    1.1889    2.5557    9.6071 H   0  0  0  0  0  0  0  0  0  0  0  0
    3.1082    2.8437    8.0255 H   0  0  0  0  0  0  0  0  0  0  0  0
    2.8780    4.5955    8.0557 H   0  0  0  0  0  0  0  0  0  0  0  0
    3.4138    3.7472    9.5115 H   0  0  0  0  0  0  0  0  0  0  0  0
    1.8919   -0.9112    6.4476 H   0  0  0  0  0  0  0  0  0  0  0  0
   -0.4241    0.2741    2.7937 H   0  0  0  0  0  0  0  0  0  0  0  0
   -2.4305    0.3539    2.7216 H   0  0  0  0  0  0  0  0  0  0  0  0
   -4.4497    2.1223    5.1428 H   0  0  0  0  0  0  0  0  0  0  0  0
   -2.9439    2.1148    4.1929 H   0  0  0  0  0  0  0  0  0  0  0  0
   -3.7278    0.5737    4.6410 H   0  0  0  0  0  0  0  0  0  0  0  0
   -8.0858    2.7012    0.6206 H   0  0  0  0  0  0  0  0  0  0  0  0
   -6.8369    2.6962   -0.6522 H   0  0  0  0  0  0  0  0  0  0  0  0
   -7.6514    1.1779   -0.1897 H   0  0  0  0  0  0  0  0  0  0  0  0
   -5.5565    0.8287   -1.0892 H   0  0  0  0  0  0  0  0  0  0  0  0
   -1.5813   -2.2735   -3.4178 H   0  0  0  0  0  0  0  0  0  0  0  0
    0.5233   -2.8220   -4.1813 H   0  0  0  0  0  0  0  0  0  0  0  0
   -0.4941   -4.2642   -3.9173 H   0  0  0  0  0  0  0  0  0  0  0  0
    0.8469   -4.3180   -5.0905 H   0  0  0  0  0  0  0  0  0  0  0  0
   -2.2099   -2.8339   -9.8262 H   0  0  0  0  0  0  0  0  0  0  0  0
   -3.7811   -2.6296   -9.0163 H   0  0  0  0  0  0  0  0  0  0  0  0
   -2.7014   -1.2246   -9.2493 H   0  0  0  0  0  0  0  0  0  0  0  0
   -4.1479   -0.9511   -7.4400 H   0  0  0  0  0  0  0  0  0  0  0  0
   -5.9822   -0.3328   -7.7436 H   0  0  0  0  0  0  0  0  0  0  0  0
   -9.3370   -0.4583  -10.5898 H   0  0  0  0  0  0  0  0  0  0  0  0
   -8.3027   -1.7980  -12.3728 H   0  0  0  0  0  0  0  0  0  0  0  0
   -4.1017   -1.7720  -14.9272 H   0  0  0  0  0  0  0  0  0  0  0  0
   -3.6284   -0.9170  -13.4479 H   0  0  0  0  0  0  0  0  0  0  0  0
   -5.9246   -0.1031  -15.3160 H   0  0  0  0  0  0  0  0  0  0  0  0
   -4.3475    0.6949  -15.2388 H   0  0  0  0  0  0  0  0  0  0  0  0
   -5.4451    0.7707  -13.8580 H   0  0  0  0  0  0  0  0  0  0  0  0
   -5.4845    1.1377   -9.6140 H   0  0  0  0  0  0  0  0  0  0  0  0
   -9.5180    5.5847   -6.8222 H   0  0  0  0  0  0  0  0  0  0  0  0
  -10.1547    7.0253   -4.9314 H   0  0  0  0  0  0  0  0  0  0  0  0
  -10.2866    4.9980   -0.4682 H   0  0  0  0  0  0  0  0  0  0  0  0
  -10.0766    6.6978   -0.0099 H   0  0  0  0  0  0  0  0  0  0  0  0
   -7.8620    5.5463   -0.0802 H   0  0  0  0  0  0  0  0  0  0  0  0
   -7.9530    6.7975   -1.3273 H   0  0  0  0  0  0  0  0  0  0  0  0
   -8.1358    5.0961   -1.7655 H   0  0  0  0  0  0  0  0  0  0  0  0
   -9.7550    2.1737   -4.2425 H   0  0  0  0  0  0  0  0  0  0  0  0
  -11.3916    4.3030   -7.8583 H   0  0  0  0  0  0  0  0  0  0  0  0
  -11.9192    3.8365  -10.3688 H   0  0  0  0  0  0  0  0  0  0  0  0
  1  2  1  0  0  0  0
  2  3  1  0  0  0  0
  3  4  2  0  0  0  0
  4  5  1  0  0  0  0
  5  6  1  0  0  0  0
  6  7  2  0  0  0  0
  7  8  1  0  0  0  0
  8  9  1  0  0  0  0
  7 10  1  0  0  0  0
 10 11  1  0  0  0  0
 11 12  1  0  0  0  0
 10 13  2  0  0  0  0
  3 14  1  0  0  0  0
 14 15  1  0  0  0  0
 15 16  1  0  0  0  0
 16 17  2  0  0  0  0
 17 18  1  0  0  0  0
 18 19  1  0  0  0  0
 19 20  2  0  0  0  0
 20 21  1  0  0  0  0
 21 22  1  0  0  0  0
 20 23  1  0  0  0  0
 23 24  1  0  0  0  0
 24 25  1  0  0  0  0
 23 26  2  0  0  0  0
 16 27  1  0  0  0  0
 27 28  2  0  0  0  0
 28 29  1  0  0  0  0
 29 30  2  0  0  0  0
 30 31  1  0  0  0  0
 31 32  2  0  0  0  0
 32 33  1  0  0  0  0
 33 34  2  0  0  0  0
 34 35  1  0  0  0  0
 35 36  1  0  0  0  0
 36 37  1  0  0  0  0
 34 38  1  0  0  0  0
 38 39  1  0  0  0  0
 38 40  2  0  0  0  0
 30 41  1  0  0  0  0
 41 42  2  0  0  0  0
 42 43  1  0  0  0  0
 43 44  1  0  0  0  0
 44 45  2  0  0  0  0
 45 46  1  0  0  0  0
 46 47  2  0  0  0  0
 47 48  1  0  0  0  0
 48 49  1  0  0  0  0
 49 50  1  0  0  0  0
 47 51  1  0  0  0  0
 51 52  2  0  0  0  0
 51 53  1  0  0  0  0
 43 54  2  0  0  0  0
 54 55  1  0  0  0  0
 42 56  1  0  0  0  0
 56 57  2  0  0  0  0
 57 58  1  0  0  0  0
 57 59  1  0  0  0  0
 59 60  1  0  0  0  0
 60 61  1  0  0  0  0
 61 62  2  0  0  0  0
 62 63  1  0  0  0  0
 63 64  1  0  0  0  0
 64 65  2  0  0  0  0
 65 66  1  0  0  0  0
 66 67  1  0  0  0  0
 65 68  1  0  0  0  0
 68 69  1  0  0  0  0
 69 70  1  0  0  0  0
 68 71  2  0  0  0  0
 61 72  1  0  0  0  0
 72 73  1  0  0  0  0
 73 74  1  0  0  0  0
 74 75  2  0  0  0  0
 75 76  1  0  0  0  0
 76 77  1  0  0  0  0
 77 78  2  0  0  0  0
 78 79  1  0  0  0  0
 79 80  1  0  0  0  0
 78 81  1  0  0  0  0
 81 82  1  0  0  0  0
 82 83  1  0  0  0  0
 81 84  2  0  0  0  0
 74 85  1  0  0  0  0
 85 86  2  0  0  0  0
 86 87  1  0  0  0  0
 87 88  2  0  0  0  0
 88 89  1  0  0  0  0
 89 90  2  0  0  0  0
 90 91  1  0  0  0  0
 91 92  2  0  0  0  0
 92 93  1  0  0  0  0
 93 94  1  0  0  0  0
 94 95  1  0  0  0  0
 92 96  1  0  0  0  0
 96 97  1  0  0  0  0
 96 98  2  0  0  0  0
 88 99  1  0  0  0  0
 99100  2  0  0  0  0
100101  1  0  0  0  0
101102  1  0  0  0  0
102103  2  0  0  0  0
103104  1  0  0  0  0
104105  2  0  0  0  0
105106  1  0  0  0  0
106107  1  0  0  0  0
107108  1  0  0  0  0
105109  1  0  0  0  0
109110  2  0  0  0  0
109111  1  0  0  0  0
101112  2  0  0  0  0
112113  1  0  0  0  0
100114  1  0  0  0  0
114115  2  0  0  0  0
115116  1  0  0  0  0
  5  1  2  0  0  0  0
 18 14  2  0  0  0  0
 55 27  1  0  0  0  0
 63 59  2  0  0  0  0
 76 72  2  0  0  0  0
113 85  1  0  0  0  0
 13  4  1  0  0  0  0
 26 17  1  0  0  0  0
 54 29  1  0  0  0  0
 71 62  1  0  0  0  0
 84 75  1  0  0  0  0
112 87  1  0  0  0  0
 40 31  1  0  0  0  0
 58 41  1  0  0  0  0
 98 89  1  0  0  0  0
116 99  1  0  0  0  0
 52 44  1  0  0  0  0
110102  1  0  0  0  0
  1117  1  0  0  0  0
  6118  1  0  0  0  0
  9119  1  0  0  0  0
  9120  1  0  0  0  0
  9121  1  0  0  0  0
 12122  1  0  0  0  0
 12123  1  0  0  0  0
 12124  1  0  0  0  0
 13125  1  0  0  0  0
 19126  1  0  0  0  0
 22127  1  0  0  0  0
 22128  1  0  0  0  0
 22129  1  0  0  0  0
 25130  1  0  0  0  0
 25131  1  0  0  0  0
 25132  1  0  0  0  0
 26133  1  0  0  0  0
 28134  1  0  0  0  0
 32135  1  0  0  0  0
 33136  1  0  0  0  0
 36137  1  0  0  0  0
 36138  1  0  0  0  0
 37139  1  0  0  0  0
 37140  1  0  0  0  0
 37141  1  0  0  0  0
 40142  1  0  0  0  0
 45143  1  0  0  0  0
 46144  1  0  0  0  0
 49145  1  0  0  0  0
 49146  1  0  0  0  0
 50147  1  0  0  0  0
 50148  1  0  0  0  0
 50149  1  0  0  0  0
 52150  1  0  0  0  0
 56151  1  0  0  0  0
 64152  1  0  0  0  0
 67153  1  0  0  0  0
 67154  1  0  0  0  0
 67155  1  0  0  0  0
 70156  1  0  0  0  0
 70157  1  0  0  0  0
 70158  1  0  0  0  0
 71159  1  0  0  0  0
 77160  1  0  0  0  0
 80161  1  0  0  0  0
 80162  1  0  0  0  0
 80163  1  0  0  0  0
 83164  1  0  0  0  0
 83165  1  0  0  0  0
 83166  1  0  0  0  0
 84167  1  0  0  0  0
 86168  1  0  0  0  0
 90169  1  0  0  0  0
 91170  1  0  0  0  0
 94171  1  0  0  0  0
 94172  1  0  0  0  0
 95173  1  0  0  0  0
 95174  1  0  0  0  0
 95175  1  0  0  0  0
 98176  1  0  0  0  0
103177  1  0  0  0  0
104178  1  0  0  0  0
107179  1  0  0  0  0
107180  1  0  0  0  0
108181  1  0  0  0  0
108182  1  0  0  0  0
108183  1  0  0  0  0
110184  1  0  0  0  0
114185  1  0  0  0  0
115186  1  0  0  0  0
M  END
