
  xtb     03012213313D
 energy: -191.974053831674 gnorm: 0.000652162247 xtb: 6.4.1 (unknown)
 83 94  0     0  0            999 V2000
   10.3557    3.8623   -1.4714 C   0  0  0  0  0  0  0  0  0  0  0  0
    9.2364    3.5167   -0.2090 S   0  0  0  0  0  0  0  0  0  0  0  0
    8.1035    2.7604   -1.2973 C   0  0  0  0  0  0  0  0  0  0  0  0
    8.6023    2.7874   -2.6008 C   0  0  0  0  0  0  0  0  0  0  0  0
    9.8873    3.4224   -2.6698 C   0  0  0  0  0  0  0  0  0  0  0  0
   10.5195    3.4774   -4.2894 S   0  0  0  0  0  0  0  0  0  0  0  0
    9.0696    2.6685   -4.8363 C   0  0  0  0  0  0  0  0  0  0  0  0
    8.9721    2.4133   -6.2169 N   0  0  0  0  0  4  0  0  0  0  0  0
    7.9683    1.8626   -6.6219 O   0  0  0  0  0  1  0  0  0  0  0  0
    9.9126    2.7717   -6.9017 O   0  0  0  0  0  0  0  0  0  0  0  0
    8.1553    2.3624   -3.8675 C   0  0  0  0  0  0  0  0  0  0  0  0
    6.8854    2.2422   -0.8165 C   0  0  0  0  0  0  0  0  0  0  0  0
    5.7420    1.4086   -1.8591 S   0  0  0  0  0  0  0  0  0  0  0  0
    4.6012    1.1477   -0.5668 C   0  0  0  0  0  0  0  0  0  0  0  0
    5.0994    1.6862    0.6298 C   0  0  0  0  0  0  0  0  0  0  0  0
    6.3788    2.2889    0.4696 C   0  0  0  0  0  0  0  0  0  0  0  0
    6.9941    2.9570    1.9471 S   0  0  0  0  0  0  0  0  0  0  0  0
    5.5341    2.4255    2.7510 C   0  0  0  0  0  0  0  0  0  0  0  0
    5.3875    2.6952    4.1188 N   0  0  0  0  0  4  0  0  0  0  0  0
    6.2996    3.2790    4.6727 O   0  0  0  0  0  1  0  0  0  0  0  0
    4.3542    2.3261    4.6540 O   0  0  0  0  0  0  0  0  0  0  0  0
    4.6330    1.7763    1.9514 C   0  0  0  0  0  0  0  0  0  0  0  0
    3.3819    0.4992   -0.7787 C   0  0  0  0  0  0  0  0  0  0  0  0
    2.2111    0.3126    0.5150 S   0  0  0  0  0  0  0  0  0  0  0  0
    1.0378   -0.5072   -0.4882 C   0  0  0  0  0  0  0  0  0  0  0  0
    1.5632   -0.6362   -1.7920 C   0  0  0  0  0  0  0  0  0  0  0  0
    2.8596   -0.0686   -1.9314 C   0  0  0  0  0  0  0  0  0  0  0  0
    3.5013   -0.2116   -3.5301 S   0  0  0  0  0  0  0  0  0  0  0  0
    2.0288   -1.0230   -3.9985 C   0  0  0  0  0  0  0  0  0  0  0  0
    1.9304   -1.4302   -5.3432 N   0  0  0  0  0  4  0  0  0  0  0  0
    2.8966   -1.2024   -6.0457 O   0  0  0  0  0  1  0  0  0  0  0  0
    0.9010   -1.9672   -5.6963 O   0  0  0  0  0  0  0  0  0  0  0  0
    1.1027   -1.1825   -3.0060 C   0  0  0  0  0  0  0  0  0  0  0  0
   -0.2034   -0.9173    0.0005 C   0  0  0  0  0  0  0  0  0  0  0  0
   -1.3105   -1.7718   -1.0444 S   0  0  0  0  0  0  0  0  0  0  0  0
   -2.5448   -1.8620    0.1715 C   0  0  0  0  0  0  0  0  0  0  0  0
   -2.1070   -1.2617    1.3705 C   0  0  0  0  0  0  0  0  0  0  0  0
   -0.7877   -0.7370    1.2776 C   0  0  0  0  0  0  0  0  0  0  0  0
   -0.2258   -0.1187    2.4011 C   0  0  0  0  0  0  0  0  0  0  0  0
   -0.9135   -0.0080    3.5904 C   0  0  0  0  0  0  0  0  0  0  0  0
   -0.3910    0.5838    4.6900 O   0  0  0  0  0  0  0  0  0  0  0  0
    0.9137    1.1220    4.6382 C   0  0  0  0  0  0  0  0  0  0  0  0
   -2.2400   -0.5427    3.6870 C   0  0  0  0  0  0  0  0  0  0  0  0
   -3.0400   -0.5289    4.7706 O   0  0  0  0  0  0  0  0  0  0  0  0
   -2.6645    0.0642    5.9972 C   0  0  0  0  0  0  0  0  0  0  0  0
   -2.7987   -1.1510    2.5809 C   0  0  0  0  0  0  0  0  0  0  0  0
   -3.7697   -2.4689   -0.1469 C   0  0  0  0  0  0  0  0  0  0  0  0
   -5.1683   -2.4461    0.9121 S   0  0  0  0  0  0  0  0  0  0  0  0
   -6.1698   -3.3252   -0.2096 C   0  0  0  0  0  0  0  0  0  0  0  0
   -5.4411   -3.6376   -1.3607 C   0  0  0  0  0  0  0  0  0  0  0  0
   -4.1070   -3.1460   -1.3131 C   0  0  0  0  0  0  0  0  0  0  0  0
   -3.1978   -3.5404   -2.7337 S   0  0  0  0  0  0  0  0  0  0  0  0
   -4.6056   -4.3606   -3.3609 C   0  0  0  0  0  0  0  0  0  0  0  0
   -4.4809   -4.9834   -4.6218 N   0  0  0  0  0  4  0  0  0  0  0  0
   -5.4623   -5.5394   -5.0701 O   0  0  0  0  0  1  0  0  0  0  0  0
   -3.3935   -4.9135   -5.1554 O   0  0  0  0  0  0  0  0  0  0  0  0
   -5.7079   -4.3364   -2.5572 C   0  0  0  0  0  0  0  0  0  0  0  0
   -7.5101   -3.6115    0.1129 C   0  0  0  0  0  0  0  0  0  0  0  0
   -8.5890   -4.4764   -0.9654 S   0  0  0  0  0  0  0  0  0  0  0  0
   -9.9072   -4.3728    0.1166 C   0  0  0  0  0  0  0  0  0  0  0  0
   -9.5661   -3.7072    1.2713 C   0  0  0  0  0  0  0  0  0  0  0  0
   -8.2017   -3.2772    1.2634 C   0  0  0  0  0  0  0  0  0  0  0  0
   -7.7537   -2.4360    2.7085 S   0  0  0  0  0  0  0  0  0  0  0  0
   -9.3861   -2.6672    3.2995 C   0  0  0  0  0  0  0  0  0  0  0  0
   -9.6720   -2.1385    4.5786 N   0  0  0  0  0  4  0  0  0  0  0  0
  -10.7960   -2.2821    5.0094 O   0  0  0  0  0  1  0  0  0  0  0  0
   -8.7566   -1.5784    5.1474 O   0  0  0  0  0  0  0  0  0  0  0  0
  -10.2302   -3.3378    2.4687 C   0  0  0  0  0  0  0  0  0  0  0  0
   11.2746    4.3632   -1.2474 H   0  0  0  0  0  0  0  0  0  0  0  0
    7.2266    1.8651   -4.0800 H   0  0  0  0  0  0  0  0  0  0  0  0
    3.7004    1.3980    2.3247 H   0  0  0  0  0  0  0  0  0  0  0  0
    0.1595   -1.6686   -3.1724 H   0  0  0  0  0  0  0  0  0  0  0  0
    0.7702    0.2774    2.3395 H   0  0  0  0  0  0  0  0  0  0  0  0
    1.0985    1.5386    5.6258 H   0  0  0  0  0  0  0  0  0  0  0  0
    0.9908    1.9182    3.8934 H   0  0  0  0  0  0  0  0  0  0  0  0
    1.6602    0.3510    4.4319 H   0  0  0  0  0  0  0  0  0  0  0  0
   -2.4629    1.1308    5.8860 H   0  0  0  0  0  0  0  0  0  0  0  0
   -1.7933   -0.4271    6.4337 H   0  0  0  0  0  0  0  0  0  0  0  0
   -3.5272   -0.0775    6.6472 H   0  0  0  0  0  0  0  0  0  0  0  0
   -3.7942   -1.5440    2.6970 H   0  0  0  0  0  0  0  0  0  0  0  0
   -6.6378   -4.8035   -2.8240 H   0  0  0  0  0  0  0  0  0  0  0  0
  -10.8523   -4.8008   -0.1494 H   0  0  0  0  0  0  0  0  0  0  0  0
  -11.2571   -3.5491    2.7037 H   0  0  0  0  0  0  0  0  0  0  0  0
  1  2  1  0  0  0  0
  2  3  1  0  0  0  0
  3  4  2  0  0  0  0
  4  5  1  0  0  0  0
  5  6  1  0  0  0  0
  6  7  1  0  0  0  0
  7  8  1  0  0  0  0
  8  9  1  0  0  0  0
  8 10  2  0  0  0  0
  7 11  2  0  0  0  0
  3 12  1  0  0  0  0
 12 13  1  0  0  0  0
 13 14  1  0  0  0  0
 14 15  2  0  0  0  0
 15 16  1  0  0  0  0
 16 17  1  0  0  0  0
 17 18  1  0  0  0  0
 18 19  1  0  0  0  0
 19 20  1  0  0  0  0
 19 21  2  0  0  0  0
 18 22  2  0  0  0  0
 14 23  1  0  0  0  0
 23 24  1  0  0  0  0
 24 25  1  0  0  0  0
 25 26  2  0  0  0  0
 26 27  1  0  0  0  0
 27 28  1  0  0  0  0
 28 29  1  0  0  0  0
 29 30  1  0  0  0  0
 30 31  1  0  0  0  0
 30 32  2  0  0  0  0
 29 33  2  0  0  0  0
 25 34  1  0  0  0  0
 34 35  1  0  0  0  0
 35 36  1  0  0  0  0
 36 37  2  0  0  0  0
 37 38  1  0  0  0  0
 38 39  1  0  0  0  0
 39 40  2  0  0  0  0
 40 41  1  0  0  0  0
 41 42  1  0  0  0  0
 40 43  1  0  0  0  0
 43 44  1  0  0  0  0
 44 45  1  0  0  0  0
 43 46  2  0  0  0  0
 36 47  1  0  0  0  0
 47 48  1  0  0  0  0
 48 49  1  0  0  0  0
 49 50  2  0  0  0  0
 50 51  1  0  0  0  0
 51 52  1  0  0  0  0
 52 53  1  0  0  0  0
 53 54  1  0  0  0  0
 54 55  1  0  0  0  0
 54 56  2  0  0  0  0
 53 57  2  0  0  0  0
 49 58  1  0  0  0  0
 58 59  1  0  0  0  0
 59 60  1  0  0  0  0
 60 61  2  0  0  0  0
 61 62  1  0  0  0  0
 62 63  1  0  0  0  0
 63 64  1  0  0  0  0
 64 65  1  0  0  0  0
 65 66  1  0  0  0  0
 65 67  2  0  0  0  0
 64 68  2  0  0  0  0
  5  1  2  0  0  0  0
 16 12  2  0  0  0  0
 27 23  2  0  0  0  0
 38 34  2  0  0  0  0
 51 47  2  0  0  0  0
 62 58  2  0  0  0  0
 11  4  1  0  0  0  0
 22 15  1  0  0  0  0
 33 26  1  0  0  0  0
 46 37  1  0  0  0  0
 57 50  1  0  0  0  0
 68 61  1  0  0  0  0
  1 69  1  0  0  0  0
 11 70  1  0  0  0  0
 22 71  1  0  0  0  0
 33 72  1  0  0  0  0
 39 73  1  0  0  0  0
 42 74  1  0  0  0  0
 42 75  1  0  0  0  0
 42 76  1  0  0  0  0
 45 77  1  0  0  0  0
 45 78  1  0  0  0  0
 45 79  1  0  0  0  0
 46 80  1  0  0  0  0
 57 81  1  0  0  0  0
 60 82  1  0  0  0  0
 68 83  1  0  0  0  0
M  CHG  1   8   1
M  CHG  1   9  -1
M  CHG  1  19   1
M  CHG  1  20  -1
M  CHG  1  30   1
M  CHG  1  31  -1
M  CHG  1  54   1
M  CHG  1  55  -1
M  CHG  1  65   1
M  CHG  1  66  -1
M  END
