
  xtb     03022202333D
 energy: -363.128446295858 gnorm: 0.000368506592 xtb: 6.4.1 (unknown)
223244  0     0  0            999 V2000
    6.3002   -3.5064    5.0222 C   0  0  0  0  0  0  0  0  0  0  0  0
    5.1643   -3.1721    4.2973 C   0  0  0  0  0  0  0  0  0  0  0  0
    4.5891   -1.9388    4.5355 C   0  0  0  0  0  0  0  0  0  0  0  0
    5.1457   -1.0424    5.4561 C   0  0  0  0  0  0  0  0  0  0  0  0
    6.2736   -1.3841    6.1659 C   0  0  0  0  0  0  0  0  0  0  0  0
    6.8420   -2.6339    5.9503 C   0  0  0  0  0  0  0  0  0  0  0  0
    4.3658    0.2310    5.3880 C   0  0  0  0  0  0  0  0  0  0  0  0
    3.2120   -0.1309    4.4644 C   0  0  0  0  0  0  0  0  0  0  0  0
    2.2553    0.5568    4.1800 O   0  0  0  0  0  0  0  0  0  0  0  0
    3.4581   -1.3754    3.9598 N   0  0  0  0  0  0  0  0  0  0  0  0
    2.5973   -2.0214    2.9988 C   0  0  0  0  0  0  0  0  0  0  0  0
    1.7379   -3.1112    3.6289 C   0  0  0  0  0  0  0  0  0  0  0  0
    3.9369    0.9073    6.6939 C   0  0  0  0  0  0  0  0  0  0  0  0
    5.1644    1.4744    7.4112 C   0  0  0  0  0  0  0  0  0  0  0  0
    6.0068    2.2066    6.9509 O   0  0  0  0  0  0  0  0  0  0  0  0
    5.1520    0.9797    8.6823 N   0  0  0  0  0  0  0  0  0  0  0  0
    4.0606    0.1507    8.9149 C   0  0  0  0  0  0  0  0  0  0  0  0
    3.6894   -0.4827   10.0799 C   0  0  0  0  0  0  0  0  0  0  0  0
    2.5113   -1.2394   10.0840 C   0  0  0  0  0  0  0  0  0  0  0  0
    1.7331   -1.3010    8.9255 C   0  0  0  0  0  0  0  0  0  0  0  0
    2.1256   -0.6692    7.7549 C   0  0  0  0  0  0  0  0  0  0  0  0
    3.3000    0.0524    7.7453 C   0  0  0  0  0  0  0  0  0  0  0  0
    2.1171   -1.8831   11.3373 C   0  0  0  0  0  0  0  0  0  0  0  0
    1.4589   -3.0343   11.5078 C   0  0  0  0  0  0  0  0  0  0  0  0
    1.0351   -3.9529   10.4544 C   0  0  0  0  0  0  0  0  0  0  0  0
    1.8636   -4.2007    9.3571 C   0  0  0  0  0  0  0  0  0  0  0  0
    1.3631   -4.9582    8.3239 C   0  0  0  0  0  0  0  0  0  0  0  0
    0.0783   -5.5095    8.3710 C   0  0  0  0  0  0  0  0  0  0  0  0
   -0.7060   -5.3349    9.4884 C   0  0  0  0  0  0  0  0  0  0  0  0
   -0.2162   -4.5609   10.5311 C   0  0  0  0  0  0  0  0  0  0  0  0
   -0.2079   -6.1505    7.0496 C   0  0  0  0  0  0  0  0  0  0  0  0
    1.0931   -5.9110    6.2761 C   0  0  0  0  0  0  0  0  0  0  0  0
    1.3326   -6.2264    5.1311 O   0  0  0  0  0  0  0  0  0  0  0  0
    1.9521   -5.2461    7.0993 N   0  0  0  0  0  0  0  0  0  0  0  0
    3.2793   -4.8357    6.7147 C   0  0  0  0  0  0  0  0  0  0  0  0
    4.3565   -5.6579    7.4150 C   0  0  0  0  0  0  0  0  0  0  0  0
   -1.3925   -5.4732    6.3297 C   0  0  0  0  0  0  0  0  0  0  0  0
   -1.0791   -3.9942    6.0717 C   0  0  0  0  0  0  0  0  0  0  0  0
   -0.7601   -3.1557    6.8818 O   0  0  0  0  0  0  0  0  0  0  0  0
   -1.2104   -3.7843    4.7336 N   0  0  0  0  0  0  0  0  0  0  0  0
   -1.4965   -4.9525    4.0390 C   0  0  0  0  0  0  0  0  0  0  0  0
   -1.6073   -5.1327    2.6799 C   0  0  0  0  0  0  0  0  0  0  0  0
   -1.9211   -6.4109    2.2039 C   0  0  0  0  0  0  0  0  0  0  0  0
   -2.0980   -7.4491    3.1252 C   0  0  0  0  0  0  0  0  0  0  0  0
   -1.9572   -7.2598    4.4908 C   0  0  0  0  0  0  0  0  0  0  0  0
   -1.6481   -5.9998    4.9520 C   0  0  0  0  0  0  0  0  0  0  0  0
   -2.0180   -6.7446    0.7903 C   0  0  0  0  0  0  0  0  0  0  0  0
   -1.9462   -5.9726   -0.2995 C   0  0  0  0  0  0  0  0  0  0  0  0
   -1.8431   -4.5139   -0.4194 C   0  0  0  0  0  0  0  0  0  0  0  0
   -2.8002   -3.6713    0.1527 C   0  0  0  0  0  0  0  0  0  0  0  0
   -2.6715   -2.3098   -0.0386 C   0  0  0  0  0  0  0  0  0  0  0  0
   -1.6078   -1.7757   -0.7782 C   0  0  0  0  0  0  0  0  0  0  0  0
   -0.6704   -2.6054   -1.3491 C   0  0  0  0  0  0  0  0  0  0  0  0
   -0.8033   -3.9765   -1.1758 C   0  0  0  0  0  0  0  0  0  0  0  0
   -1.7649   -0.2901   -0.8281 C   0  0  0  0  0  0  0  0  0  0  0  0
   -3.0231   -0.0635    0.0085 C   0  0  0  0  0  0  0  0  0  0  0  0
   -3.5445    0.9975    0.2644 O   0  0  0  0  0  0  0  0  0  0  0  0
   -3.4754   -1.2823    0.4302 N   0  0  0  0  0  0  0  0  0  0  0  0
   -4.7319   -1.4523    1.1192 C   0  0  0  0  0  0  0  0  0  0  0  0
   -5.8264   -1.9295    0.1695 C   0  0  0  0  0  0  0  0  0  0  0  0
   -2.0226    0.2281   -2.2534 C   0  0  0  0  0  0  0  0  0  0  0  0
   -3.1129   -0.5884   -2.9449 C   0  0  0  0  0  0  0  0  0  0  0  0
   -4.2431   -0.7920   -2.5662 O   0  0  0  0  0  0  0  0  0  0  0  0
   -2.5890   -1.0562   -4.1140 N   0  0  0  0  0  0  0  0  0  0  0  0
   -1.2802   -0.6345   -4.3078 C   0  0  0  0  0  0  0  0  0  0  0  0
   -0.4673   -0.8175   -5.4038 C   0  0  0  0  0  0  0  0  0  0  0  0
    0.7775   -0.1821   -5.4080 C   0  0  0  0  0  0  0  0  0  0  0  0
    1.2222    0.4742   -4.2610 C   0  0  0  0  0  0  0  0  0  0  0  0
    0.4059    0.6272   -3.1485 C   0  0  0  0  0  0  0  0  0  0  0  0
   -0.8721    0.1150   -3.2002 C   0  0  0  0  0  0  0  0  0  0  0  0
    1.6014   -0.1622   -6.6174 C   0  0  0  0  0  0  0  0  0  0  0  0
    1.2117    0.2628   -7.8326 C   0  0  0  0  0  0  0  0  0  0  0  0
   -0.0411    0.8106   -8.2536 C   0  0  0  0  0  0  0  0  0  0  0  0
   -1.3439    1.1955   -7.1766 S   0  0  0  0  0  0  0  0  0  0  0  0
   -2.3720    1.7497   -8.4488 C   0  0  0  0  0  0  0  0  0  0  0  0
   -1.7251    1.6693   -9.6739 C   0  0  0  0  0  0  0  0  0  0  0  0
   -0.3968    1.1457   -9.5630 C   0  0  0  0  0  0  0  0  0  0  0  0
    0.3844    1.0005  -10.7332 C   0  0  0  0  0  0  0  0  0  0  0  0
   -0.1297    1.3398  -11.9511 C   0  0  0  0  0  0  0  0  0  0  0  0
    0.5271    1.2559  -13.1358 O   0  0  0  0  0  0  0  0  0  0  0  0
    1.8545    0.7959  -13.1331 C   0  0  0  0  0  0  0  0  0  0  0  0
   -1.4856    1.8189  -12.0649 C   0  0  0  0  0  0  0  0  0  0  0  0
   -1.8772    2.0784  -13.3388 O   0  0  0  0  0  0  0  0  0  0  0  0
   -3.1840    2.5518  -13.5476 C   0  0  0  0  0  0  0  0  0  0  0  0
   -2.2563    1.9729  -10.9513 C   0  0  0  0  0  0  0  0  0  0  0  0
   -3.7378    2.1204   -8.1292 C   0  0  0  0  0  0  0  0  0  0  0  0
   -4.4393    1.3487   -7.1928 C   0  0  0  0  0  0  0  0  0  0  0  0
   -5.7494    1.6728   -6.9183 C   0  0  0  0  0  0  0  0  0  0  0  0
   -6.3618    2.7817   -7.5175 C   0  0  0  0  0  0  0  0  0  0  0  0
   -5.6723    3.5480   -8.4298 C   0  0  0  0  0  0  0  0  0  0  0  0
   -4.3626    3.2086   -8.7391 C   0  0  0  0  0  0  0  0  0  0  0  0
   -7.7290    2.9323   -6.9284 C   0  0  0  0  0  0  0  0  0  0  0  0
   -7.8789    1.6479   -6.1142 C   0  0  0  0  0  0  0  0  0  0  0  0
   -8.8651    1.2605   -5.5343 O   0  0  0  0  0  0  0  0  0  0  0  0
   -6.6600    1.0251   -6.0967 N   0  0  0  0  0  0  0  0  0  0  0  0
   -6.3985   -0.1665   -5.3255 C   0  0  0  0  0  0  0  0  0  0  0  0
   -6.3231   -1.4145   -6.2000 C   0  0  0  0  0  0  0  0  0  0  0  0
   -7.7627    4.1215   -5.9278 C   0  0  0  0  0  0  0  0  0  0  0  0
   -7.3970    5.3972   -6.6897 C   0  0  0  0  0  0  0  0  0  0  0  0
   -8.0375    5.9553   -7.5463 O   0  0  0  0  0  0  0  0  0  0  0  0
   -6.1584    5.7758   -6.2577 N   0  0  0  0  0  0  0  0  0  0  0  0
   -5.6818    4.9646   -5.2350 C   0  0  0  0  0  0  0  0  0  0  0  0
   -4.4770    5.0143   -4.5732 C   0  0  0  0  0  0  0  0  0  0  0  0
   -4.2370    4.0869   -3.5501 C   0  0  0  0  0  0  0  0  0  0  0  0
   -5.2252    3.1554   -3.2218 C   0  0  0  0  0  0  0  0  0  0  0  0
   -6.4289    3.1059   -3.9070 C   0  0  0  0  0  0  0  0  0  0  0  0
   -6.6479    3.9995   -4.9336 C   0  0  0  0  0  0  0  0  0  0  0  0
   -2.9530    4.1135   -2.8722 C   0  0  0  0  0  0  0  0  0  0  0  0
   -2.7077    3.6055   -1.6567 C   0  0  0  0  0  0  0  0  0  0  0  0
   -1.4184    3.5954   -0.9874 C   0  0  0  0  0  0  0  0  0  0  0  0
   -0.2172    3.7182   -1.6966 C   0  0  0  0  0  0  0  0  0  0  0  0
    0.9654    3.6411   -0.9945 C   0  0  0  0  0  0  0  0  0  0  0  0
    0.9839    3.4670    0.3932 C   0  0  0  0  0  0  0  0  0  0  0  0
   -0.1954    3.3491    1.0947 C   0  0  0  0  0  0  0  0  0  0  0  0
   -1.3903    3.4062    0.3963 C   0  0  0  0  0  0  0  0  0  0  0  0
    2.4064    3.3527    0.8394 C   0  0  0  0  0  0  0  0  0  0  0  0
    3.1780    3.4591   -0.4777 C   0  0  0  0  0  0  0  0  0  0  0  0
    4.3757    3.3685   -0.6321 O   0  0  0  0  0  0  0  0  0  0  0  0
    2.2710    3.6535   -1.4778 N   0  0  0  0  0  0  0  0  0  0  0  0
    2.6444    3.8454   -2.8571 C   0  0  0  0  0  0  0  0  0  0  0  0
    2.5782    5.3180   -3.2533 C   0  0  0  0  0  0  0  0  0  0  0  0
    2.6935    2.0161    1.5354 C   0  0  0  0  0  0  0  0  0  0  0  0
    2.4497    0.8350    0.6014 C   0  0  0  0  0  0  0  0  0  0  0  0
    1.4600    0.5995   -0.0568 O   0  0  0  0  0  0  0  0  0  0  0  0
    3.5602    0.0483    0.6449 N   0  0  0  0  0  0  0  0  0  0  0  0
    4.5517    0.5813    1.4613 C   0  0  0  0  0  0  0  0  0  0  0  0
    5.7796    0.0516    1.7854 C   0  0  0  0  0  0  0  0  0  0  0  0
    6.6066    0.7790    2.6476 C   0  0  0  0  0  0  0  0  0  0  0  0
    6.1814    2.0246    3.1166 C   0  0  0  0  0  0  0  0  0  0  0  0
    4.9303    2.5370    2.7994 C   0  0  0  0  0  0  0  0  0  0  0  0
    4.1031    1.7988    1.9835 C   0  0  0  0  0  0  0  0  0  0  0  0
    7.8964    0.2628    3.0920 C   0  0  0  0  0  0  0  0  0  0  0  0
    8.2606   -1.0132    3.0948 C   0  0  0  0  0  0  0  0  0  0  0  0
    6.7702   -4.4637    4.8508 H   0  0  0  0  0  0  0  0  0  0  0  0
    4.7573   -3.8557    3.5689 H   0  0  0  0  0  0  0  0  0  0  0  0
    6.7171   -0.6922    6.8645 H   0  0  0  0  0  0  0  0  0  0  0  0
    7.7248   -2.9200    6.5013 H   0  0  0  0  0  0  0  0  0  0  0  0
    4.9719    0.9770    4.8518 H   0  0  0  0  0  0  0  0  0  0  0  0
    3.2129   -2.4367    2.1953 H   0  0  0  0  0  0  0  0  0  0  0  0
    1.9557   -1.2381    2.5857 H   0  0  0  0  0  0  0  0  0  0  0  0
    2.3273   -3.9769    3.9149 H   0  0  0  0  0  0  0  0  0  0  0  0
    0.9865   -3.4421    2.9170 H   0  0  0  0  0  0  0  0  0  0  0  0
    1.2502   -2.7243    4.5203 H   0  0  0  0  0  0  0  0  0  0  0  0
    3.2706    1.7321    6.4131 H   0  0  0  0  0  0  0  0  0  0  0  0
    5.8472    1.2117    9.3741 H   0  0  0  0  0  0  0  0  0  0  0  0
    4.2882   -0.3988   10.9750 H   0  0  0  0  0  0  0  0  0  0  0  0
    0.7978   -1.8368    8.9346 H   0  0  0  0  0  0  0  0  0  0  0  0
    1.5043   -0.7301    6.8751 H   0  0  0  0  0  0  0  0  0  0  0  0
    2.4074   -1.3326   12.2247 H   0  0  0  0  0  0  0  0  0  0  0  0
    1.1823   -3.3238   12.5142 H   0  0  0  0  0  0  0  0  0  0  0  0
    2.8480   -3.7641    9.3153 H   0  0  0  0  0  0  0  0  0  0  0  0
   -1.6938   -5.7673    9.5488 H   0  0  0  0  0  0  0  0  0  0  0  0
   -0.8349   -4.3826   11.3980 H   0  0  0  0  0  0  0  0  0  0  0  0
   -0.4056   -7.2241    7.1188 H   0  0  0  0  0  0  0  0  0  0  0  0
    3.4033   -3.7705    6.9369 H   0  0  0  0  0  0  0  0  0  0  0  0
    3.3516   -4.9842    5.6353 H   0  0  0  0  0  0  0  0  0  0  0  0
    4.2646   -6.7063    7.1415 H   0  0  0  0  0  0  0  0  0  0  0  0
    5.3368   -5.2992    7.1136 H   0  0  0  0  0  0  0  0  0  0  0  0
    4.2683   -5.5728    8.4950 H   0  0  0  0  0  0  0  0  0  0  0  0
   -2.2737   -5.5481    6.9748 H   0  0  0  0  0  0  0  0  0  0  0  0
   -1.0516   -2.8909    4.2947 H   0  0  0  0  0  0  0  0  0  0  0  0
   -1.4356   -4.3136    2.0024 H   0  0  0  0  0  0  0  0  0  0  0  0
   -2.3370   -8.4363    2.7574 H   0  0  0  0  0  0  0  0  0  0  0  0
   -2.0799   -8.0888    5.1716 H   0  0  0  0  0  0  0  0  0  0  0  0
   -2.1190   -7.8099    0.6163 H   0  0  0  0  0  0  0  0  0  0  0  0
   -1.9457   -6.4787   -1.2592 H   0  0  0  0  0  0  0  0  0  0  0  0
   -3.6148   -4.0944    0.7199 H   0  0  0  0  0  0  0  0  0  0  0  0
    0.1464   -2.1967   -1.9241 H   0  0  0  0  0  0  0  0  0  0  0  0
   -0.0804   -4.6453   -1.6193 H   0  0  0  0  0  0  0  0  0  0  0  0
   -0.9064    0.2453   -0.4114 H   0  0  0  0  0  0  0  0  0  0  0  0
   -4.9922   -0.4711    1.5248 H   0  0  0  0  0  0  0  0  0  0  0  0
   -4.5941   -2.1568    1.9462 H   0  0  0  0  0  0  0  0  0  0  0  0
   -5.8673   -1.2726   -0.6953 H   0  0  0  0  0  0  0  0  0  0  0  0
   -6.7884   -1.9197    0.6743 H   0  0  0  0  0  0  0  0  0  0  0  0
   -5.6224   -2.9384   -0.1810 H   0  0  0  0  0  0  0  0  0  0  0  0
   -2.3581    1.2693   -2.1690 H   0  0  0  0  0  0  0  0  0  0  0  0
   -3.1007   -1.6381   -4.7586 H   0  0  0  0  0  0  0  0  0  0  0  0
   -0.7856   -1.4021   -6.2534 H   0  0  0  0  0  0  0  0  0  0  0  0
    2.2140    0.9030   -4.2606 H   0  0  0  0  0  0  0  0  0  0  0  0
    0.7561    1.1342   -2.2641 H   0  0  0  0  0  0  0  0  0  0  0  0
    2.6333   -0.4633   -6.4919 H   0  0  0  0  0  0  0  0  0  0  0  0
    1.9474    0.2175   -8.6260 H   0  0  0  0  0  0  0  0  0  0  0  0
    1.3881    0.6190  -10.6466 H   0  0  0  0  0  0  0  0  0  0  0  0
    2.5041    1.4455  -12.5366 H   0  0  0  0  0  0  0  0  0  0  0  0
    1.9243   -0.2303  -12.7566 H   0  0  0  0  0  0  0  0  0  0  0  0
    2.1768    0.8206  -14.1726 H   0  0  0  0  0  0  0  0  0  0  0  0
   -3.2767    2.6960  -14.6226 H   0  0  0  0  0  0  0  0  0  0  0  0
   -3.9333    1.8271  -13.2122 H   0  0  0  0  0  0  0  0  0  0  0  0
   -3.3521    3.5061  -13.0375 H   0  0  0  0  0  0  0  0  0  0  0  0
   -3.2786    2.3044  -11.0165 H   0  0  0  0  0  0  0  0  0  0  0  0
   -3.9492    0.5142   -6.7163 H   0  0  0  0  0  0  0  0  0  0  0  0
   -6.1410    4.3990   -8.9003 H   0  0  0  0  0  0  0  0  0  0  0  0
   -3.8036    3.8180   -9.4319 H   0  0  0  0  0  0  0  0  0  0  0  0
   -8.5285    3.0611   -7.6598 H   0  0  0  0  0  0  0  0  0  0  0  0
   -5.4737   -0.0273   -4.7585 H   0  0  0  0  0  0  0  0  0  0  0  0
   -7.2263   -0.2661   -4.6191 H   0  0  0  0  0  0  0  0  0  0  0  0
   -6.1253   -2.2829   -5.5773 H   0  0  0  0  0  0  0  0  0  0  0  0
   -7.2682   -1.5655   -6.7162 H   0  0  0  0  0  0  0  0  0  0  0  0
   -5.5356   -1.3240   -6.9453 H   0  0  0  0  0  0  0  0  0  0  0  0
   -8.7587    4.1792   -5.4850 H   0  0  0  0  0  0  0  0  0  0  0  0
   -5.6687    6.5778   -6.6215 H   0  0  0  0  0  0  0  0  0  0  0  0
   -3.7310    5.7533   -4.8260 H   0  0  0  0  0  0  0  0  0  0  0  0
   -5.0424    2.4393   -2.4363 H   0  0  0  0  0  0  0  0  0  0  0  0
   -7.1771    2.3766   -3.6381 H   0  0  0  0  0  0  0  0  0  0  0  0
   -2.1639    4.6208   -3.4128 H   0  0  0  0  0  0  0  0  0  0  0  0
   -3.5140    3.1763   -1.0774 H   0  0  0  0  0  0  0  0  0  0  0  0
   -0.2248    3.8191   -2.7701 H   0  0  0  0  0  0  0  0  0  0  0  0
   -0.1909    3.1928    2.1629 H   0  0  0  0  0  0  0  0  0  0  0  0
   -2.3242    3.2805    0.9209 H   0  0  0  0  0  0  0  0  0  0  0  0
    2.7088    4.1668    1.5051 H   0  0  0  0  0  0  0  0  0  0  0  0
    3.6692    3.4774   -2.9576 H   0  0  0  0  0  0  0  0  0  0  0  0
    1.9817    3.2489   -3.4908 H   0  0  0  0  0  0  0  0  0  0  0  0
    2.8497    5.4332   -4.2991 H   0  0  0  0  0  0  0  0  0  0  0  0
    3.2690    5.8988   -2.6470 H   0  0  0  0  0  0  0  0  0  0  0  0
    1.5738    5.7084   -3.1055 H   0  0  0  0  0  0  0  0  0  0  0  0
    2.0171    1.9154    2.3934 H   0  0  0  0  0  0  0  0  0  0  0  0
    3.6731   -0.7788    0.0802 H   0  0  0  0  0  0  0  0  0  0  0  0
    6.1042   -0.8922    1.3762 H   0  0  0  0  0  0  0  0  0  0  0  0
    6.8319    2.5870    3.7698 H   0  0  0  0  0  0  0  0  0  0  0  0
    4.6154    3.4882    3.1998 H   0  0  0  0  0  0  0  0  0  0  0  0
    8.5751    1.0091    3.4839 H   0  0  0  0  0  0  0  0  0  0  0  0
    9.2260   -1.3210    3.4571 H   0  0  0  0  0  0  0  0  0  0  0  0
    7.6109   -1.8025    2.7567 H   0  0  0  0  0  0  0  0  0  0  0  0
  1  2  2  0  0  0  0
  2  3  1  0  0  0  0
  3  4  2  0  0  0  0
  4  5  1  0  0  0  0
  5  6  2  0  0  0  0
  4  7  1  0  0  0  0
  7  8  1  0  0  0  0
  8  9  2  0  0  0  0
  8 10  1  0  0  0  0
 10 11  1  0  0  0  0
 11 12  1  0  0  0  0
  7 13  1  0  0  0  0
 13 14  1  0  0  0  0
 14 15  2  0  0  0  0
 14 16  1  0  0  0  0
 16 17  1  0  0  0  0
 17 18  2  0  0  0  0
 18 19  1  0  0  0  0
 19 20  2  0  0  0  0
 20 21  1  0  0  0  0
 21 22  2  0  0  0  0
 19 23  1  0  0  0  0
 23 24  2  0  0  0  0
 24 25  1  0  0  0  0
 25 26  2  0  0  0  0
 26 27  1  0  0  0  0
 27 28  2  0  0  0  0
 28 29  1  0  0  0  0
 29 30  2  0  0  0  0
 28 31  1  0  0  0  0
 31 32  1  0  0  0  0
 32 33  2  0  0  0  0
 32 34  1  0  0  0  0
 34 35  1  0  0  0  0
 35 36  1  0  0  0  0
 31 37  1  0  0  0  0
 37 38  1  0  0  0  0
 38 39  2  0  0  0  0
 38 40  1  0  0  0  0
 40 41  1  0  0  0  0
 41 42  2  0  0  0  0
 42 43  1  0  0  0  0
 43 44  2  0  0  0  0
 44 45  1  0  0  0  0
 45 46  2  0  0  0  0
 43 47  1  0  0  0  0
 47 48  2  0  0  0  0
 48 49  1  0  0  0  0
 49 50  2  0  0  0  0
 50 51  1  0  0  0  0
 51 52  2  0  0  0  0
 52 53  1  0  0  0  0
 53 54  2  0  0  0  0
 52 55  1  0  0  0  0
 55 56  1  0  0  0  0
 56 57  2  0  0  0  0
 56 58  1  0  0  0  0
 58 59  1  0  0  0  0
 59 60  1  0  0  0  0
 55 61  1  0  0  0  0
 61 62  1  0  0  0  0
 62 63  2  0  0  0  0
 62 64  1  0  0  0  0
 64 65  1  0  0  0  0
 65 66  2  0  0  0  0
 66 67  1  0  0  0  0
 67 68  2  0  0  0  0
 68 69  1  0  0  0  0
 69 70  2  0  0  0  0
 67 71  1  0  0  0  0
 71 72  2  0  0  0  0
 72 73  1  0  0  0  0
 73 74  1  0  0  0  0
 74 75  1  0  0  0  0
 75 76  2  0  0  0  0
 76 77  1  0  0  0  0
 77 78  1  0  0  0  0
 78 79  2  0  0  0  0
 79 80  1  0  0  0  0
 80 81  1  0  0  0  0
 79 82  1  0  0  0  0
 82 83  1  0  0  0  0
 83 84  1  0  0  0  0
 82 85  2  0  0  0  0
 75 86  1  0  0  0  0
 86 87  2  0  0  0  0
 87 88  1  0  0  0  0
 88 89  2  0  0  0  0
 89 90  1  0  0  0  0
 90 91  2  0  0  0  0
 89 92  1  0  0  0  0
 92 93  1  0  0  0  0
 93 94  2  0  0  0  0
 93 95  1  0  0  0  0
 95 96  1  0  0  0  0
 96 97  1  0  0  0  0
 92 98  1  0  0  0  0
 98 99  1  0  0  0  0
 99100  2  0  0  0  0
 99101  1  0  0  0  0
101102  1  0  0  0  0
102103  2  0  0  0  0
103104  1  0  0  0  0
104105  2  0  0  0  0
105106  1  0  0  0  0
106107  2  0  0  0  0
104108  1  0  0  0  0
108109  2  0  0  0  0
109110  1  0  0  0  0
110111  2  0  0  0  0
111112  1  0  0  0  0
112113  2  0  0  0  0
113114  1  0  0  0  0
114115  2  0  0  0  0
113116  1  0  0  0  0
116117  1  0  0  0  0
117118  2  0  0  0  0
117119  1  0  0  0  0
119120  1  0  0  0  0
120121  1  0  0  0  0
116122  1  0  0  0  0
122123  1  0  0  0  0
123124  2  0  0  0  0
123125  1  0  0  0  0
125126  1  0  0  0  0
126127  2  0  0  0  0
127128  1  0  0  0  0
128129  2  0  0  0  0
129130  1  0  0  0  0
130131  2  0  0  0  0
128132  1  0  0  0  0
132133  2  0  0  0  0
  6  1  1  0  0  0  0
 22 13  1  0  0  0  0
 30 25  1  0  0  0  0
 46 37  1  0  0  0  0
 54 49  1  0  0  0  0
 70 61  1  0  0  0  0
 77 73  2  0  0  0  0
 91 86  1  0  0  0  0
107 98  1  0  0  0  0
115110  1  0  0  0  0
131122  1  0  0  0  0
 10  3  1  0  0  0  0
 22 17  1  0  0  0  0
 34 27  1  0  0  0  0
 46 41  1  0  0  0  0
 58 51  1  0  0  0  0
 70 65  1  0  0  0  0
 85 76  1  0  0  0  0
 95 88  1  0  0  0  0
107102  1  0  0  0  0
119112  1  0  0  0  0
131126  1  0  0  0  0
  1134  1  0  0  0  0
  2135  1  0  0  0  0
  5136  1  0  0  0  0
  6137  1  0  0  0  0
  7138  1  0  0  0  0
 11139  1  0  0  0  0
 11140  1  0  0  0  0
 12141  1  0  0  0  0
 12142  1  0  0  0  0
 12143  1  0  0  0  0
 13144  1  0  0  0  0
 16145  1  0  0  0  0
 18146  1  0  0  0  0
 20147  1  0  0  0  0
 21148  1  0  0  0  0
 23149  1  0  0  0  0
 24150  1  0  0  0  0
 26151  1  0  0  0  0
 29152  1  0  0  0  0
 30153  1  0  0  0  0
 31154  1  0  0  0  0
 35155  1  0  0  0  0
 35156  1  0  0  0  0
 36157  1  0  0  0  0
 36158  1  0  0  0  0
 36159  1  0  0  0  0
 37160  1  0  0  0  0
 40161  1  0  0  0  0
 42162  1  0  0  0  0
 44163  1  0  0  0  0
 45164  1  0  0  0  0
 47165  1  0  0  0  0
 48166  1  0  0  0  0
 50167  1  0  0  0  0
 53168  1  0  0  0  0
 54169  1  0  0  0  0
 55170  1  0  0  0  0
 59171  1  0  0  0  0
 59172  1  0  0  0  0
 60173  1  0  0  0  0
 60174  1  0  0  0  0
 60175  1  0  0  0  0
 61176  1  0  0  0  0
 64177  1  0  0  0  0
 66178  1  0  0  0  0
 68179  1  0  0  0  0
 69180  1  0  0  0  0
 71181  1  0  0  0  0
 72182  1  0  0  0  0
 78183  1  0  0  0  0
 81184  1  0  0  0  0
 81185  1  0  0  0  0
 81186  1  0  0  0  0
 84187  1  0  0  0  0
 84188  1  0  0  0  0
 84189  1  0  0  0  0
 85190  1  0  0  0  0
 87191  1  0  0  0  0
 90192  1  0  0  0  0
 91193  1  0  0  0  0
 92194  1  0  0  0  0
 96195  1  0  0  0  0
 96196  1  0  0  0  0
 97197  1  0  0  0  0
 97198  1  0  0  0  0
 97199  1  0  0  0  0
 98200  1  0  0  0  0
101201  1  0  0  0  0
103202  1  0  0  0  0
105203  1  0  0  0  0
106204  1  0  0  0  0
108205  1  0  0  0  0
109206  1  0  0  0  0
111207  1  0  0  0  0
114208  1  0  0  0  0
115209  1  0  0  0  0
116210  1  0  0  0  0
120211  1  0  0  0  0
120212  1  0  0  0  0
121213  1  0  0  0  0
121214  1  0  0  0  0
121215  1  0  0  0  0
122216  1  0  0  0  0
125217  1  0  0  0  0
127218  1  0  0  0  0
129219  1  0  0  0  0
130220  1  0  0  0  0
132221  1  0  0  0  0
133222  1  0  0  0  0
133223  1  0  0  0  0
M  END
