244

C          3.64570       -6.62530        7.46660
S          2.63420       -6.85780        6.11590
C          2.36340       -5.15190        5.92910
C          3.05980       -4.43730        6.90320
C          3.79810       -5.29490        7.78120
C          4.58490       -4.73820        8.82180
C          4.63070       -3.38640        8.98720
O          5.35680       -2.72670        9.92610
C          6.10690       -3.48480       10.84030
C          3.85470       -2.52270        8.12950
O          3.95420       -1.20640        8.42920
C          3.11580       -0.30070        7.75130
C          3.09600       -3.04330        7.12080
C          1.50850       -4.70650        4.88570
C          0.73320       -5.48950        4.07540
C         -0.04950       -4.76710        3.14090
C         -0.94470       -5.27560        2.18290
C         -1.09920       -6.72000        1.97870
C          0.01160       -7.53830        1.79440
C         -0.12450       -8.89960        1.60440
C         -1.38090       -9.49390        1.59090
S         -1.69830      -11.21610        1.39350
C         -0.12620      -11.88990        0.75370
C          0.15140      -11.44870       -0.67090
C         -2.48590       -8.66210        1.78110
F         -3.71890       -9.20710        1.79150
C         -2.36420       -7.30400        1.96730
C         -1.66820       -4.34460        1.45110
C         -1.51120       -2.94730        1.61890
C         -0.55320       -2.43470        2.51390
C         -0.26630       -0.99770        2.57390
C         -0.14190       -0.27640        1.38660
C          0.11420        1.07580        1.40200
C          0.28860        1.76560        2.59790
S          0.64580        3.49630        2.48350
C         -0.43540        4.23240        3.76460
C         -1.90050        3.97060        3.47810
C          0.21680        1.02750        3.77450
C         -0.07820       -0.32200        3.77550
F          0.42660        1.61840        4.97240
C          0.13300       -3.36750        3.27350
S          1.32300       -3.00520        4.49580
C         -2.40470       -2.22150        0.79540
C         -3.15730       -3.00530       -0.02810
S         -2.83180       -4.70530        0.19870
C         -4.01790       -2.45640       -1.03740
C         -4.70570       -1.28560       -0.91940
C         -5.14700       -0.75600       -2.15790
C         -5.66140        0.52860       -2.40750
C         -5.86530        1.51560       -1.33660
C         -4.84560        1.79510       -0.42680
C         -5.02080        2.74440        0.55560
C         -6.20610        3.46940        0.66200
S         -6.27700        4.68190        1.94580
C         -8.02100        4.68010        2.50200
C         -8.45970        3.31620        2.99560
C         -7.19250        3.22050       -0.28570
F         -8.34880        3.92130       -0.28710
C         -7.04040        2.25330       -1.26020
C         -5.76020        0.90810       -3.73480
C         -5.34470        0.08700       -4.81360
C         -4.87640       -1.21150       -4.56430
C         -4.25380       -2.02310       -5.62340
C         -3.13840       -1.53780       -6.30620
C         -2.52180       -2.30300       -7.26980
C         -2.99110       -3.57310       -7.60580
S         -2.13520       -4.38390       -8.92340
C         -2.31830       -6.17980       -8.62850
C         -1.68840       -6.61440       -7.32130
C         -4.10760       -4.03920       -6.92000
C         -4.71980       -3.29360       -5.92970
F         -4.64760       -5.24710       -7.19990
C         -4.80610       -1.60830       -3.23740
S         -4.01140       -3.05750       -2.68070
C         -5.15990        0.83360       -6.00660
C         -5.29850        2.18270       -5.83400
S         -6.01340        2.55800       -4.26000
C         -4.42680        3.15780       -6.41390
C         -4.08550        4.33450       -5.80800
C         -2.68950        4.60320       -5.84820
C         -1.98940        5.36640       -4.90170
C         -2.70900        6.18340       -3.90580
C         -2.55740        7.56240       -3.81370
C         -3.25800        8.27760       -2.86540
C         -4.11850        7.65240       -1.96000
S         -4.93050        8.70090       -0.79980
C         -6.37680        7.73960       -0.20180
C         -7.33620        8.68810        0.48930
C         -4.22110        6.26650       -2.03850
F         -4.98570        5.56020       -1.17520
C         -3.54220        5.54210       -2.99620
C         -0.64330        5.07920       -4.73690
C          0.03290        4.08320       -5.48470
C         -0.65100        3.37100       -6.48510
C         -0.12070        2.12970       -7.07130
C         -0.16840        1.86990       -8.43510
C          0.20690        0.63860       -8.94300
C          0.63970       -0.37980       -8.10140
S          1.09630       -2.01150       -8.58900
C          0.61530       -2.11810      -10.34520
C          1.69350       -1.59710      -11.27690
C          0.69240       -0.09840       -6.73490
C          0.31140        1.11580       -6.21740
F          1.10810       -1.05470       -5.87710
C         -1.99530        3.65670       -6.64270
S         -3.10810        2.55860       -7.43470
C          1.25440        3.70550       -4.86910
C          1.46300        4.29890       -3.65940
S          0.27940        5.55820       -3.33020
C          2.22020        3.71460       -2.58700
C          2.24230        2.36280       -2.39410
C          2.73260        1.96950       -1.12700
C          2.70840        0.67890       -0.56430
C          2.00940       -0.44040       -1.20960
C          2.51170       -1.74060       -1.17680
C          1.76610       -2.80260       -1.64670
C          0.49550       -2.61770       -2.18230
S         -0.47410       -4.03960       -2.60920
C         -0.92790       -3.70590       -4.35070
C          0.21300       -4.04280       -5.28720
C          0.01720       -1.31400       -2.24840
F         -1.21940       -1.05480       -2.73390
C          0.75090       -0.24330       -1.78080
C          3.27380        0.55840        0.69700
C          3.81830        1.65330        1.41490
C          3.75780        2.95500        0.88410
C          4.23930        4.11650        1.63730
C          5.03520        5.08180        1.02670
C          5.48640        6.18770        1.72100
C          5.15580        6.37150        3.05810
S          5.62960        7.74070        4.06010
C          6.88600        8.61680        3.06710
C          8.20410        7.86760        3.01310
C          4.35340        5.39860        3.65750
C          3.90390        4.28980        2.98000
F          4.00150        5.55070        4.95130
C          3.20590        3.07800       -0.38360
S          2.90670        4.57880       -1.23240
C          4.39390        1.24450        2.64160
C          4.28290       -0.09350        2.90180
S          3.39810       -0.91390        1.62640
C          4.86790       -0.78350        3.99930
S          5.67850        0.15450        5.22500
C          6.22660       -1.23910        6.04020
C          5.82180       -2.39600        5.41780
C          5.02350       -2.14600        4.25370
C          4.52880       -3.24460        3.51700
C          4.83410       -4.51900        3.89920
O          4.42250       -5.64400        3.26230
C          3.70870       -5.50580        2.05910
C          5.67040       -4.76610        5.04980
O          5.92560       -6.08010        5.27850
C          6.84840       -6.40680        6.28660
C          6.14250       -3.72510        5.78930
H          4.08210       -7.47350        7.95540
H          5.12980       -5.41020        9.46600
H          6.87810       -4.07790       10.33620
H          6.58330       -2.76310       11.50160
H          5.46860       -4.15100       11.43020
H          2.06000       -0.53550        7.91800
H          3.31330       -0.28650        6.67560
H          3.34130        0.67850        8.16930
H          2.52230       -2.39500        6.48350
H          0.70010       -6.55990        4.17260
H          0.99800       -7.10040        1.78150
H          0.76370       -9.49630        1.47380
H          0.67600      -11.61950        1.43920
H         -0.27410      -12.96870        0.80350
H          0.23870      -10.36630       -0.73570
H         -0.65760      -11.76570       -1.32470
H          1.07950      -11.89530       -1.02310
H         -3.25400       -6.71470        2.12180
H         -0.23290       -0.79370        0.44610
H          0.18820        1.63420        0.48220
H         -0.13360        3.85570        4.73930
H         -0.20490        5.29590        3.70790
H         -2.11590        2.90330        3.51200
H         -2.51640        4.47010        4.22280
H         -2.17040        4.35010        2.49450
H         -0.16560       -0.82770        4.72390
H         -2.47890       -1.14960        0.79850
H         -4.86400       -0.79850        0.02540
H         -3.90140        1.27850       -0.50840
H         -4.23120        2.95270        1.26110
H         -8.65220        5.04400        1.69440
H         -8.02330        5.41010        3.31180
H         -8.45960        2.59120        2.18390
H         -7.79220        2.96020        3.77760
H         -9.46860        3.37940        3.39810
H         -7.84640        2.09070       -1.95920
H         -2.73660       -0.56650       -6.05920
H         -1.65330       -1.92690       -7.78630
H         -3.37220       -6.44170       -8.68460
H         -1.79870       -6.62100       -9.47990
H         -2.19560       -6.15820       -6.47400
H         -0.63880       -6.33070       -7.29130
H         -1.76380       -7.69530       -7.22270
H         -5.57790       -3.70880       -5.42410
H         -4.76920        0.40470       -6.91220
H         -4.76510        4.87590       -5.17440
H         -1.90160        8.07630       -4.49980
H         -3.15320        9.34980       -2.80560
H         -6.02000        6.97570        0.48700
H         -6.84210        7.27370       -1.06910
H         -6.85410        9.16560        1.33930
H         -8.20170        8.13350        0.84560
H         -7.67420        9.46210       -0.19620
H         -3.65760        4.46850       -3.00310
H         -0.50560        2.63990       -9.11220
H          0.14680        0.47840      -10.00670
H         -0.33470       -1.60020      -10.46730
H          0.44690       -3.18340      -10.50260
H          1.36750       -1.69740      -12.31040
H          1.91410       -0.54990      -11.08160
H          2.61040       -2.16700      -11.14540
H          0.31050        1.25150       -5.14740
H          1.91600        2.96100       -5.27270
H          1.88280        1.66680       -3.12910
H          3.50100       -1.92140       -0.78760
H          2.15630       -3.80700       -1.59480
H         -1.23090       -2.66610       -4.43740
H         -1.79730       -4.33880       -4.52800
H         -0.08750       -3.85470       -6.31540
H          0.49370       -5.08860       -5.18280
H          1.08080       -3.42500       -5.07090
H          0.29580        0.73490       -1.80650
H          5.32680        4.96050       -0.00540
H          6.09540        6.90990        1.20260
H          6.47410        8.81190        2.07780
H          7.00330        9.56780        3.58680
H          8.93180        8.43820        2.43900
H          8.08130        6.89180        2.54820
H          8.59190        7.72040        4.01840
H          3.26700        3.58720        3.49110
H          4.92310        1.91230        3.29720
H          6.80580       -1.13750        6.93570
H          3.91180       -3.06080        2.65500
H          4.28400       -4.94690        1.31380
H          2.74450       -5.01000        2.21050
H          3.54280       -6.52080        1.70110
H          6.93000       -7.49230        6.27010
H          7.82980       -5.96390        6.08570
H          6.49980       -6.08190        7.27160
H          6.76370       -3.87460        6.65650
