
  xtb     03022203533D
 energy: -269.905099034846 gnorm: 0.000242944869 xtb: 6.4.1 (unknown)
149163  0     0  0            999 V2000
    5.4870    3.6844    9.0591 C   0  0  0  0  0  0  0  0  0  0  0  0
    4.2280    2.6128    9.4845 S   0  0  0  0  0  0  0  0  0  0  0  0
    3.5518    2.6137    7.8740 C   0  0  0  0  0  0  0  0  0  0  0  0
    4.3179    3.4531    7.0488 C   0  0  0  0  0  0  0  0  0  0  0  0
    5.4221    4.0525    7.7370 C   0  0  0  0  0  0  0  0  0  0  0  0
    6.3129    4.9177    7.0537 C   0  0  0  0  0  0  0  0  0  0  0  0
    6.1184    5.1854    5.7320 C   0  0  0  0  0  0  0  0  0  0  0  0
    6.8977    5.9842    4.9599 O   0  0  0  0  0  0  0  0  0  0  0  0
    8.0140    6.5958    5.5552 C   0  0  0  0  0  0  0  0  0  0  0  0
    4.9948    4.6056    5.0394 C   0  0  0  0  0  0  0  0  0  0  0  0
    4.9018    4.9653    3.7344 O   0  0  0  0  0  0  0  0  0  0  0  0
    3.8444    4.4427    2.9687 C   0  0  0  0  0  0  0  0  0  0  0  0
    4.1250    3.7740    5.6881 C   0  0  0  0  0  0  0  0  0  0  0  0
    2.4439    1.7954    7.5500 C   0  0  0  0  0  0  0  0  0  0  0  0
    2.0099    1.5239    5.8839 S   0  0  0  0  0  0  0  0  0  0  0  0
    0.7060    0.4458    6.2801 C   0  0  0  0  0  0  0  0  0  0  0  0
    0.6507    0.2522    7.6631 C   0  0  0  0  0  0  0  0  0  0  0  0
    1.5977    1.0404    8.3823 C   0  0  0  0  0  0  0  0  0  0  0  0
    1.5831    0.9858    9.7933 C   0  0  0  0  0  0  0  0  0  0  0  0
    0.7424    0.1297   10.4494 C   0  0  0  0  0  0  0  0  0  0  0  0
    0.6457    0.0073   11.7977 O   0  0  0  0  0  0  0  0  0  0  0  0
    1.4731    0.8111   12.6016 C   0  0  0  0  0  0  0  0  0  0  0  0
   -0.1121   -0.7589    9.7106 C   0  0  0  0  0  0  0  0  0  0  0  0
   -0.8315   -1.6219   10.4753 O   0  0  0  0  0  0  0  0  0  0  0  0
   -1.6351   -2.5732    9.8252 C   0  0  0  0  0  0  0  0  0  0  0  0
   -0.1535   -0.6852    8.3477 C   0  0  0  0  0  0  0  0  0  0  0  0
   -0.0907   -0.0797    5.2396 C   0  0  0  0  0  0  0  0  0  0  0  0
    0.6302   -0.3607    3.6811 S   0  0  0  0  0  0  0  0  0  0  0  0
   -0.8457   -0.9971    3.0123 C   0  0  0  0  0  0  0  0  0  0  0  0
   -1.8813   -0.9150    3.9522 C   0  0  0  0  0  0  0  0  0  0  0  0
   -1.4565   -0.3909    5.2078 C   0  0  0  0  0  0  0  0  0  0  0  0
   -2.4166   -0.1151    6.2060 C   0  0  0  0  0  0  0  0  0  0  0  0
   -3.7364   -0.3954    5.9875 C   0  0  0  0  0  0  0  0  0  0  0  0
   -4.7432   -0.1714    6.8724 O   0  0  0  0  0  0  0  0  0  0  0  0
   -4.4320    0.4569    8.0903 C   0  0  0  0  0  0  0  0  0  0  0  0
   -4.1635   -0.9333    4.7242 C   0  0  0  0  0  0  0  0  0  0  0  0
   -5.5032   -1.1383    4.6241 O   0  0  0  0  0  0  0  0  0  0  0  0
   -6.0215   -1.5651    3.3899 C   0  0  0  0  0  0  0  0  0  0  0  0
   -3.2539   -1.1609    3.7295 C   0  0  0  0  0  0  0  0  0  0  0  0
   -0.8628   -1.4324    1.6702 C   0  0  0  0  0  0  0  0  0  0  0  0
    0.1331   -0.6237    0.5017 S   0  0  0  0  0  0  0  0  0  0  0  0
   -0.4499   -1.5812   -0.8356 C   0  0  0  0  0  0  0  0  0  0  0  0
   -1.3668   -2.5431   -0.3539 C   0  0  0  0  0  0  0  0  0  0  0  0
   -1.5719   -2.4707    1.0551 C   0  0  0  0  0  0  0  0  0  0  0  0
   -2.3462   -3.4503    1.7035 C   0  0  0  0  0  0  0  0  0  0  0  0
   -2.9943   -4.4286    0.9952 C   0  0  0  0  0  0  0  0  0  0  0  0
   -3.7534   -5.4027    1.5907 O   0  0  0  0  0  0  0  0  0  0  0  0
   -3.7989   -5.4561    2.9942 C   0  0  0  0  0  0  0  0  0  0  0  0
   -2.8691   -4.4561   -0.4301 C   0  0  0  0  0  0  0  0  0  0  0  0
   -3.4680   -5.3309   -1.2821 O   0  0  0  0  0  0  0  0  0  0  0  0
   -4.3314   -6.3508   -0.8347 C   0  0  0  0  0  0  0  0  0  0  0  0
   -2.0499   -3.5441   -1.0589 C   0  0  0  0  0  0  0  0  0  0  0  0
   -0.0397   -1.3022   -2.1519 C   0  0  0  0  0  0  0  0  0  0  0  0
   -0.8272   -2.0675   -3.5019 S   0  0  0  0  0  0  0  0  0  0  0  0
    0.0821   -1.1735   -4.6843 C   0  0  0  0  0  0  0  0  0  0  0  0
    0.9852   -0.3150   -4.0496 C   0  0  0  0  0  0  0  0  0  0  0  0
    0.9335   -0.3957   -2.6266 C   0  0  0  0  0  0  0  0  0  0  0  0
    1.8313    0.3850   -1.8719 C   0  0  0  0  0  0  0  0  0  0  0  0
    2.7095    1.2356   -2.4879 C   0  0  0  0  0  0  0  0  0  0  0  0
    3.6100    2.0237   -1.8486 O   0  0  0  0  0  0  0  0  0  0  0  0
    3.6689    1.9703   -0.4443 C   0  0  0  0  0  0  0  0  0  0  0  0
    2.7298    1.3426   -3.9193 C   0  0  0  0  0  0  0  0  0  0  0  0
    3.6262    2.2314   -4.4113 O   0  0  0  0  0  0  0  0  0  0  0  0
    3.7021    2.3943   -5.8067 C   0  0  0  0  0  0  0  0  0  0  0  0
    1.8904    0.5687   -4.6716 C   0  0  0  0  0  0  0  0  0  0  0  0
   -0.2032   -1.4132   -6.0474 C   0  0  0  0  0  0  0  0  0  0  0  0
   -1.0563   -2.3786   -6.5196 C   0  0  0  0  0  0  0  0  0  0  0  0
   -1.2126   -2.3831   -7.9209 C   0  0  0  0  0  0  0  0  0  0  0  0
   -1.9909   -3.2519   -8.7081 C   0  0  0  0  0  0  0  0  0  0  0  0
   -2.7825   -4.3053   -8.0973 C   0  0  0  0  0  0  0  0  0  0  0  0
   -3.8883   -3.9649   -6.7964 S   0  0  0  0  0  0  0  0  0  0  0  0
   -4.3617   -5.6229   -6.6544 C   0  0  0  0  0  0  0  0  0  0  0  0
   -5.3814   -6.0498   -5.6569 C   0  0  0  0  0  0  0  0  0  0  0  0
   -6.7991   -5.8009   -6.1762 C   0  0  0  0  0  0  0  0  0  0  0  0
   -3.7069   -6.3801   -7.5783 C   0  0  0  0  0  0  0  0  0  0  0  0
   -3.9148   -8.0754   -7.7456 Cl  0  0  0  0  0  0  0  0  0  0  0  0
   -2.8090   -5.6401   -8.3940 C   0  0  0  0  0  0  0  0  0  0  0  0
   -1.8002   -6.3915   -9.5581 Cl  0  0  0  0  0  0  0  0  0  0  0  0
   -1.9752   -3.0400  -10.0827 C   0  0  0  0  0  0  0  0  0  0  0  0
   -1.2041   -2.0261  -10.6984 C   0  0  0  0  0  0  0  0  0  0  0  0
   -0.3863   -1.1929   -9.9150 C   0  0  0  0  0  0  0  0  0  0  0  0
    0.4635   -0.1799  -10.5189 C   0  0  0  0  0  0  0  0  0  0  0  0
    0.4175    1.4765   -9.9926 S   0  0  0  0  0  0  0  0  0  0  0  0
    1.6398    1.9518  -11.1228 C   0  0  0  0  0  0  0  0  0  0  0  0
    2.0694    3.3726  -11.2398 C   0  0  0  0  0  0  0  0  0  0  0  0
    1.0996    4.1681  -12.1168 C   0  0  0  0  0  0  0  0  0  0  0  0
    2.0463    0.8795  -11.8587 C   0  0  0  0  0  0  0  0  0  0  0  0
    1.3859   -0.3312  -11.5162 C   0  0  0  0  0  0  0  0  0  0  0  0
    1.7808   -1.8364  -12.2419 Cl  0  0  0  0  0  0  0  0  0  0  0  0
    3.2505    0.9571  -13.0795 Cl  0  0  0  0  0  0  0  0  0  0  0  0
   -0.4308   -1.3794   -8.5426 C   0  0  0  0  0  0  0  0  0  0  0  0
    0.4742   -0.4681   -7.3656 S   0  0  0  0  0  0  0  0  0  0  0  0
   -1.4361   -1.9675  -12.1028 C   0  0  0  0  0  0  0  0  0  0  0  0
   -2.3245   -2.8898  -12.5259 C   0  0  0  0  0  0  0  0  0  0  0  0
   -2.9390   -3.8909  -11.2566 S   0  0  0  0  0  0  0  0  0  0  0  0
    6.2002    3.9842    9.8000 H   0  0  0  0  0  0  0  0  0  0  0  0
    7.1331    5.3421    7.6092 H   0  0  0  0  0  0  0  0  0  0  0  0
    7.7187    7.2644    6.3708 H   0  0  0  0  0  0  0  0  0  0  0  0
    8.4879    7.1767    4.7658 H   0  0  0  0  0  0  0  0  0  0  0  0
    8.7234    5.8533    5.9357 H   0  0  0  0  0  0  0  0  0  0  0  0
    3.9782    4.8505    1.9681 H   0  0  0  0  0  0  0  0  0  0  0  0
    3.8798    3.3489    2.9250 H   0  0  0  0  0  0  0  0  0  0  0  0
    2.8711    4.7555    3.3605 H   0  0  0  0  0  0  0  0  0  0  0  0
    3.2804    3.3685    5.1621 H   0  0  0  0  0  0  0  0  0  0  0  0
    2.2362    1.6317   10.3510 H   0  0  0  0  0  0  0  0  0  0  0  0
    1.2355    0.5402   13.6289 H   0  0  0  0  0  0  0  0  0  0  0  0
    2.5331    0.6163   12.4088 H   0  0  0  0  0  0  0  0  0  0  0  0
    1.2691    1.8762   12.4500 H   0  0  0  0  0  0  0  0  0  0  0  0
   -2.4231   -2.1013    9.2272 H   0  0  0  0  0  0  0  0  0  0  0  0
   -2.0916   -3.1642   10.6174 H   0  0  0  0  0  0  0  0  0  0  0  0
   -1.0409   -3.2274    9.1787 H   0  0  0  0  0  0  0  0  0  0  0  0
   -0.7669   -1.3528    7.7666 H   0  0  0  0  0  0  0  0  0  0  0  0
   -2.0908    0.3595    7.1157 H   0  0  0  0  0  0  0  0  0  0  0  0
   -5.3783    0.5598    8.6184 H   0  0  0  0  0  0  0  0  0  0  0  0
   -3.7445   -0.1448    8.6952 H   0  0  0  0  0  0  0  0  0  0  0  0
   -3.9940    1.4476    7.9320 H   0  0  0  0  0  0  0  0  0  0  0  0
   -7.0977   -1.6431    3.5340 H   0  0  0  0  0  0  0  0  0  0  0  0
   -5.8121   -0.8440    2.5932 H   0  0  0  0  0  0  0  0  0  0  0  0
   -5.6242   -2.5440    3.0987 H   0  0  0  0  0  0  0  0  0  0  0  0
   -3.5662   -1.4849    2.7514 H   0  0  0  0  0  0  0  0  0  0  0  0
   -2.3885   -3.4266    2.7790 H   0  0  0  0  0  0  0  0  0  0  0  0
   -4.4216   -6.3174    3.2316 H   0  0  0  0  0  0  0  0  0  0  0  0
   -4.2514   -4.5554    3.4231 H   0  0  0  0  0  0  0  0  0  0  0  0
   -2.8026   -5.5979    3.4246 H   0  0  0  0  0  0  0  0  0  0  0  0
   -5.1976   -5.9479   -0.3055 H   0  0  0  0  0  0  0  0  0  0  0  0
   -4.6631   -6.8545   -1.7429 H   0  0  0  0  0  0  0  0  0  0  0  0
   -3.8164   -7.0671   -0.1912 H   0  0  0  0  0  0  0  0  0  0  0  0
   -1.9521   -3.6478   -2.1247 H   0  0  0  0  0  0  0  0  0  0  0  0
    1.8377    0.2981   -0.8013 H   0  0  0  0  0  0  0  0  0  0  0  0
    4.4528    2.6696   -0.1579 H   0  0  0  0  0  0  0  0  0  0  0  0
    3.9301    0.9678   -0.0901 H   0  0  0  0  0  0  0  0  0  0  0  0
    2.7216    2.2772    0.0115 H   0  0  0  0  0  0  0  0  0  0  0  0
    2.7494    2.7368   -6.2236 H   0  0  0  0  0  0  0  0  0  0  0  0
    3.9984    1.4655   -6.3047 H   0  0  0  0  0  0  0  0  0  0  0  0
    4.4653    3.1529   -5.9719 H   0  0  0  0  0  0  0  0  0  0  0  0
    1.9080    0.6199   -5.7458 H   0  0  0  0  0  0  0  0  0  0  0  0
   -1.5507   -3.0683   -5.8606 H   0  0  0  0  0  0  0  0  0  0  0  0
   -5.2304   -5.4951   -4.7287 H   0  0  0  0  0  0  0  0  0  0  0  0
   -5.2463   -7.1143   -5.4562 H   0  0  0  0  0  0  0  0  0  0  0  0
   -6.9671   -6.3580   -7.0944 H   0  0  0  0  0  0  0  0  0  0  0  0
   -6.9451   -4.7428   -6.3800 H   0  0  0  0  0  0  0  0  0  0  0  0
   -7.5298   -6.1187   -5.4371 H   0  0  0  0  0  0  0  0  0  0  0  0
    2.1100    3.8212  -10.2457 H   0  0  0  0  0  0  0  0  0  0  0  0
    3.0681    3.4012  -11.6790 H   0  0  0  0  0  0  0  0  0  0  0  0
    1.4253    5.2021  -12.1915 H   0  0  0  0  0  0  0  0  0  0  0  0
    0.1004    4.1457  -11.6885 H   0  0  0  0  0  0  0  0  0  0  0  0
    1.0596    3.7424  -13.1162 H   0  0  0  0  0  0  0  0  0  0  0  0
   -0.9668   -1.2514  -12.7519 H   0  0  0  0  0  0  0  0  0  0  0  0
   -2.6740   -3.0589  -13.5256 H   0  0  0  0  0  0  0  0  0  0  0  0
  1  2  1  0  0  0  0
  2  3  1  0  0  0  0
  3  4  2  0  0  0  0
  4  5  1  0  0  0  0
  5  6  1  0  0  0  0
  6  7  2  0  0  0  0
  7  8  1  0  0  0  0
  8  9  1  0  0  0  0
  7 10  1  0  0  0  0
 10 11  1  0  0  0  0
 11 12  1  0  0  0  0
 10 13  2  0  0  0  0
  3 14  1  0  0  0  0
 14 15  1  0  0  0  0
 15 16  1  0  0  0  0
 16 17  2  0  0  0  0
 17 18  1  0  0  0  0
 18 19  1  0  0  0  0
 19 20  2  0  0  0  0
 20 21  1  0  0  0  0
 21 22  1  0  0  0  0
 20 23  1  0  0  0  0
 23 24  1  0  0  0  0
 24 25  1  0  0  0  0
 23 26  2  0  0  0  0
 16 27  1  0  0  0  0
 27 28  1  0  0  0  0
 28 29  1  0  0  0  0
 29 30  2  0  0  0  0
 30 31  1  0  0  0  0
 31 32  1  0  0  0  0
 32 33  2  0  0  0  0
 33 34  1  0  0  0  0
 34 35  1  0  0  0  0
 33 36  1  0  0  0  0
 36 37  1  0  0  0  0
 37 38  1  0  0  0  0
 36 39  2  0  0  0  0
 29 40  1  0  0  0  0
 40 41  1  0  0  0  0
 41 42  1  0  0  0  0
 42 43  2  0  0  0  0
 43 44  1  0  0  0  0
 44 45  1  0  0  0  0
 45 46  2  0  0  0  0
 46 47  1  0  0  0  0
 47 48  1  0  0  0  0
 46 49  1  0  0  0  0
 49 50  1  0  0  0  0
 50 51  1  0  0  0  0
 49 52  2  0  0  0  0
 42 53  1  0  0  0  0
 53 54  1  0  0  0  0
 54 55  1  0  0  0  0
 55 56  2  0  0  0  0
 56 57  1  0  0  0  0
 57 58  1  0  0  0  0
 58 59  2  0  0  0  0
 59 60  1  0  0  0  0
 60 61  1  0  0  0  0
 59 62  1  0  0  0  0
 62 63  1  0  0  0  0
 63 64  1  0  0  0  0
 62 65  2  0  0  0  0
 55 66  1  0  0  0  0
 66 67  2  0  0  0  0
 67 68  1  0  0  0  0
 68 69  2  0  0  0  0
 69 70  1  0  0  0  0
 70 71  1  0  0  0  0
 71 72  1  0  0  0  0
 72 73  1  0  0  0  0
 73 74  1  0  0  0  0
 72 75  2  0  0  0  0
 75 76  1  0  0  0  0
 75 77  1  0  0  0  0
 77 78  1  0  0  0  0
 69 79  1  0  0  0  0
 79 80  2  0  0  0  0
 80 81  1  0  0  0  0
 81 82  1  0  0  0  0
 82 83  1  0  0  0  0
 83 84  1  0  0  0  0
 84 85  1  0  0  0  0
 85 86  1  0  0  0  0
 84 87  2  0  0  0  0
 87 88  1  0  0  0  0
 88 89  1  0  0  0  0
 87 90  1  0  0  0  0
 81 91  2  0  0  0  0
 91 92  1  0  0  0  0
 80 93  1  0  0  0  0
 93 94  2  0  0  0  0
 94 95  1  0  0  0  0
  5  1  2  0  0  0  0
 18 14  2  0  0  0  0
 31 27  2  0  0  0  0
 44 40  2  0  0  0  0
 57 53  2  0  0  0  0
 92 66  1  0  0  0  0
 13  4  1  0  0  0  0
 26 17  1  0  0  0  0
 39 30  1  0  0  0  0
 52 43  1  0  0  0  0
 65 56  1  0  0  0  0
 91 68  1  0  0  0  0
 77 70  2  0  0  0  0
 95 79  1  0  0  0  0
 88 82  2  0  0  0  0
  1 96  1  0  0  0  0
  6 97  1  0  0  0  0
  9 98  1  0  0  0  0
  9 99  1  0  0  0  0
  9100  1  0  0  0  0
 12101  1  0  0  0  0
 12102  1  0  0  0  0
 12103  1  0  0  0  0
 13104  1  0  0  0  0
 19105  1  0  0  0  0
 22106  1  0  0  0  0
 22107  1  0  0  0  0
 22108  1  0  0  0  0
 25109  1  0  0  0  0
 25110  1  0  0  0  0
 25111  1  0  0  0  0
 26112  1  0  0  0  0
 32113  1  0  0  0  0
 35114  1  0  0  0  0
 35115  1  0  0  0  0
 35116  1  0  0  0  0
 38117  1  0  0  0  0
 38118  1  0  0  0  0
 38119  1  0  0  0  0
 39120  1  0  0  0  0
 45121  1  0  0  0  0
 48122  1  0  0  0  0
 48123  1  0  0  0  0
 48124  1  0  0  0  0
 51125  1  0  0  0  0
 51126  1  0  0  0  0
 51127  1  0  0  0  0
 52128  1  0  0  0  0
 58129  1  0  0  0  0
 61130  1  0  0  0  0
 61131  1  0  0  0  0
 61132  1  0  0  0  0
 64133  1  0  0  0  0
 64134  1  0  0  0  0
 64135  1  0  0  0  0
 65136  1  0  0  0  0
 67137  1  0  0  0  0
 73138  1  0  0  0  0
 73139  1  0  0  0  0
 74140  1  0  0  0  0
 74141  1  0  0  0  0
 74142  1  0  0  0  0
 85143  1  0  0  0  0
 85144  1  0  0  0  0
 86145  1  0  0  0  0
 86146  1  0  0  0  0
 86147  1  0  0  0  0
 93148  1  0  0  0  0
 94149  1  0  0  0  0
M  END
