186

C          7.31690       -9.60510        8.68630
S          7.23150       -7.93520        8.34560
C          6.00860       -8.16760        7.12590
C          5.69490       -9.52120        7.00730
C          6.45200      -10.33840        7.90980
C          6.25960      -11.74300        7.93250
C          5.35250      -12.31480        7.09230
O          5.06810      -13.63820        7.01410
C          5.75130      -14.51610        7.87290
C          4.59240      -11.49500        6.17630
O          3.73270      -12.19130        5.39740
C          2.95080      -11.48510        4.46380
C          4.76620      -10.14060        6.14200
C          5.50310       -7.02320        6.45210
C          5.91150       -5.72970        6.63590
C          5.22230       -4.78170        5.84450
C          5.39470       -3.38590        5.80730
C          6.33050       -2.69430        6.70110
C          6.32430       -2.93400        8.07230
C          7.17810       -2.25770        8.92220
C          8.06580       -1.30660        8.43210
S          9.21560       -0.38090        9.39510
C          8.65780       -0.62280       11.11680
C          7.35690        0.10120       11.40810
C          8.06650       -1.08180        7.05470
F          8.92000       -0.17210        6.53950
C          7.22610       -1.75310        6.19670
C          4.61670       -2.68980        4.89630
C          3.65690       -3.30560        4.05720
C          3.46220       -4.69700        4.11660
C          2.44110       -5.34770        3.28660
C          1.12820       -4.87810        3.28240
C          0.17580       -5.46020        2.47290
C          0.49580       -6.53050        1.64380
S         -0.77820       -7.22400        0.62080
C          0.01420       -7.15870       -1.02880
C          0.35360       -5.73780       -1.43360
C          1.79680       -7.01880        1.69100
C          2.76390       -6.43890        2.48690
F          2.15640       -8.08320        0.94000
C          4.26790       -5.39760        4.99660
S          4.22460       -7.12220        5.25120
C          3.01050       -2.37270        3.21650
C          3.40980       -1.07550        3.40080
S          4.63800       -0.96150        4.65110
C          2.91620        0.04700        2.68800
S          1.67530       -0.22550        1.50360
C          1.56020        1.45530        1.10380
C          2.47820        2.20290        1.84380
C          3.24180        1.40460        2.75080
C          4.20830        2.02290        3.57280
C          4.42240        3.37030        3.49390
O          5.31840        4.06390        4.23290
C          6.12120        3.35590        5.14790
C          3.68010        4.16820        2.55150
O          4.00770        5.48380        2.55100
C          3.34780        6.33610        1.64890
C          2.74060        3.58790        1.74780
C          0.59790        1.86960        0.14230
C          0.00660        3.08950       -0.02600
C         -0.93240        3.13280       -1.08490
C         -1.65730        4.24670       -1.54320
C         -1.54730        5.54840       -0.87350
C         -1.75190        5.66330        0.49860
C         -1.62840        6.87950        1.14230
C         -1.27820        8.02480        0.43650
S         -1.07290        9.63340        1.12700
C         -0.98840        9.34350        2.92840
C          0.29480        8.64970        3.34450
C         -1.09780        7.89860       -0.94220
F         -0.76740        8.99140       -1.65920
C         -1.23150        6.69550       -1.59770
C         -2.46460        4.05130       -2.65080
C         -2.59620        2.79950       -3.30250
C         -1.85970        1.68830       -2.85390
C         -1.91020        0.40290       -3.55810
C         -1.76610        0.34380       -4.94500
C         -1.78090       -0.86530       -5.60450
C         -1.94590       -2.06630       -4.91460
S         -1.98770       -3.54730       -5.87510
C         -1.23780       -4.80480       -4.76450
C         -0.65950       -5.92450       -5.60680
C         -2.10500       -1.99230       -3.53420
C         -2.07650       -0.78850       -2.86030
F         -2.30420       -3.10970       -2.79810
C         -1.05340        1.88450       -1.74340
S         -0.00920        0.69240       -1.01520
C         -3.54140        2.84610       -4.35490
C         -4.09320        4.08150       -4.55240
S         -3.48080        5.25670       -3.39430
C         -5.04260        4.49900       -5.52370
S         -5.98820        5.92540       -5.23150
C         -6.83140        5.78110       -6.73610
C         -6.40850        4.64750       -7.43020
C         -5.37180        3.93250       -6.75740
C         -4.79340        2.80890       -7.39010
C         -5.27590        2.36890       -8.59030
O         -4.79580        1.30870       -9.28630
C         -3.73500        0.57030       -8.73260
C         -6.39630        3.02880       -9.21170
O         -6.81540        2.45470      -10.36920
C         -7.92690        3.01420      -11.02230
C         -6.93930        4.14230       -8.64000
C         -7.80220        6.75000       -7.12320
S         -8.91850        7.40070       -5.96020
C         -9.69260        8.36840       -7.13640
C         -9.12010        8.23360       -8.37920
C         -8.02060        7.31610       -8.37590
C         -7.25470        7.14720       -9.55380
C         -7.61410        7.79880      -10.69680
O         -6.96420        7.71370      -11.88640
C         -5.79800        6.93240      -11.95330
C         -8.76520        8.67310      -10.71740
O         -9.00800        9.23370      -11.92970
C        -10.08170       10.13330      -12.04080
C         -9.48510        8.89180       -9.58150
H          7.99560       -9.95940        9.43620
H          6.84500      -12.32530        8.62500
H          6.83130      -14.49500        7.69270
H          5.55560      -14.28180        8.92460
H          5.36660      -15.50890        7.64620
H          3.57340      -10.96350        3.73050
H          2.29200      -10.76240        4.95570
H          2.34870      -12.23730        3.95730
H          4.19980       -9.53390        5.45790
H          6.70490       -5.46990        7.31380
H          5.62500       -3.64510        8.48550
H          7.14450       -2.48170        9.97600
H          8.59590       -1.69140       11.31800
H          9.47340       -0.20640       11.70790
H          7.08000       -0.04000       12.45120
H          7.47100        1.16590       11.21920
H          6.55110       -0.27330       10.78030
H          7.28660       -1.54850        5.13970
H          0.85570       -4.05390        3.92400
H         -0.83680       -5.08830        2.46210
H          0.89310       -7.80030       -1.01820
H         -0.73360       -7.59070       -1.69340
H          1.06430       -5.29650       -0.73640
H          0.80110       -5.73700       -2.42590
H         -0.54180       -5.12020       -1.45060
H          3.76590       -6.83830        2.46600
H          2.27880       -2.64840        2.47790
H          4.77660        1.41750        4.25610
H          6.74190        2.60820        4.64480
H          5.51620        2.86340        5.91590
H          6.76190        4.10180        5.61440
H          3.75040        7.33020        1.83420
H          2.26600        6.34550        1.82070
H          3.54340        6.05340        0.60940
H          2.21230        4.16590        1.01070
H          0.20450        3.93560        0.60360
H         -2.03620        4.79110        1.06830
H         -1.81650        6.92730        2.20270
H         -1.03700       10.34860        3.34720
H         -1.87830        8.79690        3.23790
H          1.15650        9.22900        3.02180
H          0.32820        8.54920        4.42760
H          0.36320        7.65790        2.90290
H         -1.06750        6.65630       -2.66280
H         -1.60280        1.25440       -5.50120
H         -1.65520       -0.90700       -6.67570
H         -0.46120       -4.29930       -4.19250
H         -2.01020       -5.17690       -4.09310
H         -1.43830       -6.39560       -6.20200
H         -0.21280       -6.67730       -4.96040
H          0.10450       -5.54210       -6.28010
H         -2.21480       -0.79420       -1.79060
H         -3.85010        1.96910       -4.89100
H         -3.95700        2.32100       -6.92290
H         -4.00650        0.14010       -7.76270
H         -3.53590       -0.23340       -9.43940
H         -2.83510        1.18410       -8.61790
H         -7.73950        4.04900      -11.32990
H         -8.82060        2.98630      -10.39020
H         -8.08900        2.39980      -11.90620
H         -7.78300        4.64750       -9.07870
H        -10.52170        8.98560       -6.85400
H         -6.38200        6.51710       -9.51470
H         -5.44500        7.01840      -12.97960
H         -6.00010        5.87960      -11.72700
H         -5.02630        7.30250      -11.27050
H        -11.03680        9.64990      -11.80900
H         -9.94770       11.00090      -11.38620
H        -10.08540       10.46120      -13.07880
H        -10.32790        9.56290       -9.55960
