215

C         -8.98870       -6.15810      -11.14140
C         -8.07590       -5.16810      -11.08600
C         -7.65870       -4.86570       -9.75450
C         -6.73320       -3.89580       -9.33600
C         -6.12640       -2.95090      -10.28120
C         -4.75420       -2.72430      -10.29780
C         -4.18770       -1.81520      -11.17100
C         -4.97640       -1.09630      -12.06150
S         -4.40660        0.10770      -13.21260
C         -2.58700        0.04180      -13.08370
C         -1.99970       -1.16990      -13.78320
C         -6.35330       -1.32980      -12.02920
F         -7.15220       -0.64270      -12.87160
C         -6.92970       -2.23230      -11.16600
C         -6.44590       -3.85490       -7.97850
C         -7.09210       -4.69430       -7.04050
C         -8.06250       -5.62300       -7.44840
C         -8.76620       -6.42080       -6.43560
C         -8.81910       -7.80980       -6.49250
C         -9.40460       -8.54070       -5.47600
C         -9.95350       -7.90950       -4.36570
S        -10.71470       -8.74970       -3.01040
C         -9.73890      -10.28710       -2.87500
C         -8.29250      -10.00890       -2.51800
C         -9.93090       -6.51630       -4.34280
C         -9.35460       -5.77480       -5.34840
F        -10.46470       -5.86400       -3.28580
C         -8.29660       -5.70920       -8.81100
S         -9.41190       -6.80090       -9.59000
C         -6.62750       -4.47360       -5.72380
C         -5.69380       -3.48380       -5.62450
S         -5.32350       -2.77590       -7.18230
C         -5.09540       -3.05900       -4.39930
C         -5.44140       -3.53690       -3.16820
C         -4.72500       -2.95130       -2.10200
C         -4.84680       -3.25550       -0.73340
C         -5.84390       -4.24130       -0.29760
C         -7.16660       -4.15120       -0.72670
C         -8.08750       -5.13900       -0.43710
C         -7.71860       -6.25420        0.30710
S         -8.75860       -7.62970        0.66710
C        -10.43270       -7.07880        0.19410
C        -11.00250       -6.07060        1.17270
C         -6.40340       -6.30740        0.77330
F         -6.01410       -7.36800        1.51260
C         -5.47500       -5.33150        0.48690
C         -3.96620       -2.61220        0.11590
C         -2.99310       -1.68590       -0.33990
C         -2.88430       -1.37230       -1.70790
C         -1.87240       -0.41990       -2.17780
C         -0.54310       -0.53850       -1.78070
C          0.40780        0.38540       -2.16710
C          0.06250        1.46710       -2.96940
S          1.14810        2.75590       -3.47610
C          2.76500        2.30530       -2.75870
C          3.49380        1.25310       -3.57060
C         -1.26650        1.55370       -3.39000
C         -2.22310        0.63870       -3.01360
F         -1.63480        2.58370       -4.18010
C         -3.77270       -2.00890       -2.56040
S         -3.83550       -1.84740       -4.30020
C         -2.24550       -1.14620        0.73000
C         -2.59930       -1.62060        1.96410
S         -3.91870       -2.77500        1.85430
C         -1.95510       -1.27610        3.18030
S         -0.37780       -0.55600        3.07380
C         -0.22070       -0.42510        4.79820
C         -1.39100       -0.85920        5.42750
C         -2.35470       -1.38420        4.51330
C         -3.57460       -1.89520        5.00650
C         -3.84960       -1.84080        6.34420
O         -4.97590       -2.30810        6.93200
C         -5.94690       -2.92020        6.11780
C         -2.92170       -1.21350        7.25120
O         -3.35590       -1.14300        8.53520
C         -2.56420       -0.45550        9.47080
C         -1.72540       -0.73710        6.79470
C          1.00240        0.06130        5.32300
S          1.92340        1.18380        4.37450
C          3.20350        1.26360        5.54150
C          2.92990        0.43020        6.63060
C          1.69400       -0.27260        6.49260
C          1.35440       -1.27580        7.42750
C          2.16020       -1.51250        8.50490
O          1.93860       -2.44990        9.46070
C          0.83200       -3.30410        9.31450
C          3.37110       -0.75450        8.68440
O          4.07110       -1.07380        9.79970
C          5.28530       -0.40680       10.04280
C          3.74880        0.17050        7.75170
C          4.35550        2.03460        5.23160
C          5.33180        2.54030        6.04370
C          6.38370        3.18400        5.34700
C          7.53040        3.79150        5.88950
C          7.81110        3.72660        7.32770
C          7.76250        2.50690        8.00350
C          8.04440        2.43690        9.35020
C          8.37170        3.57760       10.08070
S          8.66120        3.37530       11.81480
C         10.09460        4.46430       12.14870
C         11.29040        4.10800       11.28890
C          8.39710        4.79010        9.39870
F          8.66600        5.94260       10.04990
C          8.14260        4.87070        8.04450
C          8.39530        4.40300        4.99570
C          8.18170        4.40320        3.59610
C          7.03040        3.80780        3.05320
C          6.76930        3.84960        1.60980
C          6.83330        5.05440        0.91370
C          6.59790        5.11120       -0.44630
C          6.28490        3.95910       -1.15900
S          6.00210        3.90300       -2.89730
C          5.56790        5.63760       -3.30400
C          4.88850        5.66370       -4.66030
C          6.22100        2.75980       -0.44900
C          6.45120        2.69050        0.90600
F          5.92470        1.62260       -1.11290
C          6.16520        3.19940        3.94710
S          4.67650        2.39340        3.53690
C          9.26420        4.98030        2.88990
C         10.26440        5.45300        3.69050
S          9.90710        5.17900        5.39260
C         11.49250        6.07010        3.32000
S         12.79950        6.12290        4.46260
C         13.85070        6.86110        3.34160
C         13.24360        7.08170        2.12690
C         11.87930        6.64330        2.10780
C         11.11240        6.86100        0.94040
C         11.68570        7.42080       -0.16500
O         11.04880        7.66080       -1.33920
C          9.70200        7.27970       -1.46070
C         13.07430        7.81640       -0.15770
O         13.50690        8.33970       -1.33200
C         14.84780        8.75170       -1.42020
C         13.82250        7.66280        0.97070
H         -9.45700       -6.57550      -12.01120
H         -7.68650       -4.66930      -11.95470
H         -4.11250       -3.27800       -9.62970
H         -3.12050       -1.66990      -11.14310
H         -2.31290        0.09330      -12.03100
H         -2.26370        0.96170      -13.57100
H         -2.27330       -1.16310      -14.83570
H         -0.91420       -1.15180      -13.70560
H         -2.36490       -2.09460      -13.34180
H         -8.00190       -2.35150      -11.16800
H         -8.37830       -8.32660       -7.33100
H         -9.42590       -9.61660       -5.54760
H         -9.83700      -10.84990       -3.80250
H        -10.23990      -10.83680       -2.07840
H         -7.80430       -9.43110       -3.30110
H         -7.75640      -10.94760       -2.39470
H         -8.23330       -9.45140       -1.58560
H         -9.36710       -4.69780       -5.28380
H         -6.96330       -5.05310       -4.88510
H         -6.17820       -4.30290       -3.01970
H         -7.48230       -3.29010       -1.29660
H         -9.09110       -5.04220       -0.81760
H        -10.40640       -6.70410       -0.82680
H        -11.01460       -8.00030        0.20300
H        -12.00960       -5.79470        0.86700
H        -10.39230       -5.17050        1.20930
H        -11.04520       -6.49640        2.17280
H         -4.46530       -5.44330        0.84900
H         -0.24200       -1.37710       -1.17110
H          1.42180        0.25610       -1.82680
H          3.32090        3.24200       -2.76820
H          2.61310        2.00750       -1.72250
H          4.46060        1.05150       -3.11610
H          2.92660        0.32640       -3.61870
H          3.65540        1.60970       -4.58500
H         -3.23880        0.77350       -3.35010
H         -1.48230       -0.39940        0.60460
H         -4.28050       -2.31300        4.30960
H         -5.54300       -3.79530        5.59920
H         -6.74100       -3.23300        6.79330
H         -6.35140       -2.21940        5.38040
H         -1.58580       -0.93050        9.60460
H         -2.41640        0.58990        9.18120
H         -3.11420       -0.49740       10.40920
H         -1.03660       -0.22940        7.44850
H          0.47430       -1.86880        7.24790
H         -0.11390       -2.75160        9.33090
H          0.89050       -3.88370        8.38760
H          0.86730       -3.97970       10.16730
H          6.01680       -0.60640        9.25250
H          5.14080        0.67450       10.13830
H          5.65520       -0.80490       10.98600
H          4.68420        0.69130        7.84570
H          5.28380        2.51420        7.11570
H          7.53770        1.60500        7.45430
H          8.02080        1.48990        9.86740
H          9.79050        5.50020       12.01610
H         10.30090        4.28680       13.20430
H         11.55590        3.06080       11.41830
H         12.14160        4.72300       11.57420
H         11.07850        4.28350       10.23570
H          8.17530        5.83740        7.56710
H          7.05380        5.96500        1.45070
H          6.66320        6.06050       -0.95410
H          4.89920        6.00020       -2.52370
H          6.48530        6.22720       -3.31630
H          3.97530        5.07330       -4.64380
H          5.54770        5.25810       -5.42440
H          4.63510        6.68770       -4.92570
H          6.39680        1.73390        1.40040
H          9.31730        4.96370        1.81870
H         14.85770        7.09060        3.62680
H         10.06880        6.60320        0.94210
H          9.06360        7.82940       -0.76020
H          9.41900        7.53200       -2.48150
H          9.57070        6.20360       -1.30180
H         15.53580        7.91760       -1.24660
H         14.97650        9.12090       -2.43620
H         15.06840        9.55610       -0.71080
H         14.85480        7.96820        1.01750
