113

C          1.93450        0.48260       -1.08640
C          1.82120        1.57540       -1.98330
C          2.95200        2.29690       -2.30570
C          4.18960        1.98450       -1.72100
C          4.28390        0.89160       -0.81110
C          3.12450        0.14190       -0.51910
N          5.46210        0.55760       -0.25070
C          6.50240        1.28160       -0.57290
C          6.41140        2.36490       -1.46980
N          5.28610        2.70960       -2.03530
C          0.56200        1.84600       -2.64590
C         -0.68210        1.63940       -2.16960
C         -1.11700        1.41870       -0.82970
S         -0.20170        1.93260        0.55590
C         -1.55220        1.75550        1.62110
C         -2.66300        1.27130        0.94380
C         -2.40580        1.04460       -0.44230
C         -3.40690        0.47510       -1.25900
C         -4.63370        0.19140       -0.72680
O         -5.67080       -0.36140       -1.39610
C         -5.50360       -0.64390       -2.76460
C         -4.91910        0.49350        0.65610
O         -6.20010        0.24190        1.02710
C         -6.64730        0.76330        2.25560
C         -3.94790        0.99760        1.47070
C         -1.46860        2.20580        2.99730
C         -0.37050        1.84020        3.83550
C         -0.26790        2.37660        5.09600
C         -1.26170        3.23070        5.60690
C         -2.37980        3.55710        4.78910
C         -2.44590        3.04660        3.48250
N         -3.35660        4.36850        5.24810
C         -3.22120        4.83120        6.46210
C         -2.11260        4.50850        7.27140
N         -1.15230        3.72530        6.85660
C          0.65840        0.88730        3.40730
C          0.47680       -0.34720        2.92800
C         -0.79300       -1.03560        2.72400
C         -0.88060       -2.05700        1.72750
C         -2.07350       -2.69960        1.50100
C         -3.21030       -2.40980        2.27260
C         -3.09640       -1.47120        3.33550
C         -1.88290       -0.79130        3.52850
N         -4.13590       -1.24980        4.16850
C         -5.23880       -1.90890        3.92970
C         -5.36830       -2.79180        2.83690
N         -4.37440       -3.04570        2.03010
C          0.30460       -2.48450        0.98240
C          0.62780       -3.77760        0.89330
C          1.82060       -4.32910        0.25970
C          2.30240       -3.87400       -1.00870
C          3.47480       -4.40460       -1.50780
C          4.19610       -5.37910       -0.80280
C          3.69170       -5.85740        0.43950
C          2.49570       -5.31830        0.93840
N          4.34550       -6.81650        1.12870
C          5.44830       -7.27640        0.60300
C          5.94990       -6.80220       -0.62860
N          5.34210       -5.87600       -1.31830
C          1.50460       -2.95220       -1.79570
C          1.98090       -2.19280       -2.79430
C          1.20530       -1.32670       -3.66060
C          1.89640       -0.48850       -4.59570
C          1.18620        0.23310       -5.52340
C         -0.21870        0.20190       -5.55060
C         -0.91080       -0.57460       -4.57800
C         -0.17450       -1.33380       -3.65670
N         -2.26250       -0.59390       -4.54920
C         -2.88530        0.10720       -5.46050
C         -2.19770        0.86580       -6.42870
N         -0.89300        0.92110       -6.47000
C          3.35450       -0.35280       -4.55010
C          4.12820       -0.26060       -5.62210
H          1.04940       -0.10420       -0.89750
H          2.91070        3.11770       -3.00510
H          3.22390       -0.70530        0.14290
H          7.44430        1.00730       -0.11700
H          7.28250        2.95410       -1.72470
H          0.65360        2.22080       -3.65680
H         -1.50390        1.75660       -2.86700
H         -3.17470        0.25290       -2.28800
H         -6.43660       -1.10420       -3.08550
H         -5.33360        0.27470       -3.33600
H         -4.67330       -1.33420       -2.93990
H         -7.71270        0.54290        2.29690
H         -6.49430        1.84630        2.30420
H         -6.14680        0.29360        3.10720
H         -4.13260        1.18880        2.51460
H          0.56330        2.12470        5.73740
H         -3.26400        3.36230        2.85450
H         -4.00780        5.48020        6.82410
H         -2.01910        4.90100        8.27520
H          1.67460        1.23120        3.55590
H          1.35680       -0.91810        2.66340
H         -2.16190       -3.44930        0.72960
H         -1.82280       -0.09970        4.35340
H         -6.05970       -1.74620        4.61690
H         -6.30280       -3.29670        2.63350
H          0.94210       -1.72310        0.55700
H          0.01530       -4.50050        1.41880
H          3.85320       -4.11440       -2.47500
H          2.12980       -5.68660        1.88520
H          5.96790       -8.04490        1.15980
H          6.86740       -7.19530       -1.04620
H          0.45700       -2.91110       -1.53340
H          3.04020       -2.22090       -3.00200
H          1.69060        0.86770       -6.23560
H         -0.73250       -1.94150       -2.96220
H         -3.96720        0.08050       -5.43880
H         -2.73300        1.43900       -7.17370
H          3.79530       -0.30150       -3.56310
H          3.72880       -0.32990       -6.62030
H          5.19360       -0.13180       -5.53960
