100

C          8.26170        4.94290       -0.14110
S          6.69320        4.77200       -0.78400
C          6.14640        3.83730        0.57680
C          7.19060        3.63680        1.48210
C          8.40070        4.29380        1.06780
C          9.56040        4.20070        1.86710
C          9.52110        3.44210        3.00970
C         10.67160        3.32950        3.82340
N         11.60430        3.23540        4.48330
C          8.34390        2.73410        3.38460
C          7.20870        2.82560        2.64010
C          4.80540        3.37430        0.63620
S          3.99880        2.84610       -0.80350
C          2.54620        2.39700        0.04410
C          2.67610        2.70210        1.41020
C          3.94870        3.27320        1.73830
C          4.18680        3.75580        3.03760
C          3.20960        3.61990        3.99590
C          3.43270        4.11180        5.30140
N          3.61200        4.51150        6.36110
C          1.96410        3.01630        3.68620
C          1.70000        2.58160        2.42170
C          1.48340        1.75770       -0.63080
S          0.38760        0.71430        0.23320
C         -0.49490        0.29110       -1.19970
C          0.06990        0.90660       -2.32160
C          1.17560        1.74640       -2.00220
C          1.80780        2.46600       -3.03740
C          1.41200        2.30030       -4.33710
O          1.94360        2.94020       -5.40420
C          3.00410        3.83920       -5.18780
C          0.36810        1.36530       -4.66530
O          0.12020        1.24150       -5.99170
C         -0.84410        0.30600       -6.40690
C         -0.28560        0.69300       -3.67100
C         -1.60170       -0.58570       -1.10980
S         -1.55730       -1.91450        0.00470
C         -3.11130       -2.51180       -0.51020
C         -3.68630       -1.63700       -1.44520
C         -2.82490       -0.55510       -1.79070
C         -3.28840        0.46610       -2.64810
C         -4.54550        0.39600       -3.18070
O         -5.09220        1.30490       -4.02310
C         -4.33310        2.43570       -4.37220
C         -5.42150       -0.69050       -2.82670
O         -6.64720       -0.62510       -3.39300
C         -7.56600       -1.65970       -3.13480
C         -5.00140       -1.66010       -1.95630
C         -3.58590       -3.71410        0.05590
S         -3.07800       -4.14850        1.65510
C         -4.00280       -5.62460        1.67020
C         -4.67830       -5.77910        0.45000
C         -4.41010       -4.71980       -0.47830
C         -4.87670       -4.81660       -1.79720
C         -5.67940       -5.87700       -2.15750
C         -6.18620       -5.94580       -3.47260
N         -6.61350       -5.97460       -4.53700
C         -5.99850       -6.89560       -1.22500
C         -5.49060       -6.85860        0.03900
C         -4.01440       -6.44630        2.82260
S         -5.35950       -7.49000        3.17670
C         -4.67970       -8.02270        4.64830
C         -3.45640       -7.44450        4.89240
C         -3.05980       -6.53450        3.85140
C         -1.80460       -5.91180        3.93930
C         -0.99940       -6.15740        5.02910
C          0.26650       -5.53860        5.11210
N          1.29630       -5.03790        5.18240
C         -1.40980       -7.02990        6.07510
C         -2.60770       -7.66520        6.00640
H          9.00250        5.50150       -0.67680
H         10.46260        4.71270        1.56780
H          8.37420        2.11650        4.26930
H          6.32850        2.26520        2.91430
H          5.11460        4.25560        3.26990
H          1.22020        2.93260        4.46360
H          0.73290        2.16710        2.18990
H          2.60000        3.15190       -2.79350
H          3.27830        4.21060       -6.17360
H          3.86630        3.34090       -4.73330
H          2.69680        4.67890       -4.55600
H         -0.57680       -0.71000       -6.09960
H         -1.83910        0.54800       -6.01750
H         -0.86030        0.36310       -7.49370
H         -1.05780       -0.02420       -3.89170
H         -2.64440        1.30730       -2.84100
H         -4.08950        3.04310       -3.49470
H         -4.96040        3.01280       -5.04900
H         -3.40550        2.15940       -4.88530
H         -8.45180       -1.41600       -3.71830
H         -7.83300       -1.70560       -2.07410
H         -7.17850       -2.63240       -3.45530
H         -5.67930       -2.42470       -1.61800
H         -4.58360       -4.08340       -2.53200
H         -6.62450       -7.71500       -1.54380
H         -5.69710       -7.66590        0.72210
H         -5.20790       -8.73380        5.25070
H         -1.45320       -5.25590        3.15840
H         -0.74440       -7.18150        6.91170
H         -2.92900       -8.34360        6.78180
