96

C         15.87840        1.41830        7.02650
S         14.82390        0.99990        5.71810
C         13.47560        0.98270        6.79460
C         13.86640        1.29100        8.09610
C         15.24600        1.54070        8.22230
S         12.53660        1.28420        9.21950
C         11.44940        0.86380        7.92500
C         10.07180        0.63020        7.86590
C          9.65910        0.32700        6.58790
S         10.98870        0.32880        5.44170
C         12.09770        0.73990        6.69550
C          8.33700        0.03810        6.14790
S          8.01220       -0.22340        4.44200
C          6.33720       -0.46390        4.77500
C          6.07150       -0.34810        6.14310
C          7.19830       -0.06430        6.91680
S          4.38550       -0.57920        6.52180
C          4.04190       -0.82010        4.83050
C          2.87110       -1.06320        4.11670
C          3.09200       -1.16360        2.75430
S          4.79730       -0.96030        2.36520
C          5.18520       -0.73050        4.03160
C          2.09540       -1.36640        1.77330
S          0.44240       -1.48530        2.30580
C         -0.18220       -1.62760        0.68700
C          0.88030       -1.61870       -0.23210
C          2.16100       -1.47250        0.37910
C          3.31710       -1.44830       -0.42840
C          3.21480       -1.57220       -1.78660
O          4.25310       -1.55890       -2.65420
C          5.55250       -1.39270       -2.14030
C          1.92650       -1.75010       -2.40040
O          1.95910       -1.88980       -3.74650
C          0.74110       -2.05950       -4.43050
C          0.79620       -1.77470       -1.63080
C         -1.57310       -1.63810        0.44900
S         -2.21390       -1.11070       -1.08070
C         -3.86190       -1.23100       -0.55120
C         -3.91930       -1.72120        0.75770
C         -2.62930       -1.93990        1.32620
C         -2.53040       -2.46350        2.63150
C         -3.65810       -2.74970        3.35040
O         -3.67980       -3.25300        4.60770
C         -2.45340       -3.48810        5.25500
C         -4.95780       -2.54680        2.76960
O         -5.98970       -2.90210        3.57240
C         -7.29960       -2.76270        3.08100
C         -5.07310       -2.05230        1.50030
C         -4.89260       -0.82820       -1.43620
S         -4.54620       -0.75960       -3.16480
C         -6.14130       -0.18820       -3.49110
C         -6.88040       -0.06350       -2.31190
C         -6.17990       -0.41780       -1.15720
S         -8.49750        0.52320       -2.59080
C         -8.17090        0.60180       -4.30000
C         -8.92990        0.99140       -5.40590
C         -8.22100        0.88160       -6.57960
S         -6.58750        0.28600       -6.31910
C         -6.87390        0.19040       -4.61990
C         -8.66350        1.18980       -7.89440
S        -10.29660        1.78830       -8.14820
C        -10.01330        1.89290       -9.84640
C         -8.72050        1.48170      -10.17270
C         -7.95760        1.08420       -9.06920
S         -8.39690        1.57450      -11.88130
C        -10.01020        2.16990      -12.15160
C        -10.72500        2.55870      -13.30040
C        -11.98340        2.95980      -12.98360
S        -12.33710        2.87820      -11.29020
C        -10.74780        2.28500      -10.97490
H         16.92170        1.54950        6.81950
H         15.73430        1.79470        9.14450
H          9.41350        0.68570        8.71190
H          7.18270        0.05880        7.98300
H          1.89620       -1.15590        4.55890
H          4.27900       -1.33750        0.03960
H          5.65600       -0.44120       -1.60900
H          6.21260       -1.39820       -3.00580
H          5.82670       -2.21230       -1.46830
H          0.07120       -1.20740       -4.27700
H          0.23200       -2.97850       -4.12250
H          1.00430       -2.12880       -5.48450
H         -0.16690       -1.93190       -2.08290
H         -1.55640       -2.65650        3.04480
H         -1.87050       -2.56710        5.35670
H         -2.71140       -3.86540        6.24300
H         -1.85590       -4.23710        4.72510
H         -7.53120       -1.71890        2.84460
H         -7.46400       -3.38090        2.19230
H         -7.95200       -3.10350        3.88290
H         -6.03710       -1.94280        1.03650
H         -6.58070       -0.32000       -0.16700
H         -9.94590        1.33860       -5.36090
H         -6.94190        0.73700       -9.11880
H        -10.32650        2.54050      -14.29760
H        -12.74840        3.30770      -13.64860
