123

C          0.74500        2.31930        1.46560
S         -0.52120        1.71280        0.50360
C         -0.00630        2.58950       -0.90720
C          1.16370        3.31990       -0.59730
C          1.57470        3.17010        0.76420
C          2.70560        3.86320        1.24900
C          3.42900        4.66140        0.40940
C          4.63090        5.42230        0.88180
C          3.03770        4.77920       -0.94570
C          1.93830        4.13700       -1.44000
C         -0.64500        2.64410       -2.15830
C         -1.74790        2.06010       -2.73610
C         -2.66090        1.08110       -2.33570
S         -2.67930        0.30150       -0.78880
C         -4.02660       -0.72690       -1.18790
C         -4.44470       -0.47760       -2.51630
C         -3.69890        0.55360       -3.15080
C         -4.03460        0.94200       -4.45650
C         -5.07060        0.33180       -5.12150
C         -5.45410        0.74900       -6.50730
C         -5.78700       -0.70190       -4.48890
C         -5.48840       -1.10220       -3.21390
C         -4.50690       -1.64260       -0.24930
C         -4.03760       -1.62720        1.04650
C         -4.13910       -2.54400        2.08600
S         -3.17620       -2.15870        3.49600
C         -3.24310       -3.77360        4.12020
C         -4.20070       -4.51850        3.38680
C         -4.69400       -3.83930        2.23520
C         -5.60700       -4.48740        1.39270
C         -6.02310       -5.76890        1.66630
C         -7.00690       -6.47330        0.78290
C         -5.51590       -6.43490        2.79770
C         -4.61900       -5.83350        3.63900
C         -2.46590       -4.21260        5.20390
C         -1.19890       -3.81810        5.57810
C         -0.22190       -3.12770        4.84830
S         -0.38800       -2.70830        3.17320
C          1.23370       -2.07660        3.03420
C          1.92960       -2.29500        4.24180
C          1.10410       -2.84190        5.26350
C          1.64620       -3.06880        6.54050
C          2.97370       -2.82550        6.78580
O          3.59870       -3.00100        7.97950
C          2.84040       -3.46350        9.06800
C          3.82710       -2.38220        5.72540
O          5.13810       -2.25530        6.06630
C          6.04050       -1.81520        5.08340
C          3.30640       -2.12980        4.48310
C          1.52620       -1.48000        1.80010
S          0.46440       -1.90290        0.48300
C          1.24450       -0.83520       -0.64940
C          2.33840       -0.19560       -0.02580
C          2.46360       -0.51430        1.36160
C          3.40490        0.18010        2.13850
C          4.29910        1.04250        1.55400
C          5.35060        1.73240        2.36900
C          4.24600        1.25310        0.16350
C          3.27310        0.67770       -0.60590
C          0.64370       -0.76500       -1.91050
C          0.86350        0.08530       -2.95950
C          0.08780        0.03500       -4.12920
S         -1.12080       -1.18870       -4.36980
C         -1.60720       -0.55910       -5.90850
C         -0.88910        0.60410       -6.21010
C          0.08620        0.92820       -5.21650
C          0.89390        2.06830       -5.37110
C          0.72840        2.89500       -6.45070
C          1.56870        4.12100       -6.63780
C         -0.27540        2.59860       -7.40100
C         -1.06360        1.49020       -7.29480
C         -2.59110       -1.30250       -6.63380
C         -2.82160       -1.27300       -7.94850
H          0.81960        2.02340        2.49270
H          2.97630        3.75120        2.28830
H          4.51110        6.48520        0.67430
H          4.77940        5.29300        1.95110
H          5.52610        5.08380        0.35930
H          3.62980        5.40660       -1.59690
H          1.66650        4.26240       -2.47800
H         -0.14730        3.33950       -2.82450
H         -1.93190        2.40620       -3.74680
H         -3.48300        1.73240       -4.94380
H         -5.30550       -0.07500       -7.20420
H         -4.85310        1.59190       -6.83880
H         -6.50560        1.03220       -6.54110
H         -6.59290       -1.17850       -5.02830
H         -6.05310       -1.89110       -2.74050
H         -5.22470       -2.37440       -0.58450
H         -3.39440       -0.78620        1.28630
H         -6.00020       -3.96870        0.53310
H         -7.32350       -5.83420       -0.03750
H         -6.56190       -7.37730        0.36760
H         -7.88640       -6.76900        1.35390
H         -5.85010       -7.44270        2.99910
H         -4.24190       -6.35960        4.50290
H         -2.90920       -5.00150        5.80130
H         -0.85740       -4.19450        6.53470
H          1.00450       -3.44390        7.32010
H          2.02660       -2.77310        9.31470
H          3.53270       -3.51850        9.90650
H          2.42540       -4.45880        8.87600
H          5.77370       -0.82260        4.70510
H          7.00990       -1.76450        5.57650
H          6.09770       -2.51600        4.24370
H          3.94610       -1.85570        3.66260
H          3.40460        0.05040        3.20880
H          6.30060        1.20360        2.27510
H          5.07680        1.75520        3.42160
H          5.50140        2.75050        2.01900
H          4.97160        1.91040       -0.29250
H          3.23220        0.88300       -1.66260
H         -0.17190       -1.47010       -2.03870
H          1.61730        0.85380       -2.90640
H          1.64240        2.29160       -4.62500
H          0.94350        5.01400       -6.63550
H          2.08680        4.08250       -7.59550
H          2.30860        4.21220       -5.84630
H         -0.41580        3.28000       -8.22820
H         -1.84020        1.30410       -8.01870
H         -3.16140       -1.99020       -6.01990
H         -3.58070       -1.89640       -8.38860
H         -2.25150       -0.66540       -8.62740
