212

C          2.29320       -5.80430       13.17870
S          1.75320       -6.56680       11.75180
C          0.49170       -5.39080       11.50930
C          0.50960       -4.44280       12.53300
C          1.55280       -4.68660       13.48490
C          1.73160       -3.81200       14.58620
C          0.90490       -2.73960       14.74000
O          0.97030       -1.82430       15.73790
C          1.98120       -1.96590       16.70410
C         -0.15690       -2.49920       13.78980
O         -0.91080       -1.41010       14.06520
C         -1.97590       -1.09760       13.19960
C         -0.33950       -3.33110       12.72150
C         -0.33270       -5.50680       10.35880
C         -0.23070       -6.45650        9.37710
C         -1.15810       -6.30090        8.32280
C         -1.24190       -7.03140        7.12370
C         -0.37670       -8.17050        6.86360
S         -0.30690       -9.51110        7.97110
C          0.80780      -10.38180        6.97450
C          1.27880      -11.74520        7.34300
C          0.34170      -12.81660        6.78030
C          1.09500       -9.66540        5.85190
Cl         2.15830      -10.20690        4.61910
C          0.43400       -8.40950        5.78830
Cl         0.72710       -7.29390        4.52020
C         -2.17370       -6.60030        6.18850
C         -3.02910       -5.48980        6.39700
C         -2.95580       -4.76720        7.60210
C         -3.77890       -3.59320        7.83860
S         -3.84760       -2.30040        6.67480
C         -4.89650       -1.34870        7.66920
C         -5.42250       -0.03960        7.19400
C         -6.54270       -0.23970        6.17040
C         -5.17200       -2.00880        8.82850
C         -4.53770       -3.27670        8.93140
Cl        -4.79850       -4.31800       10.26730
Cl        -6.17960       -1.38640       10.07120
C         -2.01230       -5.18910        8.52810
S         -1.62980       -4.37720       10.01650
C         -3.85090       -5.23740        5.27240
C         -3.61990       -6.08580        4.22990
S         -2.43330       -7.31150        4.62300
C         -4.05970       -5.94620        2.88190
C         -3.48050       -6.52020        1.78940
C         -3.92040       -5.97130        0.56180
C         -3.34170       -6.16740       -0.70560
C         -2.26870       -7.13750       -0.86410
S         -2.50140       -8.79850       -0.40180
C         -0.85980       -9.21270       -0.75820
C         -0.32860      -10.57300       -0.47000
C          0.09810      -10.68020        0.99690
C         -0.18610       -8.11930       -1.21300
Cl         1.46960       -8.13480       -1.66280
C         -0.97980       -6.94160       -1.27560
Cl        -0.31990       -5.42410       -1.72110
C         -3.76090       -5.32220       -1.72160
C         -4.76430       -4.33630       -1.53460
C         -5.37520       -4.17130       -0.27840
C         -6.35710       -3.12800       -0.03640
S         -6.05790       -1.47430       -0.48990
C         -7.57260       -0.93710        0.15170
C         -7.99050        0.48580        0.02380
C         -8.28660        0.84110       -1.43440
C         -8.25770       -1.98790        0.68340
C         -7.56930       -3.22790        0.58820
Cl        -8.25280       -4.70160        1.13330
Cl        -9.80690       -1.85580        1.41040
C         -4.91100       -4.97800        0.75290
S         -5.27620       -4.76550        2.44340
C         -4.91390       -3.51820       -2.67780
C         -4.02270       -3.80170       -3.67230
S         -3.06790       -5.22580       -3.31660
C         -3.62600       -2.89860       -4.70150
C         -2.42050       -2.87090       -5.33940
C         -2.11720       -1.61500       -5.91830
C         -0.89750       -1.21470       -6.49520
C          0.12970       -2.19110       -6.80180
S          1.78690       -1.96530       -6.32780
C          2.27030       -3.47830       -7.01370
C          3.69390       -3.91160       -6.98400
C          4.51470       -3.16260       -8.03610
C          1.20270       -4.10360       -7.58660
Cl         1.29280       -5.62080       -8.38400
C         -0.01380       -3.38230       -7.46150
Cl        -1.48480       -3.93200       -8.15310
C         -0.71870        0.14800       -6.69030
C         -1.73570        1.09820       -6.43350
C         -3.00020        0.68320       -5.97450
C         -4.05880        1.65830       -5.76580
S         -4.52820        2.71550       -7.06950
C         -5.72950        3.50640       -6.10650
C         -6.60610        4.56680       -6.67650
C         -7.85450        3.95630       -7.31830
C         -5.75600        2.96820       -4.85560
C         -4.80670        1.92840       -4.65380
Cl        -4.58630        1.18830       -3.12180
Cl        -6.81440        3.49800       -3.61550
C         -3.14850       -0.66760       -5.69600
S         -4.51980       -1.40500       -4.91880
C         -1.26990        2.42660       -6.56090
C          0.05020        2.51510       -6.90670
S          0.76130        0.93000       -7.16720
C          0.88000        3.66910       -6.91590
S          2.57110        3.48630       -6.58760
C          2.80540        5.19180       -6.42660
C          1.62730        5.88760       -6.70640
C          0.52820        5.01980       -6.98420
C         -0.72980        5.57400       -7.30670
C         -0.89810        6.93050       -7.31770
O         -2.06040        7.57160       -7.59000
C         -3.20750        6.79700       -7.83920
C          0.21590        7.80570       -7.05200
O         -0.07890        9.12570       -7.12760
C          0.96240       10.05390       -6.94450
C          1.44890        7.28710       -6.77240
C          4.04570        5.70040       -5.94870
C          4.24770        6.81890       -5.19120
C          5.60000        7.02590       -4.82970
C          6.14180        8.08380       -4.08010
C          5.29660        9.14590       -3.56190
S          4.18810       10.00880       -4.59260
C          3.63450       11.01640       -3.29910
C          2.55870       12.02690       -3.49990
C          1.20110       11.48220       -3.04770
C          4.27310       10.68610       -2.14200
Cl         3.98460       11.46420       -0.64080
C          5.21370        9.63020       -2.28550
Cl         6.06790        8.98570       -0.94770
C          7.51780        8.06840       -3.87450
C          8.35520        7.03040       -4.34900
C          7.80540        5.95200       -5.06060
C          8.62360        4.84640       -5.53500
S         10.01180        5.10410       -6.54990
C         10.33890        3.40910       -6.67050
C         11.52160        2.89800       -7.41650
C         12.75230        2.83180       -6.50860
C          9.42460        2.69990       -5.95110
C          8.44700        3.50910       -5.31170
Cl         7.23100        2.85030       -4.29940
Cl         9.43020        0.98940       -5.82200
C          6.43850        5.98620       -5.30120
S          5.53670        4.81960       -6.22520
C          9.71920        7.25680       -4.00270
C          9.90560        8.41560       -3.33880
S          8.44590        9.30130       -3.06970
H          3.12500       -6.21290       13.71690
H          2.52990       -4.02230       15.27890
H          1.88120       -2.90670       17.25530
H          1.85260       -1.13010       17.38970
H          2.97750       -1.91540       16.25230
H         -1.62120       -0.88820       12.18530
H         -2.71430       -1.90460       13.16280
H         -2.43740       -0.20290       13.61390
H         -1.13100       -3.14890       12.01690
H          0.51130       -7.23390        9.40510
H          2.28250      -11.89080        6.93850
H          1.32210      -11.83190        8.42970
H         -0.66220      -12.68580        7.17700
H          0.69930      -13.80580        7.05270
H          0.29900      -12.74670        5.69640
H         -4.61360        0.53320        6.73600
H         -5.80200        0.51620        8.05300
H         -7.36320       -0.79860        6.61320
H         -6.91840        0.72310        5.83500
H         -6.17260       -0.78980        5.30830
H         -4.55740       -4.43010        5.20940
H         -2.70160       -7.25610        1.87260
H         -1.09730      -11.31830       -0.68090
H          0.53030      -10.76060       -1.11670
H          0.49120      -11.67260        1.20070
H         -0.75070      -10.49910        1.65250
H          0.87000       -9.94800        1.22030
H         -8.88110        0.64270        0.63440
H         -7.19400        1.13450        0.39560
H         -9.08180        0.21060       -1.82470
H         -8.59680        1.87980       -1.51000
H         -7.39790        0.69790       -2.04430
H         -5.59160       -2.68690       -2.73840
H         -1.72570       -3.69020       -5.29530
H          3.73670       -4.98490       -7.17640
H          4.11190       -3.71670       -5.99450
H          4.47720       -2.09180       -7.85000
H          5.55100       -3.48770       -8.00170
H          4.12090       -3.35700       -9.03060
H         -6.90380        5.24480       -5.87410
H         -6.05090        5.13240       -7.42710
H         -7.57300        3.27990       -8.12160
H         -8.42410        3.39980       -6.57860
H         -8.48550        4.74080       -7.72680
H         -1.86760        3.27660       -6.29390
H         -1.53600        4.91380       -7.57410
H         -4.01450        7.51140       -7.99330
H         -3.09180        6.18010       -8.73630
H         -3.44890        6.15230       -6.98700
H          1.73360        9.94960       -7.71420
H          0.49770       11.03480       -7.02710
H          1.42920        9.95250       -5.95920
H          2.30260        7.92650       -6.62840
H          3.44430        7.44100       -4.84690
H          2.79990       12.91720       -2.91530
H          2.51400       12.30230       -4.55480
H          0.93940       10.58800       -3.60830
H          1.23120       11.23040       -1.99100
H          0.42850       12.22950       -3.20590
H         11.72820        3.55400       -8.26350
H         11.29290        1.89910       -7.79290
H         12.56230        2.17310       -5.66500
H         12.99590        3.82160       -6.12970
H         13.60540        2.45070       -7.06310
H         10.51380        6.57710       -4.24880
H         10.82620        8.82350       -2.96980
