
  xtb     03022217203D
 energy: -194.593914683185 gnorm: 0.000391185896 xtb: 6.4.1 (unknown)
123134  0     0  0            999 V2000
    1.9987    8.8843    5.2668 C   0  0  0  0  0  0  0  0  0  0  0  0
    3.1495    8.3936    4.7431 N   0  0  0  0  0  0  0  0  0  0  0  0
    2.8948    7.2570    4.0273 C   0  0  0  0  0  0  0  0  0  0  0  0
    3.8927    6.5453    3.2950 C   0  0  0  0  0  0  0  0  0  0  0  0
    5.2265    6.7100    3.4161 C   0  0  0  0  0  0  0  0  0  0  0  0
    6.2240    6.0096    2.6694 C   0  0  0  0  0  0  0  0  0  0  0  0
    5.9586    5.1091    1.6742 N   0  0  0  0  0  0  0  0  0  0  0  0
    7.1201    4.6195    1.1749 C   0  0  0  0  0  0  0  0  0  0  0  0
    8.1607    5.2005    1.8540 C   0  0  0  0  0  0  0  0  0  0  0  0
    7.6028    6.0770    2.7946 C   0  0  0  0  0  0  0  0  0  0  0  0
    1.5202    7.0150    4.1174 C   0  0  0  0  0  0  0  0  0  0  0  0
    0.9715    8.0606    4.9007 C   0  0  0  0  0  0  0  0  0  0  0  0
    0.7833    5.9044    3.5797 C   0  0  0  0  0  0  0  0  0  0  0  0
   -0.5616    5.9745    3.3687 N   0  0  0  0  0  0  0  0  0  0  0  0
   -1.0455    4.7924    2.8840 C   0  0  0  0  0  0  0  0  0  0  0  0
   -2.4222    4.5677    2.6019 C   0  0  0  0  0  0  0  0  0  0  0  0
   -3.4290    5.4581    2.7445 C   0  0  0  0  0  0  0  0  0  0  0  0
   -4.8021    5.1950    2.4481 C   0  0  0  0  0  0  0  0  0  0  0  0
   -5.2579    4.0580    1.8370 N   0  0  0  0  0  0  0  0  0  0  0  0
   -6.6067    4.1111    1.7101 C   0  0  0  0  0  0  0  0  0  0  0  0
   -7.0439    5.2923    2.2533 C   0  0  0  0  0  0  0  0  0  0  0  0
   -5.9130    5.9802    2.7142 C   0  0  0  0  0  0  0  0  0  0  0  0
    0.0467    3.9151    2.7855 C   0  0  0  0  0  0  0  0  0  0  0  0
    1.1810    4.6284    3.2321 C   0  0  0  0  0  0  0  0  0  0  0  0
    0.0670    2.5477    2.3440 C   0  0  0  0  0  0  0  0  0  0  0  0
    1.1523    1.7501    2.5794 N   0  0  0  0  0  0  0  0  0  0  0  0
    0.9628    0.4946    2.0762 C   0  0  0  0  0  0  0  0  0  0  0  0
    1.8991   -0.5687    2.1860 C   0  0  0  0  0  0  0  0  0  0  0  0
    3.1211   -0.4976    2.7580 C   0  0  0  0  0  0  0  0  0  0  0  0
    4.0327   -1.5927    2.8506 C   0  0  0  0  0  0  0  0  0  0  0  0
    5.2529   -1.4579    3.4582 N   0  0  0  0  0  0  0  0  0  0  0  0
    5.9243   -2.6352    3.4155 C   0  0  0  0  0  0  0  0  0  0  0  0
    5.1351   -3.5532    2.7701 C   0  0  0  0  0  0  0  0  0  0  0  0
    3.9454   -2.9049    2.4124 C   0  0  0  0  0  0  0  0  0  0  0  0
   -0.3130    0.4842    1.4943 C   0  0  0  0  0  0  0  0  0  0  0  0
   -0.8527    1.7759    1.6602 C   0  0  0  0  0  0  0  0  0  0  0  0
   -1.0028   -0.6056    0.8657 C   0  0  0  0  0  0  0  0  0  0  0  0
   -0.2208   -1.7125   -0.2123 S   0  0  0  0  0  0  0  0  0  0  0  0
   -1.6960   -2.5629   -0.5542 C   0  0  0  0  0  0  0  0  0  0  0  0
   -2.7609   -1.9950    0.1385 C   0  0  0  0  0  0  0  0  0  0  0  0
   -2.3579   -0.8955    0.9598 C   0  0  0  0  0  0  0  0  0  0  0  0
   -3.3068   -0.2666    1.8037 C   0  0  0  0  0  0  0  0  0  0  0  0
   -4.6133   -0.6499    1.7668 C   0  0  0  0  0  0  0  0  0  0  0  0
   -5.6121   -0.1349    2.5396 O   0  0  0  0  0  0  0  0  0  0  0  0
   -5.2575    0.7300    3.5880 C   0  0  0  0  0  0  0  0  0  0  0  0
   -5.0434   -1.6730    0.8471 C   0  0  0  0  0  0  0  0  0  0  0  0
   -6.3862   -1.9020    0.8602 O   0  0  0  0  0  0  0  0  0  0  0  0
   -6.8980   -2.9079    0.0268 C   0  0  0  0  0  0  0  0  0  0  0  0
   -4.1355   -2.3346    0.0734 C   0  0  0  0  0  0  0  0  0  0  0  0
   -1.6582   -3.6917   -1.4265 C   0  0  0  0  0  0  0  0  0  0  0  0
   -2.5491   -4.7249   -1.3737 N   0  0  0  0  0  0  0  0  0  0  0  0
   -2.2610   -5.6693   -2.3241 C   0  0  0  0  0  0  0  0  0  0  0  0
   -3.1227   -6.7974   -2.4732 C   0  0  0  0  0  0  0  0  0  0  0  0
   -3.1752   -7.6246   -3.5381 C   0  0  0  0  0  0  0  0  0  0  0  0
   -4.0428   -8.7481   -3.6851 C   0  0  0  0  0  0  0  0  0  0  0  0
   -4.9286   -9.1839   -2.7365 N   0  0  0  0  0  0  0  0  0  0  0  0
   -5.5926  -10.2748   -3.1924 C   0  0  0  0  0  0  0  0  0  0  0  0
   -5.1405  -10.5576   -4.4565 C   0  0  0  0  0  0  0  0  0  0  0  0
   -4.1655   -9.6016   -4.7709 C   0  0  0  0  0  0  0  0  0  0  0  0
   -1.1252   -5.2197   -3.0112 C   0  0  0  0  0  0  0  0  0  0  0  0
   -0.7637   -3.9835   -2.4419 C   0  0  0  0  0  0  0  0  0  0  0  0
   -0.3812   -5.8547   -4.0723 C   0  0  0  0  0  0  0  0  0  0  0  0
    0.2130   -5.1078   -5.0454 N   0  0  0  0  0  0  0  0  0  0  0  0
    0.9043   -5.9090   -5.9109 C   0  0  0  0  0  0  0  0  0  0  0  0
    1.6081   -5.4457   -7.0616 C   0  0  0  0  0  0  0  0  0  0  0  0
    1.7118   -4.1638   -7.4677 C   0  0  0  0  0  0  0  0  0  0  0  0
    2.4108   -3.7319   -8.6385 C   0  0  0  0  0  0  0  0  0  0  0  0
    2.4741   -2.4075   -8.9800 N   0  0  0  0  0  0  0  0  0  0  0  0
    3.1827   -2.2565  -10.1270 C   0  0  0  0  0  0  0  0  0  0  0  0
    3.5887   -3.4983  -10.5426 C   0  0  0  0  0  0  0  0  0  0  0  0
    3.1067   -4.4297   -9.6116 C   0  0  0  0  0  0  0  0  0  0  0  0
    0.7579   -7.2111   -5.4503 C   0  0  0  0  0  0  0  0  0  0  0  0
   -0.0415   -7.1769   -4.3059 C   0  0  0  0  0  0  0  0  0  0  0  0
    1.9892    9.7764    5.8616 H   0  0  0  0  0  0  0  0  0  0  0  0
    4.0572    8.8167    4.8324 H   0  0  0  0  0  0  0  0  0  0  0  0
    3.4992    5.8286    2.5892 H   0  0  0  0  0  0  0  0  0  0  0  0
    5.6266    7.4032    4.1439 H   0  0  0  0  0  0  0  0  0  0  0  0
    5.0389    4.8703    1.3449 H   0  0  0  0  0  0  0  0  0  0  0  0
    7.1280    3.8990    0.3805 H   0  0  0  0  0  0  0  0  0  0  0  0
    9.2045    5.0171    1.6927 H   0  0  0  0  0  0  0  0  0  0  0  0
    8.1394    6.6906    3.4913 H   0  0  0  0  0  0  0  0  0  0  0  0
   -0.0566    8.1751    5.1835 H   0  0  0  0  0  0  0  0  0  0  0  0
   -1.1192    6.7948    3.5301 H   0  0  0  0  0  0  0  0  0  0  0  0
   -2.6517    3.5719    2.2602 H   0  0  0  0  0  0  0  0  0  0  0  0
   -3.2380    6.4553    3.1169 H   0  0  0  0  0  0  0  0  0  0  0  0
   -4.6746    3.3218    1.4775 H   0  0  0  0  0  0  0  0  0  0  0  0
   -7.1554    3.3116    1.2525 H   0  0  0  0  0  0  0  0  0  0  0  0
   -8.0612    5.6255    2.3115 H   0  0  0  0  0  0  0  0  0  0  0  0
   -5.9016    6.9381    3.1961 H   0  0  0  0  0  0  0  0  0  0  0  0
    2.1780    4.2441    3.3193 H   0  0  0  0  0  0  0  0  0  0  0  0
    1.9655    2.0403    3.0929 H   0  0  0  0  0  0  0  0  0  0  0  0
    1.5796   -1.5089    1.7633 H   0  0  0  0  0  0  0  0  0  0  0  0
    3.4732    0.4352    3.1851 H   0  0  0  0  0  0  0  0  0  0  0  0
    5.5933   -0.6079    3.8760 H   0  0  0  0  0  0  0  0  0  0  0  0
    6.9034   -2.7383    3.8405 H   0  0  0  0  0  0  0  0  0  0  0  0
    5.3850   -4.5775    2.5757 H   0  0  0  0  0  0  0  0  0  0  0  0
    3.1185   -3.3428    1.8907 H   0  0  0  0  0  0  0  0  0  0  0  0
   -1.7807    2.0979    1.2357 H   0  0  0  0  0  0  0  0  0  0  0  0
   -2.9595    0.4931    2.4841 H   0  0  0  0  0  0  0  0  0  0  0  0
   -4.5442    0.2585    4.2722 H   0  0  0  0  0  0  0  0  0  0  0  0
   -4.8311    1.6700    3.2224 H   0  0  0  0  0  0  0  0  0  0  0  0
   -6.1831    0.9458    4.1190 H   0  0  0  0  0  0  0  0  0  0  0  0
   -6.4810   -3.8900    0.2779 H   0  0  0  0  0  0  0  0  0  0  0  0
   -6.7078   -2.6949   -1.0310 H   0  0  0  0  0  0  0  0  0  0  0  0
   -7.9723   -2.9199    0.2035 H   0  0  0  0  0  0  0  0  0  0  0  0
   -4.4561   -3.0904   -0.6246 H   0  0  0  0  0  0  0  0  0  0  0  0
   -3.2752   -4.8170   -0.6840 H   0  0  0  0  0  0  0  0  0  0  0  0
   -3.8135   -6.9404   -1.6474 H   0  0  0  0  0  0  0  0  0  0  0  0
   -2.5228   -7.4414   -4.3775 H   0  0  0  0  0  0  0  0  0  0  0  0
   -5.0554   -8.7649   -1.8315 H   0  0  0  0  0  0  0  0  0  0  0  0
   -6.3317  -10.7708   -2.5939 H   0  0  0  0  0  0  0  0  0  0  0  0
   -5.4731  -11.3617   -5.0827 H   0  0  0  0  0  0  0  0  0  0  0  0
   -3.6072   -9.5324   -5.6834 H   0  0  0  0  0  0  0  0  0  0  0  0
    0.0742   -3.3734   -2.7194 H   0  0  0  0  0  0  0  0  0  0  0  0
    0.1260   -4.1092   -5.1208 H   0  0  0  0  0  0  0  0  0  0  0  0
    2.0855   -6.2197   -7.6443 H   0  0  0  0  0  0  0  0  0  0  0  0
    1.2420   -3.3722   -6.8943 H   0  0  0  0  0  0  0  0  0  0  0  0
    2.0547   -1.6607   -8.4515 H   0  0  0  0  0  0  0  0  0  0  0  0
    3.3465   -1.2902  -10.5624 H   0  0  0  0  0  0  0  0  0  0  0  0
    4.1674   -3.7152  -11.4190 H   0  0  0  0  0  0  0  0  0  0  0  0
    3.2501   -5.4908   -9.6473 H   0  0  0  0  0  0  0  0  0  0  0  0
    1.1890   -8.0842   -5.8998 H   0  0  0  0  0  0  0  0  0  0  0  0
   -0.3215   -8.0141   -3.6974 H   0  0  0  0  0  0  0  0  0  0  0  0
  1  2  1  0  0  0  0
  2  3  1  0  0  0  0
  3  4  1  0  0  0  0
  4  5  2  0  0  0  0
  5  6  1  0  0  0  0
  6  7  1  0  0  0  0
  7  8  1  0  0  0  0
  8  9  2  0  0  0  0
  9 10  1  0  0  0  0
  3 11  2  0  0  0  0
 11 12  1  0  0  0  0
 11 13  1  0  0  0  0
 13 14  1  0  0  0  0
 14 15  1  0  0  0  0
 15 16  1  0  0  0  0
 16 17  2  0  0  0  0
 17 18  1  0  0  0  0
 18 19  1  0  0  0  0
 19 20  1  0  0  0  0
 20 21  2  0  0  0  0
 21 22  1  0  0  0  0
 15 23  2  0  0  0  0
 23 24  1  0  0  0  0
 23 25  1  0  0  0  0
 25 26  1  0  0  0  0
 26 27  1  0  0  0  0
 27 28  1  0  0  0  0
 28 29  2  0  0  0  0
 29 30  1  0  0  0  0
 30 31  1  0  0  0  0
 31 32  1  0  0  0  0
 32 33  2  0  0  0  0
 33 34  1  0  0  0  0
 27 35  2  0  0  0  0
 35 36  1  0  0  0  0
 35 37  1  0  0  0  0
 37 38  1  0  0  0  0
 38 39  1  0  0  0  0
 39 40  2  0  0  0  0
 40 41  1  0  0  0  0
 41 42  1  0  0  0  0
 42 43  2  0  0  0  0
 43 44  1  0  0  0  0
 44 45  1  0  0  0  0
 43 46  1  0  0  0  0
 46 47  1  0  0  0  0
 47 48  1  0  0  0  0
 46 49  2  0  0  0  0
 39 50  1  0  0  0  0
 50 51  1  0  0  0  0
 51 52  1  0  0  0  0
 52 53  1  0  0  0  0
 53 54  2  0  0  0  0
 54 55  1  0  0  0  0
 55 56  1  0  0  0  0
 56 57  1  0  0  0  0
 57 58  2  0  0  0  0
 58 59  1  0  0  0  0
 52 60  2  0  0  0  0
 60 61  1  0  0  0  0
 60 62  1  0  0  0  0
 62 63  1  0  0  0  0
 63 64  1  0  0  0  0
 64 65  1  0  0  0  0
 65 66  2  0  0  0  0
 66 67  1  0  0  0  0
 67 68  1  0  0  0  0
 68 69  1  0  0  0  0
 69 70  2  0  0  0  0
 70 71  1  0  0  0  0
 64 72  2  0  0  0  0
 72 73  1  0  0  0  0
 12  1  2  0  0  0  0
 24 13  2  0  0  0  0
 36 25  2  0  0  0  0
 41 37  2  0  0  0  0
 61 50  2  0  0  0  0
 73 62  2  0  0  0  0
 10  6  2  0  0  0  0
 22 18  2  0  0  0  0
 34 30  2  0  0  0  0
 49 40  1  0  0  0  0
 59 55  2  0  0  0  0
 71 67  2  0  0  0  0
  1 74  1  0  0  0  0
  2 75  1  0  0  0  0
  4 76  1  0  0  0  0
  5 77  1  0  0  0  0
  7 78  1  0  0  0  0
  8 79  1  0  0  0  0
  9 80  1  0  0  0  0
 10 81  1  0  0  0  0
 12 82  1  0  0  0  0
 14 83  1  0  0  0  0
 16 84  1  0  0  0  0
 17 85  1  0  0  0  0
 19 86  1  0  0  0  0
 20 87  1  0  0  0  0
 21 88  1  0  0  0  0
 22 89  1  0  0  0  0
 24 90  1  0  0  0  0
 26 91  1  0  0  0  0
 28 92  1  0  0  0  0
 29 93  1  0  0  0  0
 31 94  1  0  0  0  0
 32 95  1  0  0  0  0
 33 96  1  0  0  0  0
 34 97  1  0  0  0  0
 36 98  1  0  0  0  0
 42 99  1  0  0  0  0
 45100  1  0  0  0  0
 45101  1  0  0  0  0
 45102  1  0  0  0  0
 48103  1  0  0  0  0
 48104  1  0  0  0  0
 48105  1  0  0  0  0
 49106  1  0  0  0  0
 51107  1  0  0  0  0
 53108  1  0  0  0  0
 54109  1  0  0  0  0
 56110  1  0  0  0  0
 57111  1  0  0  0  0
 58112  1  0  0  0  0
 59113  1  0  0  0  0
 61114  1  0  0  0  0
 63115  1  0  0  0  0
 65116  1  0  0  0  0
 66117  1  0  0  0  0
 68118  1  0  0  0  0
 69119  1  0  0  0  0
 70120  1  0  0  0  0
 71121  1  0  0  0  0
 72122  1  0  0  0  0
 73123  1  0  0  0  0
M  END
