
  xtb     03022213283D
 energy: -365.132370169544 gnorm: 0.000460690152 xtb: 6.4.1 (unknown)
191211  0     0  0            999 V2000
   10.8569   -8.0791   11.3744 C   0  0  0  0  0  0  0  0  0  0  0  0
   11.1010   -6.9206   10.7289 C   0  0  0  0  0  0  0  0  0  0  0  0
   10.1445   -6.6446    9.7089 C   0  0  0  0  0  0  0  0  0  0  0  0
   10.0577   -5.5165    8.8790 C   0  0  0  0  0  0  0  0  0  0  0  0
   11.0723   -4.4757    8.8862 C   0  0  0  0  0  0  0  0  0  0  0  0
   10.6435   -2.8005    9.0642 S   0  0  0  0  0  0  0  0  0  0  0  0
   12.2886   -2.2827    8.9158 C   0  0  0  0  0  0  0  0  0  0  0  0
   12.6351   -0.8350    8.9330 C   0  0  0  0  0  0  0  0  0  0  0  0
   12.1434   -0.1395    7.6617 C   0  0  0  0  0  0  0  0  0  0  0  0
   13.1085   -3.3564    8.7365 C   0  0  0  0  0  0  0  0  0  0  0  0
   14.8104   -3.2456    8.5402 Cl  0  0  0  0  0  0  0  0  0  0  0  0
   12.4237   -4.6019    8.7241 C   0  0  0  0  0  0  0  0  0  0  0  0
   13.2250   -6.0941    8.4446 Cl  0  0  0  0  0  0  0  0  0  0  0  0
    8.9515   -5.4335    8.0435 C   0  0  0  0  0  0  0  0  0  0  0  0
    7.9575   -6.4389    7.9711 C   0  0  0  0  0  0  0  0  0  0  0  0
    8.0691   -7.5905    8.7680 C   0  0  0  0  0  0  0  0  0  0  0  0
    7.0745   -8.6492    8.7145 C   0  0  0  0  0  0  0  0  0  0  0  0
    5.3830   -8.3130    8.9437 S   0  0  0  0  0  0  0  0  0  0  0  0
    4.9467   -9.9787    8.7743 C   0  0  0  0  0  0  0  0  0  0  0  0
    3.5344  -10.4267    8.9212 C   0  0  0  0  0  0  0  0  0  0  0  0
    3.1902  -10.6788   10.3910 C   0  0  0  0  0  0  0  0  0  0  0  0
    6.0574  -10.7385    8.5597 C   0  0  0  0  0  0  0  0  0  0  0  0
    7.2644   -9.9895    8.5219 C   0  0  0  0  0  0  0  0  0  0  0  0
    8.7807  -10.7094    8.1778 Cl  0  0  0  0  0  0  0  0  0  0  0  0
    6.0238  -12.4397    8.3407 Cl  0  0  0  0  0  0  0  0  0  0  0  0
    9.1599   -7.6588    9.6281 C   0  0  0  0  0  0  0  0  0  0  0  0
    9.4595   -8.9154   10.7944 S   0  0  0  0  0  0  0  0  0  0  0  0
    6.9512   -6.1174    7.0257 C   0  0  0  0  0  0  0  0  0  0  0  0
    7.1523   -4.9211    6.4052 C   0  0  0  0  0  0  0  0  0  0  0  0
    8.6184   -4.1276    6.9433 S   0  0  0  0  0  0  0  0  0  0  0  0
    6.3112   -4.2695    5.4576 C   0  0  0  0  0  0  0  0  0  0  0  0
    6.5236   -3.0607    4.8655 C   0  0  0  0  0  0  0  0  0  0  0  0
    5.4574   -2.6416    4.0342 C   0  0  0  0  0  0  0  0  0  0  0  0
    5.3560   -1.4521    3.2903 C   0  0  0  0  0  0  0  0  0  0  0  0
    6.3948   -0.4383    3.3551 C   0  0  0  0  0  0  0  0  0  0  0  0
    7.1246    0.1999    1.9121 S   0  0  0  0  0  0  0  0  0  0  0  0
    8.1811    1.2341    2.8098 C   0  0  0  0  0  0  0  0  0  0  0  0
    9.1930    2.0863    2.1268 C   0  0  0  0  0  0  0  0  0  0  0  0
   10.4959    1.3152    1.9015 C   0  0  0  0  0  0  0  0  0  0  0  0
    7.9696    1.0815    4.1478 C   0  0  0  0  0  0  0  0  0  0  0  0
    8.8363    1.9371    5.3566 Cl  0  0  0  0  0  0  0  0  0  0  0  0
    6.9530    0.1410    4.4619 C   0  0  0  0  0  0  0  0  0  0  0  0
    6.4387   -0.1511    6.0745 Cl  0  0  0  0  0  0  0  0  0  0  0  0
    4.2213   -1.2959    2.5067 C   0  0  0  0  0  0  0  0  0  0  0  0
    3.1845   -2.2602    2.4565 C   0  0  0  0  0  0  0  0  0  0  0  0
    3.2957   -3.4607    3.1820 C   0  0  0  0  0  0  0  0  0  0  0  0
    2.2810   -4.4940    3.0792 C   0  0  0  0  0  0  0  0  0  0  0  0
    1.5966   -5.2354    4.4954 S   0  0  0  0  0  0  0  0  0  0  0  0
    0.5626   -6.2594    3.5574 C   0  0  0  0  0  0  0  0  0  0  0  0
   -0.3265   -7.2568    4.2136 C   0  0  0  0  0  0  0  0  0  0  0  0
    0.4778   -8.4593    4.7124 C   0  0  0  0  0  0  0  0  0  0  0  0
    0.7558   -6.0358    2.2270 C   0  0  0  0  0  0  0  0  0  0  0  0
    1.7275   -5.0363    1.9506 C   0  0  0  0  0  0  0  0  0  0  0  0
    2.1981   -4.6447    0.3454 Cl  0  0  0  0  0  0  0  0  0  0  0  0
   -0.0896   -6.8578    0.9794 Cl  0  0  0  0  0  0  0  0  0  0  0  0
    4.4231   -3.6081    3.9781 C   0  0  0  0  0  0  0  0  0  0  0  0
    4.7859   -4.9863    4.9789 S   0  0  0  0  0  0  0  0  0  0  0  0
    2.1027   -1.8287    1.6561 C   0  0  0  0  0  0  0  0  0  0  0  0
    2.3040   -0.6097    1.0745 C   0  0  0  0  0  0  0  0  0  0  0  0
    3.8431    0.0910    1.5248 S   0  0  0  0  0  0  0  0  0  0  0  0
    1.4216    0.0469    0.1668 C   0  0  0  0  0  0  0  0  0  0  0  0
    0.2849   -0.4810   -0.3765 C   0  0  0  0  0  0  0  0  0  0  0  0
   -0.3614    0.3835   -1.2868 C   0  0  0  0  0  0  0  0  0  0  0  0
   -1.5494    0.1488   -2.0056 C   0  0  0  0  0  0  0  0  0  0  0  0
   -2.1926   -1.1522   -1.9813 C   0  0  0  0  0  0  0  0  0  0  0  0
   -3.8974   -1.3169   -1.6789 S   0  0  0  0  0  0  0  0  0  0  0  0
   -3.8349   -3.0422   -1.8099 C   0  0  0  0  0  0  0  0  0  0  0  0
   -5.0705   -3.8641   -1.6914 C   0  0  0  0  0  0  0  0  0  0  0  0
   -5.9264   -3.7481   -2.9548 C   0  0  0  0  0  0  0  0  0  0  0  0
   -2.5637   -3.4507   -2.0826 C   0  0  0  0  0  0  0  0  0  0  0  0
   -2.1018   -5.0921   -2.2801 Cl  0  0  0  0  0  0  0  0  0  0  0  0
   -1.6297   -2.3841   -2.1798 C   0  0  0  0  0  0  0  0  0  0  0  0
    0.0149   -2.6486   -2.5998 Cl  0  0  0  0  0  0  0  0  0  0  0  0
   -2.0619    1.2138   -2.7288 C   0  0  0  0  0  0  0  0  0  0  0  0
   -1.4202    2.4755   -2.8143 C   0  0  0  0  0  0  0  0  0  0  0  0
   -0.1902    2.6807   -2.1614 C   0  0  0  0  0  0  0  0  0  0  0  0
    0.5323    3.9383   -2.2596 C   0  0  0  0  0  0  0  0  0  0  0  0
   -0.2102    5.4562   -1.8419 S   0  0  0  0  0  0  0  0  0  0  0  0
    1.2450    6.3462   -2.1489 C   0  0  0  0  0  0  0  0  0  0  0  0
    1.2938    7.8255   -1.9845 C   0  0  0  0  0  0  0  0  0  0  0  0
    0.5241    8.5384   -3.0976 C   0  0  0  0  0  0  0  0  0  0  0  0
    2.2313    5.5042   -2.5646 C   0  0  0  0  0  0  0  0  0  0  0  0
    1.8345    4.1402   -2.6227 C   0  0  0  0  0  0  0  0  0  0  0  0
    2.8841    2.9026   -3.1746 Cl  0  0  0  0  0  0  0  0  0  0  0  0
    3.8162    6.0140   -2.9807 Cl  0  0  0  0  0  0  0  0  0  0  0  0
    0.3048    1.6278   -1.4013 C   0  0  0  0  0  0  0  0  0  0  0  0
    1.7377    1.6662   -0.4139 S   0  0  0  0  0  0  0  0  0  0  0  0
   -2.1397    3.3845   -3.6225 C   0  0  0  0  0  0  0  0  0  0  0  0
   -3.2909    2.8662   -4.1535 C   0  0  0  0  0  0  0  0  0  0  0  0
   -3.5261    1.1913   -3.6650 S   0  0  0  0  0  0  0  0  0  0  0  0
   -4.2853    3.4673   -4.9652 C   0  0  0  0  0  0  0  0  0  0  0  0
   -5.8347    2.6864   -5.0723 S   0  0  0  0  0  0  0  0  0  0  0  0
   -6.4966    3.9338   -6.0771 C   0  0  0  0  0  0  0  0  0  0  0  0
   -5.5202    4.8897   -6.3769 C   0  0  0  0  0  0  0  0  0  0  0  0
   -4.2708    4.6355   -5.7356 C   0  0  0  0  0  0  0  0  0  0  0  0
   -3.1856    5.5034   -5.9846 C   0  0  0  0  0  0  0  0  0  0  0  0
   -3.3315    6.5692   -6.8291 C   0  0  0  0  0  0  0  0  0  0  0  0
   -2.3604    7.4643   -7.1339 O   0  0  0  0  0  0  0  0  0  0  0  0
   -1.0938    7.3011   -6.5452 C   0  0  0  0  0  0  0  0  0  0  0  0
   -4.5805    6.7962   -7.5068 C   0  0  0  0  0  0  0  0  0  0  0  0
   -4.5767    7.8579   -8.3536 O   0  0  0  0  0  0  0  0  0  0  0  0
   -5.7315    8.1046   -9.1158 C   0  0  0  0  0  0  0  0  0  0  0  0
   -5.6390    5.9608   -7.2899 C   0  0  0  0  0  0  0  0  0  0  0  0
   -7.8525    3.8622   -6.4802 C   0  0  0  0  0  0  0  0  0  0  0  0
   -8.5609    2.3103   -6.8015 S   0  0  0  0  0  0  0  0  0  0  0  0
  -10.1097    2.9847   -7.2182 C   0  0  0  0  0  0  0  0  0  0  0  0
  -10.0742    4.3803   -7.0721 C   0  0  0  0  0  0  0  0  0  0  0  0
   -8.8070    4.8695   -6.6347 C   0  0  0  0  0  0  0  0  0  0  0  0
   -8.6510    6.2359   -6.3130 C   0  0  0  0  0  0  0  0  0  0  0  0
   -9.6883    7.1053   -6.4945 C   0  0  0  0  0  0  0  0  0  0  0  0
   -9.6547    8.4352   -6.2245 O   0  0  0  0  0  0  0  0  0  0  0  0
   -8.4842    8.9698   -5.6592 C   0  0  0  0  0  0  0  0  0  0  0  0
  -10.9511    6.6268   -6.9907 C   0  0  0  0  0  0  0  0  0  0  0  0
  -11.8973    7.5885   -7.1320 O   0  0  0  0  0  0  0  0  0  0  0  0
  -13.1730    7.2066   -7.5842 C   0  0  0  0  0  0  0  0  0  0  0  0
  -11.1340    5.2965   -7.2477 C   0  0  0  0  0  0  0  0  0  0  0  0
  -11.1529    2.1426   -7.6757 C   0  0  0  0  0  0  0  0  0  0  0  0
  -12.4682    2.7762   -8.6311 S   0  0  0  0  0  0  0  0  0  0  0  0
  -13.1697    1.2347   -8.8495 C   0  0  0  0  0  0  0  0  0  0  0  0
  -12.4503    0.2478   -8.2196 C   0  0  0  0  0  0  0  0  0  0  0  0
  -11.2949    0.7550   -7.5422 C   0  0  0  0  0  0  0  0  0  0  0  0
  -10.4853   -0.1464   -6.8181 C   0  0  0  0  0  0  0  0  0  0  0  0
  -10.7804   -1.4806   -6.8013 C   0  0  0  0  0  0  0  0  0  0  0  0
  -10.0676   -2.4281   -6.1442 O   0  0  0  0  0  0  0  0  0  0  0  0
   -8.9209   -2.0297   -5.4328 C   0  0  0  0  0  0  0  0  0  0  0  0
  -11.9258   -1.9919   -7.5151 C   0  0  0  0  0  0  0  0  0  0  0  0
  -12.0853   -3.3356   -7.4197 O   0  0  0  0  0  0  0  0  0  0  0  0
  -13.1732   -3.9231   -8.0877 C   0  0  0  0  0  0  0  0  0  0  0  0
  -12.7424   -1.1391   -8.1954 C   0  0  0  0  0  0  0  0  0  0  0  0
   11.4174   -8.5163   12.1774 H   0  0  0  0  0  0  0  0  0  0  0  0
   11.9172   -6.2647   10.9685 H   0  0  0  0  0  0  0  0  0  0  0  0
   13.7187   -0.7370    9.0156 H   0  0  0  0  0  0  0  0  0  0  0  0
   12.1752   -0.3607    9.8028 H   0  0  0  0  0  0  0  0  0  0  0  0
   11.0631   -0.2295    7.5765 H   0  0  0  0  0  0  0  0  0  0  0  0
   12.5995   -0.5906    6.7839 H   0  0  0  0  0  0  0  0  0  0  0  0
   12.4050    0.9149    7.6873 H   0  0  0  0  0  0  0  0  0  0  0  0
    3.3987  -11.3477    8.3512 H   0  0  0  0  0  0  0  0  0  0  0  0
    2.8683   -9.6622    8.5176 H   0  0  0  0  0  0  0  0  0  0  0  0
    3.3182   -9.7675   10.9702 H   0  0  0  0  0  0  0  0  0  0  0  0
    3.8395  -11.4469   10.8031 H   0  0  0  0  0  0  0  0  0  0  0  0
    2.1587  -11.0087   10.4816 H   0  0  0  0  0  0  0  0  0  0  0  0
    6.1034   -6.7426    6.8122 H   0  0  0  0  0  0  0  0  0  0  0  0
    7.4233   -2.4942    5.0214 H   0  0  0  0  0  0  0  0  0  0  0  0
    9.3908    2.9625    2.7473 H   0  0  0  0  0  0  0  0  0  0  0  0
    8.7959    2.4185    1.1665 H   0  0  0  0  0  0  0  0  0  0  0  0
   10.9104    0.9900    2.8524 H   0  0  0  0  0  0  0  0  0  0  0  0
   10.3136    0.4394    1.2834 H   0  0  0  0  0  0  0  0  0  0  0  0
   11.2233    1.9497    1.4026 H   0  0  0  0  0  0  0  0  0  0  0  0
   -0.8372   -6.7892    5.0578 H   0  0  0  0  0  0  0  0  0  0  0  0
   -1.0744   -7.5861    3.4907 H   0  0  0  0  0  0  0  0  0  0  0  0
    0.9781   -8.9494    3.8810 H   0  0  0  0  0  0  0  0  0  0  0  0
   -0.1815   -9.1764    5.1941 H   0  0  0  0  0  0  0  0  0  0  0  0
    1.2300   -8.1366    5.4285 H   0  0  0  0  0  0  0  0  0  0  0  0
    1.1979   -2.3924    1.5343 H   0  0  0  0  0  0  0  0  0  0  0  0
   -0.0855   -1.4563   -0.1252 H   0  0  0  0  0  0  0  0  0  0  0  0
   -4.7829   -4.9047   -1.5331 H   0  0  0  0  0  0  0  0  0  0  0  0
   -5.6511   -3.5267   -0.8305 H   0  0  0  0  0  0  0  0  0  0  0  0
   -6.8256   -4.3498   -2.8523 H   0  0  0  0  0  0  0  0  0  0  0  0
   -6.2126   -2.7120   -3.1212 H   0  0  0  0  0  0  0  0  0  0  0  0
   -5.3693   -4.0976   -3.8204 H   0  0  0  0  0  0  0  0  0  0  0  0
    0.8629    8.0973   -1.0185 H   0  0  0  0  0  0  0  0  0  0  0  0
    2.3388    8.1386   -1.9996 H   0  0  0  0  0  0  0  0  0  0  0  0
    0.9451    8.2873   -4.0683 H   0  0  0  0  0  0  0  0  0  0  0  0
    0.5819    9.6148   -2.9615 H   0  0  0  0  0  0  0  0  0  0  0  0
   -0.5222    8.2417   -3.0791 H   0  0  0  0  0  0  0  0  0  0  0  0
   -1.8293    4.4021   -3.7574 H   0  0  0  0  0  0  0  0  0  0  0  0
   -2.2351    5.2923   -5.5298 H   0  0  0  0  0  0  0  0  0  0  0  0
   -1.1509    7.3456   -5.4528 H   0  0  0  0  0  0  0  0  0  0  0  0
   -0.6291    6.3562   -6.8454 H   0  0  0  0  0  0  0  0  0  0  0  0
   -0.4915    8.1313   -6.9099 H   0  0  0  0  0  0  0  0  0  0  0  0
   -5.5034    8.9808   -9.7201 H   0  0  0  0  0  0  0  0  0  0  0  0
   -6.5993    8.3183   -8.4821 H   0  0  0  0  0  0  0  0  0  0  0  0
   -5.9682    7.2611   -9.7722 H   0  0  0  0  0  0  0  0  0  0  0  0
   -6.5651    6.0769   -7.8268 H   0  0  0  0  0  0  0  0  0  0  0  0
   -7.7125    6.5595   -5.8961 H   0  0  0  0  0  0  0  0  0  0  0  0
   -7.6211    8.8527   -6.3239 H   0  0  0  0  0  0  0  0  0  0  0  0
   -8.6848   10.0298   -5.5144 H   0  0  0  0  0  0  0  0  0  0  0  0
   -8.2560    8.5068   -4.6937 H   0  0  0  0  0  0  0  0  0  0  0  0
  -13.1266    6.7448   -8.5758 H   0  0  0  0  0  0  0  0  0  0  0  0
  -13.6558    6.5146   -6.8865 H   0  0  0  0  0  0  0  0  0  0  0  0
  -13.7520    8.1268   -7.6390 H   0  0  0  0  0  0  0  0  0  0  0  0
  -12.0941    4.9305   -7.5640 H   0  0  0  0  0  0  0  0  0  0  0  0
  -14.0691    1.1396   -9.4238 H   0  0  0  0  0  0  0  0  0  0  0  0
   -9.6416    0.2283   -6.2669 H   0  0  0  0  0  0  0  0  0  0  0  0
   -8.1843   -1.5550   -6.0888 H   0  0  0  0  0  0  0  0  0  0  0  0
   -8.5001   -2.9444   -5.0186 H   0  0  0  0  0  0  0  0  0  0  0  0
   -9.1715   -1.3432   -4.6175 H   0  0  0  0  0  0  0  0  0  0  0  0
  -13.0999   -4.9908   -7.8887 H   0  0  0  0  0  0  0  0  0  0  0  0
  -14.1290   -3.5476   -7.7070 H   0  0  0  0  0  0  0  0  0  0  0  0
  -13.1216   -3.7503   -9.1679 H   0  0  0  0  0  0  0  0  0  0  0  0
  -13.6160   -1.4832   -8.7243 H   0  0  0  0  0  0  0  0  0  0  0  0
  1  2  2  0  0  0  0
  2  3  1  0  0  0  0
  3  4  2  0  0  0  0
  4  5  1  0  0  0  0
  5  6  1  0  0  0  0
  6  7  1  0  0  0  0
  7  8  1  0  0  0  0
  8  9  1  0  0  0  0
  7 10  2  0  0  0  0
 10 11  1  0  0  0  0
 10 12  1  0  0  0  0
 12 13  1  0  0  0  0
  4 14  1  0  0  0  0
 14 15  2  0  0  0  0
 15 16  1  0  0  0  0
 16 17  1  0  0  0  0
 17 18  1  0  0  0  0
 18 19  1  0  0  0  0
 19 20  1  0  0  0  0
 20 21  1  0  0  0  0
 19 22  2  0  0  0  0
 22 23  1  0  0  0  0
 23 24  1  0  0  0  0
 22 25  1  0  0  0  0
 16 26  2  0  0  0  0
 26 27  1  0  0  0  0
 15 28  1  0  0  0  0
 28 29  2  0  0  0  0
 29 30  1  0  0  0  0
 29 31  1  0  0  0  0
 31 32  2  0  0  0  0
 32 33  1  0  0  0  0
 33 34  2  0  0  0  0
 34 35  1  0  0  0  0
 35 36  1  0  0  0  0
 36 37  1  0  0  0  0
 37 38  1  0  0  0  0
 38 39  1  0  0  0  0
 37 40  2  0  0  0  0
 40 41  1  0  0  0  0
 40 42  1  0  0  0  0
 42 43  1  0  0  0  0
 34 44  1  0  0  0  0
 44 45  2  0  0  0  0
 45 46  1  0  0  0  0
 46 47  1  0  0  0  0
 47 48  1  0  0  0  0
 48 49  1  0  0  0  0
 49 50  1  0  0  0  0
 50 51  1  0  0  0  0
 49 52  2  0  0  0  0
 52 53  1  0  0  0  0
 53 54  1  0  0  0  0
 52 55  1  0  0  0  0
 46 56  2  0  0  0  0
 56 57  1  0  0  0  0
 45 58  1  0  0  0  0
 58 59  2  0  0  0  0
 59 60  1  0  0  0  0
 59 61  1  0  0  0  0
 61 62  2  0  0  0  0
 62 63  1  0  0  0  0
 63 64  2  0  0  0  0
 64 65  1  0  0  0  0
 65 66  1  0  0  0  0
 66 67  1  0  0  0  0
 67 68  1  0  0  0  0
 68 69  1  0  0  0  0
 67 70  2  0  0  0  0
 70 71  1  0  0  0  0
 70 72  1  0  0  0  0
 72 73  1  0  0  0  0
 64 74  1  0  0  0  0
 74 75  2  0  0  0  0
 75 76  1  0  0  0  0
 76 77  1  0  0  0  0
 77 78  1  0  0  0  0
 78 79  1  0  0  0  0
 79 80  1  0  0  0  0
 80 81  1  0  0  0  0
 79 82  2  0  0  0  0
 82 83  1  0  0  0  0
 83 84  1  0  0  0  0
 82 85  1  0  0  0  0
 76 86  2  0  0  0  0
 86 87  1  0  0  0  0
 75 88  1  0  0  0  0
 88 89  2  0  0  0  0
 89 90  1  0  0  0  0
 89 91  1  0  0  0  0
 91 92  1  0  0  0  0
 92 93  1  0  0  0  0
 93 94  2  0  0  0  0
 94 95  1  0  0  0  0
 95 96  1  0  0  0  0
 96 97  2  0  0  0  0
 97 98  1  0  0  0  0
 98 99  1  0  0  0  0
 97100  1  0  0  0  0
100101  1  0  0  0  0
101102  1  0  0  0  0
100103  2  0  0  0  0
 93104  1  0  0  0  0
104105  1  0  0  0  0
105106  1  0  0  0  0
106107  2  0  0  0  0
107108  1  0  0  0  0
108109  1  0  0  0  0
109110  2  0  0  0  0
110111  1  0  0  0  0
111112  1  0  0  0  0
110113  1  0  0  0  0
113114  1  0  0  0  0
114115  1  0  0  0  0
113116  2  0  0  0  0
106117  1  0  0  0  0
117118  1  0  0  0  0
118119  1  0  0  0  0
119120  2  0  0  0  0
120121  1  0  0  0  0
121122  1  0  0  0  0
122123  2  0  0  0  0
123124  1  0  0  0  0
124125  1  0  0  0  0
123126  1  0  0  0  0
126127  1  0  0  0  0
127128  1  0  0  0  0
126129  2  0  0  0  0
 27  1  1  0  0  0  0
 57 31  1  0  0  0  0
 87 61  1  0  0  0  0
 95 91  2  0  0  0  0
108104  2  0  0  0  0
121117  2  0  0  0  0
 26  3  1  0  0  0  0
 56 33  1  0  0  0  0
 86 63  1  0  0  0  0
103 94  1  0  0  0  0
116107  1  0  0  0  0
129120  1  0  0  0  0
 12  5  2  0  0  0  0
 30 14  1  0  0  0  0
 42 35  2  0  0  0  0
 60 44  1  0  0  0  0
 72 65  2  0  0  0  0
 90 74  1  0  0  0  0
 23 17  2  0  0  0  0
 53 47  2  0  0  0  0
 83 77  2  0  0  0  0
  1130  1  0  0  0  0
  2131  1  0  0  0  0
  8132  1  0  0  0  0
  8133  1  0  0  0  0
  9134  1  0  0  0  0
  9135  1  0  0  0  0
  9136  1  0  0  0  0
 20137  1  0  0  0  0
 20138  1  0  0  0  0
 21139  1  0  0  0  0
 21140  1  0  0  0  0
 21141  1  0  0  0  0
 28142  1  0  0  0  0
 32143  1  0  0  0  0
 38144  1  0  0  0  0
 38145  1  0  0  0  0
 39146  1  0  0  0  0
 39147  1  0  0  0  0
 39148  1  0  0  0  0
 50149  1  0  0  0  0
 50150  1  0  0  0  0
 51151  1  0  0  0  0
 51152  1  0  0  0  0
 51153  1  0  0  0  0
 58154  1  0  0  0  0
 62155  1  0  0  0  0
 68156  1  0  0  0  0
 68157  1  0  0  0  0
 69158  1  0  0  0  0
 69159  1  0  0  0  0
 69160  1  0  0  0  0
 80161  1  0  0  0  0
 80162  1  0  0  0  0
 81163  1  0  0  0  0
 81164  1  0  0  0  0
 81165  1  0  0  0  0
 88166  1  0  0  0  0
 96167  1  0  0  0  0
 99168  1  0  0  0  0
 99169  1  0  0  0  0
 99170  1  0  0  0  0
102171  1  0  0  0  0
102172  1  0  0  0  0
102173  1  0  0  0  0
103174  1  0  0  0  0
109175  1  0  0  0  0
112176  1  0  0  0  0
112177  1  0  0  0  0
112178  1  0  0  0  0
115179  1  0  0  0  0
115180  1  0  0  0  0
115181  1  0  0  0  0
116182  1  0  0  0  0
119183  1  0  0  0  0
122184  1  0  0  0  0
125185  1  0  0  0  0
125186  1  0  0  0  0
125187  1  0  0  0  0
128188  1  0  0  0  0
128189  1  0  0  0  0
128190  1  0  0  0  0
129191  1  0  0  0  0
M  END
