
  xtb     03042206353D
 energy: -176.174903700333 gnorm: 0.000410647134 xtb: 6.4.1 (unknown)
100111  0     0  0            999 V2000
    7.7554   -6.2038    0.0965 C   0  0  0  0  0  0  0  0  0  0  0  0
    6.4979   -6.6716    0.4843 C   0  0  0  0  0  0  0  0  0  0  0  0
    5.9097   -7.9309    0.3012 C   0  0  0  0  0  0  0  0  0  0  0  0
    4.5912   -8.1042    0.6577 C   0  0  0  0  0  0  0  0  0  0  0  0
    3.8469   -7.0400    1.1669 C   0  0  0  0  0  0  0  0  0  0  0  0
    4.4174   -5.7910    1.3742 C   0  0  0  0  0  0  0  0  0  0  0  0
    5.7572   -5.6036    1.0869 C   0  0  0  0  0  0  0  0  0  0  0  0
    6.6180   -4.4322    1.1584 C   0  0  0  0  0  0  0  0  0  0  0  0
    7.8711   -4.8064    0.3890 C   0  0  0  0  0  0  0  0  0  0  0  0
    8.8137   -4.0793    0.1041 O   0  0  0  0  0  0  0  0  0  0  0  0
    6.3773   -3.2910    1.8509 C   0  0  0  0  0  0  0  0  0  0  0  0
    7.0276   -1.9876    1.8781 C   0  0  0  0  0  0  0  0  0  0  0  0
    8.2938   -1.5901    1.4781 C   0  0  0  0  0  0  0  0  0  0  0  0
    8.6792   -0.2736    1.6780 C   0  0  0  0  0  0  0  0  0  0  0  0
    7.8306    0.6364    2.2920 C   0  0  0  0  0  0  0  0  0  0  0  0
    6.5611    0.2581    2.6958 C   0  0  0  0  0  0  0  0  0  0  0  0
    6.1433   -1.0434    2.4641 C   0  0  0  0  0  0  0  0  0  0  0  0
    4.9108   -1.7022    2.8573 C   0  0  0  0  0  0  0  0  0  0  0  0
    5.2695   -3.1508    2.8534 C   0  0  0  0  0  0  0  0  0  0  0  0
    4.8913   -4.0199    3.6002 O   0  0  0  0  0  0  0  0  0  0  0  0
    3.6572   -1.1888    2.9942 C   0  0  0  0  0  0  0  0  0  0  0  0
    2.4425   -1.8121    3.4844 C   0  0  0  0  0  0  0  0  0  0  0  0
    2.2699   -2.9463    4.2668 C   0  0  0  0  0  0  0  0  0  0  0  0
    0.9992   -3.2704    4.7123 C   0  0  0  0  0  0  0  0  0  0  0  0
   -0.0853   -2.4491    4.4350 C   0  0  0  0  0  0  0  0  0  0  0  0
    0.0752   -1.3001    3.6814 C   0  0  0  0  0  0  0  0  0  0  0  0
    1.3298   -0.9934    3.1713 C   0  0  0  0  0  0  0  0  0  0  0  0
    1.7684    0.1862    2.4573 C   0  0  0  0  0  0  0  0  0  0  0  0
    3.2601    0.1430    2.4441 C   0  0  0  0  0  0  0  0  0  0  0  0
    3.9988    0.9588    1.9399 O   0  0  0  0  0  0  0  0  0  0  0  0
    1.0067    1.0947    1.7769 C   0  0  0  0  0  0  0  0  0  0  0  0
    1.3269    2.4387    1.3481 C   0  0  0  0  0  0  0  0  0  0  0  0
    2.3757    3.2710    1.7112 C   0  0  0  0  0  0  0  0  0  0  0  0
    2.3983    4.5754    1.2446 C   0  0  0  0  0  0  0  0  0  0  0  0
    1.3713    5.0628    0.4490 C   0  0  0  0  0  0  0  0  0  0  0  0
    0.2934    4.2609    0.1147 C   0  0  0  0  0  0  0  0  0  0  0  0
    0.2628    2.9441    0.5556 C   0  0  0  0  0  0  0  0  0  0  0  0
   -0.7811    1.9515    0.4443 C   0  0  0  0  0  0  0  0  0  0  0  0
   -0.3399    0.7777    1.2109 C   0  0  0  0  0  0  0  0  0  0  0  0
   -0.8733   -0.3201    1.2391 O   0  0  0  0  0  0  0  0  0  0  0  0
   -1.9298    2.0314   -0.3239 C   0  0  0  0  0  0  0  0  0  0  0  0
   -2.0206    3.1642   -1.6690 S   0  0  0  0  0  0  0  0  0  0  0  0
   -3.5710    2.5831   -2.1942 C   0  0  0  0  0  0  0  0  0  0  0  0
   -4.0730    1.6342   -1.2810 C   0  0  0  0  0  0  0  0  0  0  0  0
   -3.1556    1.3028   -0.2515 C   0  0  0  0  0  0  0  0  0  0  0  0
   -3.5554    0.4135    0.7516 C   0  0  0  0  0  0  0  0  0  0  0  0
   -4.8130   -0.1473    0.7332 C   0  0  0  0  0  0  0  0  0  0  0  0
   -5.2679   -1.0473    1.6321 O   0  0  0  0  0  0  0  0  0  0  0  0
   -4.3803   -1.5086    2.6254 C   0  0  0  0  0  0  0  0  0  0  0  0
   -5.7592    0.2449   -0.2658 C   0  0  0  0  0  0  0  0  0  0  0  0
   -6.9918   -0.3053   -0.1374 O   0  0  0  0  0  0  0  0  0  0  0  0
   -8.0016    0.0966   -1.0296 C   0  0  0  0  0  0  0  0  0  0  0  0
   -5.3859    1.1288   -1.2464 C   0  0  0  0  0  0  0  0  0  0  0  0
   -4.1565    3.0845   -3.3707 C   0  0  0  0  0  0  0  0  0  0  0  0
   -3.8609    4.7333   -3.8652 S   0  0  0  0  0  0  0  0  0  0  0  0
   -4.8982    4.5903   -5.2130 C   0  0  0  0  0  0  0  0  0  0  0  0
   -5.4330    3.3258   -5.3345 C   0  0  0  0  0  0  0  0  0  0  0  0
   -4.9939    2.4448   -4.2978 C   0  0  0  0  0  0  0  0  0  0  0  0
   -5.3311    1.0782   -4.3668 C   0  0  0  0  0  0  0  0  0  0  0  0
   -6.1553    0.6273   -5.3626 C   0  0  0  0  0  0  0  0  0  0  0  0
   -6.5483   -0.6578   -5.5289 O   0  0  0  0  0  0  0  0  0  0  0  0
   -6.0343   -1.6372   -4.6600 C   0  0  0  0  0  0  0  0  0  0  0  0
   -6.6796    1.5375   -6.3521 C   0  0  0  0  0  0  0  0  0  0  0  0
   -7.5112    0.9566   -7.2496 O   0  0  0  0  0  0  0  0  0  0  0  0
   -8.0486    1.7549   -8.2750 C   0  0  0  0  0  0  0  0  0  0  0  0
   -6.3050    2.8500   -6.3444 C   0  0  0  0  0  0  0  0  0  0  0  0
    8.5300   -6.7748   -0.3810 H   0  0  0  0  0  0  0  0  0  0  0  0
    6.4850   -8.7363   -0.1300 H   0  0  0  0  0  0  0  0  0  0  0  0
    4.1179   -9.0663    0.5252 H   0  0  0  0  0  0  0  0  0  0  0  0
    2.8047   -7.1892    1.4066 H   0  0  0  0  0  0  0  0  0  0  0  0
    3.8033   -4.9920    1.7563 H   0  0  0  0  0  0  0  0  0  0  0  0
    8.9666   -2.2946    1.0196 H   0  0  0  0  0  0  0  0  0  0  0  0
    9.6625    0.0416    1.3615 H   0  0  0  0  0  0  0  0  0  0  0  0
    8.1628    1.6498    2.4623 H   0  0  0  0  0  0  0  0  0  0  0  0
    5.9175    0.9635    3.1935 H   0  0  0  0  0  0  0  0  0  0  0  0
    3.1091   -3.5662    4.5322 H   0  0  0  0  0  0  0  0  0  0  0  0
    0.8578   -4.1607    5.3072 H   0  0  0  0  0  0  0  0  0  0  0  0
   -1.0615   -2.7000    4.8240 H   0  0  0  0  0  0  0  0  0  0  0  0
   -0.7659   -0.6521    3.5019 H   0  0  0  0  0  0  0  0  0  0  0  0
    3.1732    2.9129    2.3382 H   0  0  0  0  0  0  0  0  0  0  0  0
    3.2220    5.2209    1.5102 H   0  0  0  0  0  0  0  0  0  0  0  0
    1.4024    6.0836    0.0978 H   0  0  0  0  0  0  0  0  0  0  0  0
   -0.5156    4.6755   -0.4653 H   0  0  0  0  0  0  0  0  0  0  0  0
   -2.8612    0.1545    1.5277 H   0  0  0  0  0  0  0  0  0  0  0  0
   -4.9211   -2.2876    3.1603 H   0  0  0  0  0  0  0  0  0  0  0  0
   -3.4685   -1.9259    2.1881 H   0  0  0  0  0  0  0  0  0  0  0  0
   -4.1138   -0.7083    3.3232 H   0  0  0  0  0  0  0  0  0  0  0  0
   -8.1947    1.1719   -0.9599 H   0  0  0  0  0  0  0  0  0  0  0  0
   -8.8931   -0.4510   -0.7294 H   0  0  0  0  0  0  0  0  0  0  0  0
   -7.7546   -0.1565   -2.0665 H   0  0  0  0  0  0  0  0  0  0  0  0
   -6.0923    1.4777   -1.9804 H   0  0  0  0  0  0  0  0  0  0  0  0
   -5.0590    5.4357   -5.8516 H   0  0  0  0  0  0  0  0  0  0  0  0
   -4.9088    0.4009   -3.6439 H   0  0  0  0  0  0  0  0  0  0  0  0
   -6.4654   -2.5796   -4.9929 H   0  0  0  0  0  0  0  0  0  0  0  0
   -4.9430   -1.6949   -4.7195 H   0  0  0  0  0  0  0  0  0  0  0  0
   -6.3272   -1.4532   -3.6207 H   0  0  0  0  0  0  0  0  0  0  0  0
   -8.6532    2.5735   -7.8713 H   0  0  0  0  0  0  0  0  0  0  0  0
   -7.2625    2.1668   -8.9162 H   0  0  0  0  0  0  0  0  0  0  0  0
   -8.6825    1.0924   -8.8615 H   0  0  0  0  0  0  0  0  0  0  0  0
   -6.6423    3.5433   -7.0970 H   0  0  0  0  0  0  0  0  0  0  0  0
  1  2  2  0  0  0  0
  2  3  1  0  0  0  0
  3  4  2  0  0  0  0
  4  5  1  0  0  0  0
  5  6  2  0  0  0  0
  6  7  1  0  0  0  0
  7  8  2  0  0  0  0
  8  9  1  0  0  0  0
  9 10  2  0  0  0  0
  8 11  1  0  0  0  0
 11 12  2  0  0  0  0
 12 13  1  0  0  0  0
 13 14  2  0  0  0  0
 14 15  1  0  0  0  0
 15 16  2  0  0  0  0
 16 17  1  0  0  0  0
 17 18  2  0  0  0  0
 18 19  1  0  0  0  0
 19 20  2  0  0  0  0
 18 21  1  0  0  0  0
 21 22  2  0  0  0  0
 22 23  1  0  0  0  0
 23 24  2  0  0  0  0
 24 25  1  0  0  0  0
 25 26  2  0  0  0  0
 26 27  1  0  0  0  0
 27 28  2  0  0  0  0
 28 29  1  0  0  0  0
 29 30  2  0  0  0  0
 28 31  1  0  0  0  0
 31 32  2  0  0  0  0
 32 33  1  0  0  0  0
 33 34  2  0  0  0  0
 34 35  1  0  0  0  0
 35 36  2  0  0  0  0
 36 37  1  0  0  0  0
 37 38  2  0  0  0  0
 38 39  1  0  0  0  0
 39 40  2  0  0  0  0
 38 41  1  0  0  0  0
 41 42  1  0  0  0  0
 42 43  1  0  0  0  0
 43 44  2  0  0  0  0
 44 45  1  0  0  0  0
 45 46  1  0  0  0  0
 46 47  2  0  0  0  0
 47 48  1  0  0  0  0
 48 49  1  0  0  0  0
 47 50  1  0  0  0  0
 50 51  1  0  0  0  0
 51 52  1  0  0  0  0
 50 53  2  0  0  0  0
 43 54  1  0  0  0  0
 54 55  1  0  0  0  0
 55 56  1  0  0  0  0
 56 57  2  0  0  0  0
 57 58  1  0  0  0  0
 58 59  1  0  0  0  0
 59 60  2  0  0  0  0
 60 61  1  0  0  0  0
 61 62  1  0  0  0  0
 60 63  1  0  0  0  0
 63 64  1  0  0  0  0
 64 65  1  0  0  0  0
 63 66  2  0  0  0  0
  9  1  1  0  0  0  0
 19 11  1  0  0  0  0
 29 21  1  0  0  0  0
 39 31  1  0  0  0  0
 45 41  2  0  0  0  0
 58 54  2  0  0  0  0
  7  2  1  0  0  0  0
 17 12  1  0  0  0  0
 27 22  1  0  0  0  0
 37 32  1  0  0  0  0
 53 44  1  0  0  0  0
 66 57  1  0  0  0  0
  1 67  1  0  0  0  0
  3 68  1  0  0  0  0
  4 69  1  0  0  0  0
  5 70  1  0  0  0  0
  6 71  1  0  0  0  0
 13 72  1  0  0  0  0
 14 73  1  0  0  0  0
 15 74  1  0  0  0  0
 16 75  1  0  0  0  0
 23 76  1  0  0  0  0
 24 77  1  0  0  0  0
 25 78  1  0  0  0  0
 26 79  1  0  0  0  0
 33 80  1  0  0  0  0
 34 81  1  0  0  0  0
 35 82  1  0  0  0  0
 36 83  1  0  0  0  0
 46 84  1  0  0  0  0
 49 85  1  0  0  0  0
 49 86  1  0  0  0  0
 49 87  1  0  0  0  0
 52 88  1  0  0  0  0
 52 89  1  0  0  0  0
 52 90  1  0  0  0  0
 53 91  1  0  0  0  0
 56 92  1  0  0  0  0
 59 93  1  0  0  0  0
 62 94  1  0  0  0  0
 62 95  1  0  0  0  0
 62 96  1  0  0  0  0
 65 97  1  0  0  0  0
 65 98  1  0  0  0  0
 65 99  1  0  0  0  0
 66100  1  0  0  0  0
M  END
