98

C         13.14610        1.98360       -2.86310
C         12.17390        2.39860       -1.93440
N         12.26630        3.04030       -0.78330
O         11.02050        3.16480       -0.32970
N         10.11050        2.62930       -1.13780
C         10.77380        2.13310       -2.16300
C         10.32580        1.44340       -3.32520
C         11.32480        1.06040       -4.19760
C         12.69230        1.32430       -3.97030
C          8.91380        1.22310       -3.49570
C          8.34520        0.49160       -4.47510
C          6.93240        0.30020       -4.63410
C          5.95430        0.90610       -3.79480
N          6.06830        1.74210       -2.78200
O          4.82980        2.02400       -2.38450
N          3.90050        1.39860       -3.09900
C          4.54230        0.67690       -3.99660
C          4.06340       -0.16200       -5.04150
C          5.04570       -0.69070       -5.85600
C          6.41710       -0.48290       -5.65210
C          2.65770       -0.37600       -5.30940
C          1.65500       -0.38950       -4.41670
C          1.79680       -0.39110       -2.97800
C          0.90900        0.36180       -2.17050
N         -0.07610        1.17360       -2.49970
O         -0.52970        1.68580       -1.36030
N          0.12260        1.23950       -0.29010
C          1.03620        0.39860       -0.73540
C          2.03250       -0.36220       -0.06320
C          2.87380       -1.07870       -0.89420
C          2.75410       -1.10590       -2.29140
C          2.24960       -0.33330        1.36320
C          1.34430       -0.17420        2.35320
C         -0.07520       -0.21660        2.26150
S         -0.89720       -1.09440        1.02910
C         -2.46280       -0.68880        1.64720
C         -2.35060        0.12210        2.78690
C         -0.99230        0.36480        3.14640
C         -0.68850        1.17220        4.26160
C         -1.69610        1.73630        4.99390
O         -1.53420        2.51950        6.08770
C         -0.22510        2.80110        6.51730
C         -3.06580        1.53940        4.60190
O         -3.96380        2.19410        5.37730
C         -5.32930        2.09080        5.06030
C         -3.37470        0.75420        3.52360
C         -3.60350       -1.16700        0.93770
C         -3.47720       -1.51930       -0.43760
N         -2.43660       -1.48530       -1.24360
O         -2.87370       -1.88530       -2.43790
N         -4.17370       -2.18300       -2.44050
C         -4.60540       -1.96840       -1.21330
C         -5.89320       -2.12810       -0.63520
C         -5.96900       -1.78590        0.70430
C         -4.88040       -1.33470        1.45720
C         -6.99410       -2.52130       -1.47810
C         -8.17770       -3.07250       -1.14750
C         -8.60990       -3.63100        0.11230
C         -9.99450       -3.62070        0.43440
N        -11.02200       -3.12440       -0.22510
O        -12.09580       -3.36460        0.52210
N        -11.80900       -4.00250        1.65750
C        -10.50340       -4.19210        1.65940
C         -9.63100       -4.82250        2.58790
C         -8.30220       -4.84850        2.21310
C         -7.80760       -4.28000        1.02850
C        -10.07940       -5.40760        3.83220
C        -11.33960       -5.42000        4.25890
H         14.18890        2.18790       -2.68920
H         11.06240        0.54170       -5.10670
H         13.40070        0.98730       -4.71300
H          8.28310        1.69400       -2.75500
H          8.95670       -0.00920       -5.21460
H          4.74470       -1.31620       -6.68440
H          7.10670       -0.96050       -6.33360
H          2.41750       -0.50870       -6.35710
H          0.63390       -0.40980       -4.77360
H          3.65960       -1.66810       -0.44250
H          3.44370       -1.72250       -2.85080
H          3.28880       -0.43380        1.65250
H          1.72900       -0.03610        3.35690
H          0.34500        1.34350        4.51090
H          0.34410        3.33250        5.74780
H         -0.33370        3.43990        7.39190
H          0.30990        1.88810        6.79930
H         -5.84890        2.69710        5.80020
H         -5.54170        2.48010        4.05930
H         -5.68100        1.05590        5.12960
H         -4.39670        0.64670        3.20650
H         -6.92540       -1.85260        1.20050
H         -5.04820       -1.14020        2.50380
H         -6.82530       -2.29690       -2.52410
H         -8.93330       -3.13370       -1.92070
H         -7.59380       -5.33530        2.86870
H         -6.75150       -4.37040        0.82300
H         -9.29540       -5.85650        4.42990
H        -12.13110       -4.97900        3.67840
H        -11.60640       -5.87170        5.19890
