
  xtb     03042215563D
 energy: -373.700261542673 gnorm: 0.000184487298 xtb: 6.4.1 (unknown)
215235  0     0  0            999 V2000
    5.3501    8.4384   11.5978 C   0  0  0  0  0  0  0  0  0  0  0  0
    5.9710    8.9634   10.5219 C   0  0  0  0  0  0  0  0  0  0  0  0
    5.4538    8.4730    9.2863 C   0  0  0  0  0  0  0  0  0  0  0  0
    5.8402    8.8295    7.9835 C   0  0  0  0  0  0  0  0  0  0  0  0
    6.9880    9.7057    7.7226 C   0  0  0  0  0  0  0  0  0  0  0  0
    8.2181    9.4611    8.3268 C   0  0  0  0  0  0  0  0  0  0  0  0
    9.3227   10.2416    8.0457 C   0  0  0  0  0  0  0  0  0  0  0  0
    9.2397   11.2932    7.1402 C   0  0  0  0  0  0  0  0  0  0  0  0
   10.5633   12.3683    6.6942 S   0  0  0  0  0  0  0  0  0  0  0  0
   12.0596   11.5090    7.2922 C   0  0  0  0  0  0  0  0  0  0  0  0
   12.3711   10.2623    6.4860 C   0  0  0  0  0  0  0  0  0  0  0  0
    7.9976   11.5340    6.5506 C   0  0  0  0  0  0  0  0  0  0  0  0
    7.8752   12.5530    5.6748 F   0  0  0  0  0  0  0  0  0  0  0  0
    6.8885   10.7668    6.8251 C   0  0  0  0  0  0  0  0  0  0  0  0
    5.1117    8.2678    6.9467 C   0  0  0  0  0  0  0  0  0  0  0  0
    4.0633    7.3399    7.1555 C   0  0  0  0  0  0  0  0  0  0  0  0
    3.6830    6.9703    8.4575 C   0  0  0  0  0  0  0  0  0  0  0  0
    2.6023    5.9991    8.6576 C   0  0  0  0  0  0  0  0  0  0  0  0
    1.3956    6.1259    7.9721 C   0  0  0  0  0  0  0  0  0  0  0  0
    0.4140    5.1591    8.0598 C   0  0  0  0  0  0  0  0  0  0  0  0
    0.6005    4.0235    8.8409 C   0  0  0  0  0  0  0  0  0  0  0  0
   -0.5317    2.6814    8.9698 S   0  0  0  0  0  0  0  0  0  0  0  0
   -1.6376    2.8890    7.5286 C   0  0  0  0  0  0  0  0  0  0  0  0
   -2.8669    3.7221    7.8384 C   0  0  0  0  0  0  0  0  0  0  0  0
    1.7863    3.9420    9.5747 C   0  0  0  0  0  0  0  0  0  0  0  0
    2.7746    4.8969    9.4929 C   0  0  0  0  0  0  0  0  0  0  0  0
    1.9916    2.8730   10.3706 F   0  0  0  0  0  0  0  0  0  0  0  0
    4.3960    7.5543    9.4945 C   0  0  0  0  0  0  0  0  0  0  0  0
    4.0981    7.3136   11.1970 S   0  0  0  0  0  0  0  0  0  0  0  0
    3.5508    6.8449    5.9361 C   0  0  0  0  0  0  0  0  0  0  0  0
    4.1312    7.3778    4.8177 C   0  0  0  0  0  0  0  0  0  0  0  0
    5.3899    8.5259    5.2396 S   0  0  0  0  0  0  0  0  0  0  0  0
    3.7551    7.0440    3.4903 C   0  0  0  0  0  0  0  0  0  0  0  0
    2.4995    5.8636    3.3081 S   0  0  0  0  0  0  0  0  0  0  0  0
    2.5676    5.9157    1.5780 C   0  0  0  0  0  0  0  0  0  0  0  0
    3.5195    6.8463    1.1522 C   0  0  0  0  0  0  0  0  0  0  0  0
    4.1982    7.4814    2.2401 C   0  0  0  0  0  0  0  0  0  0  0  0
    5.1978    8.4415    1.9748 C   0  0  0  0  0  0  0  0  0  0  0  0
    5.5149    8.7673    0.6857 C   0  0  0  0  0  0  0  0  0  0  0  0
    6.4539    9.6666    0.3135 O   0  0  0  0  0  0  0  0  0  0  0  0
    7.1703   10.3401    1.3216 C   0  0  0  0  0  0  0  0  0  0  0  0
    4.8184    8.1431   -0.4108 C   0  0  0  0  0  0  0  0  0  0  0  0
    5.2151    8.5602   -1.6370 O   0  0  0  0  0  0  0  0  0  0  0  0
    4.5971    7.9995   -2.7691 C   0  0  0  0  0  0  0  0  0  0  0  0
    3.8442    7.2149   -0.1711 C   0  0  0  0  0  0  0  0  0  0  0  0
    1.7299    5.0101    0.8751 C   0  0  0  0  0  0  0  0  0  0  0  0
    1.7355    4.6025   -0.4300 C   0  0  0  0  0  0  0  0  0  0  0  0
    0.7927    3.5855   -0.7200 C   0  0  0  0  0  0  0  0  0  0  0  0
    0.6182    2.9002   -1.9367 C   0  0  0  0  0  0  0  0  0  0  0  0
    1.3247    3.3504   -3.1409 C   0  0  0  0  0  0  0  0  0  0  0  0
    1.2953    4.6993   -3.4986 C   0  0  0  0  0  0  0  0  0  0  0  0
    1.9838    5.1505   -4.6031 C   0  0  0  0  0  0  0  0  0  0  0  0
    2.7227    4.2781   -5.3993 C   0  0  0  0  0  0  0  0  0  0  0  0
    3.5504    4.9628   -6.8069 S   0  0  0  0  0  0  0  0  0  0  0  0
    5.1944    4.1578   -6.7627 C   0  0  0  0  0  0  0  0  0  0  0  0
    5.9288    4.4506   -5.4696 C   0  0  0  0  0  0  0  0  0  0  0  0
    2.7084    2.9295   -5.0569 C   0  0  0  0  0  0  0  0  0  0  0  0
    3.3719    2.0229   -5.8051 F   0  0  0  0  0  0  0  0  0  0  0  0
    2.0351    2.4654   -3.9441 C   0  0  0  0  0  0  0  0  0  0  0  0
   -0.2422    1.8122   -1.9200 C   0  0  0  0  0  0  0  0  0  0  0  0
   -0.9698    1.4283   -0.7651 C   0  0  0  0  0  0  0  0  0  0  0  0
   -0.8224    2.1333    0.4414 C   0  0  0  0  0  0  0  0  0  0  0  0
   -1.4998    1.7065    1.6722 C   0  0  0  0  0  0  0  0  0  0  0  0
   -1.4153    0.3831    2.1038 C   0  0  0  0  0  0  0  0  0  0  0  0
   -2.0417   -0.0204    3.2641 C   0  0  0  0  0  0  0  0  0  0  0  0
   -2.7662    0.8787    4.0399 C   0  0  0  0  0  0  0  0  0  0  0  0
   -3.5218    0.2886    5.5335 S   0  0  0  0  0  0  0  0  0  0  0  0
   -5.2493    0.8615    5.3341 C   0  0  0  0  0  0  0  0  0  0  0  0
   -5.9070    0.2466    4.1151 C   0  0  0  0  0  0  0  0  0  0  0  0
   -2.8093    2.2035    3.6201 C   0  0  0  0  0  0  0  0  0  0  0  0
   -2.2009    2.6197    2.4533 C   0  0  0  0  0  0  0  0  0  0  0  0
   -3.4596    3.1316    4.3570 F   0  0  0  0  0  0  0  0  0  0  0  0
    0.0571    3.2008    0.4278 C   0  0  0  0  0  0  0  0  0  0  0  0
    0.5046    4.1583    1.8104 S   0  0  0  0  0  0  0  0  0  0  0  0
   -1.7879    0.3017   -1.0041 C   0  0  0  0  0  0  0  0  0  0  0  0
   -1.6743   -0.2043   -2.2676 C   0  0  0  0  0  0  0  0  0  0  0  0
   -0.5823    0.7406   -3.2568 S   0  0  0  0  0  0  0  0  0  0  0  0
   -2.2648   -1.4233   -2.7171 C   0  0  0  0  0  0  0  0  0  0  0  0
   -3.1881   -2.1558   -2.0271 C   0  0  0  0  0  0  0  0  0  0  0  0
   -3.4586   -3.4189   -2.6001 C   0  0  0  0  0  0  0  0  0  0  0  0
   -4.2804   -4.4367   -2.0805 C   0  0  0  0  0  0  0  0  0  0  0  0
   -4.9507   -4.2676   -0.7857 C   0  0  0  0  0  0  0  0  0  0  0  0
   -4.2375   -3.8273    0.3305 C   0  0  0  0  0  0  0  0  0  0  0  0
   -4.8683   -3.6353    1.5390 C   0  0  0  0  0  0  0  0  0  0  0  0
   -6.2349   -3.8724    1.6915 C   0  0  0  0  0  0  0  0  0  0  0  0
   -6.9296   -3.5083    3.2728 S   0  0  0  0  0  0  0  0  0  0  0  0
   -8.3377   -4.6748    3.4400 C   0  0  0  0  0  0  0  0  0  0  0  0
   -8.6658   -4.8324    4.9116 C   0  0  0  0  0  0  0  0  0  0  0  0
   -6.9311   -4.3231    0.5744 C   0  0  0  0  0  0  0  0  0  0  0  0
   -8.2625   -4.5603    0.6327 F   0  0  0  0  0  0  0  0  0  0  0  0
   -6.3076   -4.5305   -0.6402 C   0  0  0  0  0  0  0  0  0  0  0  0
   -4.3708   -5.5970   -2.8274 C   0  0  0  0  0  0  0  0  0  0  0  0
   -3.6504   -5.8000   -4.0316 C   0  0  0  0  0  0  0  0  0  0  0  0
   -2.8039   -4.7943   -4.5320 C   0  0  0  0  0  0  0  0  0  0  0  0
   -1.9924   -5.0303   -5.7314 C   0  0  0  0  0  0  0  0  0  0  0  0
   -1.2000   -6.1743   -5.8332 C   0  0  0  0  0  0  0  0  0  0  0  0
   -0.4673   -6.4226   -6.9714 C   0  0  0  0  0  0  0  0  0  0  0  0
   -0.4877   -5.5438   -8.0551 C   0  0  0  0  0  0  0  0  0  0  0  0
    0.4942   -5.9908   -9.4514 S   0  0  0  0  0  0  0  0  0  0  0  0
   -0.3705   -5.2261  -10.8812 C   0  0  0  0  0  0  0  0  0  0  0  0
    0.0268   -5.9662  -12.1431 C   0  0  0  0  0  0  0  0  0  0  0  0
   -1.2425   -4.3825   -7.9199 C   0  0  0  0  0  0  0  0  0  0  0  0
   -1.9901   -4.1267   -6.7871 C   0  0  0  0  0  0  0  0  0  0  0  0
   -1.2759   -3.4562   -8.9043 F   0  0  0  0  0  0  0  0  0  0  0  0
   -2.7448   -3.6143   -3.8084 C   0  0  0  0  0  0  0  0  0  0  0  0
   -1.7329   -2.2390   -4.1733 S   0  0  0  0  0  0  0  0  0  0  0  0
   -3.8860   -7.0800   -4.5765 C   0  0  0  0  0  0  0  0  0  0  0  0
   -4.7111   -7.8754   -3.8238 C   0  0  0  0  0  0  0  0  0  0  0  0
   -5.2821   -7.0227   -2.3960 S   0  0  0  0  0  0  0  0  0  0  0  0
   -5.0185   -9.2275   -4.1050 C   0  0  0  0  0  0  0  0  0  0  0  0
   -4.1958   -9.9774   -5.4406 S   0  0  0  0  0  0  0  0  0  0  0  0
   -4.9001  -11.5395   -5.1471 C   0  0  0  0  0  0  0  0  0  0  0  0
   -5.7635  -11.4646   -4.0407 C   0  0  0  0  0  0  0  0  0  0  0  0
   -5.8335  -10.1604   -3.4616 C   0  0  0  0  0  0  0  0  0  0  0  0
   -6.6749   -9.9256   -2.3544 C   0  0  0  0  0  0  0  0  0  0  0  0
   -7.4067  -10.9454   -1.8150 C   0  0  0  0  0  0  0  0  0  0  0  0
   -8.2487  -10.8333   -0.7608 O   0  0  0  0  0  0  0  0  0  0  0  0
   -8.4003   -9.5692   -0.1619 C   0  0  0  0  0  0  0  0  0  0  0  0
   -7.3059  -12.2699   -2.3664 C   0  0  0  0  0  0  0  0  0  0  0  0
   -8.0545  -13.2015   -1.7257 O   0  0  0  0  0  0  0  0  0  0  0  0
   -8.0252  -14.5245   -2.2011 C   0  0  0  0  0  0  0  0  0  0  0  0
   -6.5054  -12.5095   -3.4483 C   0  0  0  0  0  0  0  0  0  0  0  0
   -4.5923  -12.6290   -5.9989 C   0  0  0  0  0  0  0  0  0  0  0  0
   -5.5790  -14.0692   -6.0047 S   0  0  0  0  0  0  0  0  0  0  0  0
   -4.6597  -14.8069   -7.2374 C   0  0  0  0  0  0  0  0  0  0  0  0
   -3.6227  -14.0074   -7.6541 C   0  0  0  0  0  0  0  0  0  0  0  0
   -3.5733  -12.7572   -6.9562 C   0  0  0  0  0  0  0  0  0  0  0  0
   -2.5414  -11.8505   -7.2819 C   0  0  0  0  0  0  0  0  0  0  0  0
   -1.6336  -12.1516   -8.2591 C   0  0  0  0  0  0  0  0  0  0  0  0
   -0.6211  -11.3453   -8.6584 O   0  0  0  0  0  0  0  0  0  0  0  0
   -0.4940  -10.0767   -8.0639 C   0  0  0  0  0  0  0  0  0  0  0  0
   -1.6958  -13.4090   -8.9638 C   0  0  0  0  0  0  0  0  0  0  0  0
   -0.7272  -13.5708   -9.8988 O   0  0  0  0  0  0  0  0  0  0  0  0
   -0.7000  -14.7739  -10.6246 C   0  0  0  0  0  0  0  0  0  0  0  0
   -2.6677  -14.3126   -8.6560 C   0  0  0  0  0  0  0  0  0  0  0  0
    5.5441    8.6391   12.6334 H   0  0  0  0  0  0  0  0  0  0  0  0
    6.7567    9.6943   10.5845 H   0  0  0  0  0  0  0  0  0  0  0  0
    8.3194    8.6310    9.0097 H   0  0  0  0  0  0  0  0  0  0  0  0
   10.2538   10.0199    8.5414 H   0  0  0  0  0  0  0  0  0  0  0  0
   11.9434   11.3011    8.3551 H   0  0  0  0  0  0  0  0  0  0  0  0
   12.8448   12.2550    7.1703 H   0  0  0  0  0  0  0  0  0  0  0  0
   12.5068   10.5184    5.4380 H   0  0  0  0  0  0  0  0  0  0  0  0
   13.2867    9.8030    6.8538 H   0  0  0  0  0  0  0  0  0  0  0  0
   11.5641    9.5363    6.5590 H   0  0  0  0  0  0  0  0  0  0  0  0
    5.9526   11.0094    6.3476 H   0  0  0  0  0  0  0  0  0  0  0  0
    1.2154    7.0040    7.3703 H   0  0  0  0  0  0  0  0  0  0  0  0
   -0.4995    5.2942    7.5044 H   0  0  0  0  0  0  0  0  0  0  0  0
   -1.0478    3.3035    6.7123 H   0  0  0  0  0  0  0  0  0  0  0  0
   -1.9263    1.8702    7.2686 H   0  0  0  0  0  0  0  0  0  0  0  0
   -3.4741    3.8191    6.9409 H   0  0  0  0  0  0  0  0  0  0  0  0
   -3.4605    3.2406    8.6118 H   0  0  0  0  0  0  0  0  0  0  0  0
   -2.5981    4.7172    8.1859 H   0  0  0  0  0  0  0  0  0  0  0  0
    3.6861    4.7552   10.0515 H   0  0  0  0  0  0  0  0  0  0  0  0
    2.7842    6.0935    5.8792 H   0  0  0  0  0  0  0  0  0  0  0  0
    5.6995    8.9092    2.8042 H   0  0  0  0  0  0  0  0  0  0  0  0
    6.5072   10.9327    1.9591 H   0  0  0  0  0  0  0  0  0  0  0  0
    7.7391    9.6422    1.9441 H   0  0  0  0  0  0  0  0  0  0  0  0
    7.8575   11.0035    0.7999 H   0  0  0  0  0  0  0  0  0  0  0  0
    3.5240    8.2159   -2.7912 H   0  0  0  0  0  0  0  0  0  0  0  0
    4.7478    6.9155   -2.8155 H   0  0  0  0  0  0  0  0  0  0  0  0
    5.0758    8.4678   -3.6272 H   0  0  0  0  0  0  0  0  0  0  0  0
    3.3011    6.7689   -0.9846 H   0  0  0  0  0  0  0  0  0  0  0  0
    2.4412    4.9493   -1.1600 H   0  0  0  0  0  0  0  0  0  0  0  0
    0.7167    5.3927   -2.9070 H   0  0  0  0  0  0  0  0  0  0  0  0
    1.9636    6.1949   -4.8742 H   0  0  0  0  0  0  0  0  0  0  0  0
    5.0713    3.0903   -6.9299 H   0  0  0  0  0  0  0  0  0  0  0  0
    5.7119    4.5939   -7.6169 H   0  0  0  0  0  0  0  0  0  0  0  0
    6.0212    5.5243   -5.3178 H   0  0  0  0  0  0  0  0  0  0  0  0
    5.3996    4.0239   -4.6190 H   0  0  0  0  0  0  0  0  0  0  0  0
    6.9254    4.0155   -5.5068 H   0  0  0  0  0  0  0  0  0  0  0  0
    2.0808    1.4128   -3.7132 H   0  0  0  0  0  0  0  0  0  0  0  0
   -0.8384   -0.3275    1.5319 H   0  0  0  0  0  0  0  0  0  0  0  0
   -1.9769   -1.0455    3.5945 H   0  0  0  0  0  0  0  0  0  0  0  0
   -5.2540    1.9489    5.2960 H   0  0  0  0  0  0  0  0  0  0  0  0
   -5.7360    0.5354    6.2527 H   0  0  0  0  0  0  0  0  0  0  0  0
   -5.3989    0.5572    3.2032 H   0  0  0  0  0  0  0  0  0  0  0  0
   -5.8849   -0.8399    4.1704 H   0  0  0  0  0  0  0  0  0  0  0  0
   -6.9446    0.5690    4.0573 H   0  0  0  0  0  0  0  0  0  0  0  0
   -2.2811    3.6557    2.1631 H   0  0  0  0  0  0  0  0  0  0  0  0
   -2.4251   -0.1277   -0.2540 H   0  0  0  0  0  0  0  0  0  0  0  0
   -3.6682   -1.8019   -1.1340 H   0  0  0  0  0  0  0  0  0  0  0  0
   -3.1740   -3.6609    0.2514 H   0  0  0  0  0  0  0  0  0  0  0  0
   -4.3119   -3.2938    2.3983 H   0  0  0  0  0  0  0  0  0  0  0  0
   -8.0255   -5.6213    3.0012 H   0  0  0  0  0  0  0  0  0  0  0  0
   -9.1857   -4.2725    2.8880 H   0  0  0  0  0  0  0  0  0  0  0  0
   -7.8078   -5.2209    5.4558 H   0  0  0  0  0  0  0  0  0  0  0  0
   -9.4981   -5.5228    5.0294 H   0  0  0  0  0  0  0  0  0  0  0  0
   -8.9436   -3.8742    5.3452 H   0  0  0  0  0  0  0  0  0  0  0  0
   -6.9033   -4.8641   -1.4754 H   0  0  0  0  0  0  0  0  0  0  0  0
   -1.1528   -6.8654   -5.0055 H   0  0  0  0  0  0  0  0  0  0  0  0
    0.1401   -7.3110   -7.0483 H   0  0  0  0  0  0  0  0  0  0  0  0
   -0.0865   -4.1762  -10.9340 H   0  0  0  0  0  0  0  0  0  0  0  0
   -1.4400   -5.3112  -10.6951 H   0  0  0  0  0  0  0  0  0  0  0  0
   -0.2539   -7.0150  -12.0766 H   0  0  0  0  0  0  0  0  0  0  0  0
    1.1017   -5.9062  -12.2981 H   0  0  0  0  0  0  0  0  0  0  0  0
   -0.4742   -5.5223  -13.0008 H   0  0  0  0  0  0  0  0  0  0  0  0
   -2.5741   -3.2204   -6.7481 H   0  0  0  0  0  0  0  0  0  0  0  0
   -3.4612   -7.4157   -5.5054 H   0  0  0  0  0  0  0  0  0  0  0  0
   -6.7319   -8.9305   -1.9496 H   0  0  0  0  0  0  0  0  0  0  0  0
   -7.4525   -9.2005    0.2436 H   0  0  0  0  0  0  0  0  0  0  0  0
   -8.7989   -8.8347   -0.8689 H   0  0  0  0  0  0  0  0  0  0  0  0
   -9.1113   -9.7126    0.6498 H   0  0  0  0  0  0  0  0  0  0  0  0
   -8.6981  -15.0835   -1.5531 H   0  0  0  0  0  0  0  0  0  0  0  0
   -7.0195  -14.9528   -2.1366 H   0  0  0  0  0  0  0  0  0  0  0  0
   -8.3784  -14.5880   -3.2355 H   0  0  0  0  0  0  0  0  0  0  0  0
   -6.4245  -13.5033   -3.8488 H   0  0  0  0  0  0  0  0  0  0  0  0
   -4.9276  -15.7840   -7.5856 H   0  0  0  0  0  0  0  0  0  0  0  0
   -2.4648  -10.9208   -6.7486 H   0  0  0  0  0  0  0  0  0  0  0  0
   -0.2798  -10.1554   -6.9928 H   0  0  0  0  0  0  0  0  0  0  0  0
    0.3446   -9.5996   -8.5690 H   0  0  0  0  0  0  0  0  0  0  0  0
   -1.3961   -9.4728   -8.2071 H   0  0  0  0  0  0  0  0  0  0  0  0
   -1.6187  -14.9145  -11.2038 H   0  0  0  0  0  0  0  0  0  0  0  0
    0.1461  -14.6890  -11.3042 H   0  0  0  0  0  0  0  0  0  0  0  0
   -0.5521  -15.6366   -9.9665 H   0  0  0  0  0  0  0  0  0  0  0  0
   -2.7415  -15.2659   -9.1531 H   0  0  0  0  0  0  0  0  0  0  0  0
  1  2  2  0  0  0  0
  2  3  1  0  0  0  0
  3  4  2  0  0  0  0
  4  5  1  0  0  0  0
  5  6  2  0  0  0  0
  6  7  1  0  0  0  0
  7  8  2  0  0  0  0
  8  9  1  0  0  0  0
  9 10  1  0  0  0  0
 10 11  1  0  0  0  0
  8 12  1  0  0  0  0
 12 13  1  0  0  0  0
 12 14  2  0  0  0  0
  4 15  1  0  0  0  0
 15 16  2  0  0  0  0
 16 17  1  0  0  0  0
 17 18  1  0  0  0  0
 18 19  2  0  0  0  0
 19 20  1  0  0  0  0
 20 21  2  0  0  0  0
 21 22  1  0  0  0  0
 22 23  1  0  0  0  0
 23 24  1  0  0  0  0
 21 25  1  0  0  0  0
 25 26  2  0  0  0  0
 25 27  1  0  0  0  0
 17 28  2  0  0  0  0
 28 29  1  0  0  0  0
 16 30  1  0  0  0  0
 30 31  2  0  0  0  0
 31 32  1  0  0  0  0
 31 33  1  0  0  0  0
 33 34  1  0  0  0  0
 34 35  1  0  0  0  0
 35 36  2  0  0  0  0
 36 37  1  0  0  0  0
 37 38  1  0  0  0  0
 38 39  2  0  0  0  0
 39 40  1  0  0  0  0
 40 41  1  0  0  0  0
 39 42  1  0  0  0  0
 42 43  1  0  0  0  0
 43 44  1  0  0  0  0
 42 45  2  0  0  0  0
 35 46  1  0  0  0  0
 46 47  2  0  0  0  0
 47 48  1  0  0  0  0
 48 49  2  0  0  0  0
 49 50  1  0  0  0  0
 50 51  2  0  0  0  0
 51 52  1  0  0  0  0
 52 53  2  0  0  0  0
 53 54  1  0  0  0  0
 54 55  1  0  0  0  0
 55 56  1  0  0  0  0
 53 57  1  0  0  0  0
 57 58  1  0  0  0  0
 57 59  2  0  0  0  0
 49 60  1  0  0  0  0
 60 61  2  0  0  0  0
 61 62  1  0  0  0  0
 62 63  1  0  0  0  0
 63 64  2  0  0  0  0
 64 65  1  0  0  0  0
 65 66  2  0  0  0  0
 66 67  1  0  0  0  0
 67 68  1  0  0  0  0
 68 69  1  0  0  0  0
 66 70  1  0  0  0  0
 70 71  2  0  0  0  0
 70 72  1  0  0  0  0
 62 73  2  0  0  0  0
 73 74  1  0  0  0  0
 61 75  1  0  0  0  0
 75 76  2  0  0  0  0
 76 77  1  0  0  0  0
 76 78  1  0  0  0  0
 78 79  2  0  0  0  0
 79 80  1  0  0  0  0
 80 81  2  0  0  0  0
 81 82  1  0  0  0  0
 82 83  2  0  0  0  0
 83 84  1  0  0  0  0
 84 85  2  0  0  0  0
 85 86  1  0  0  0  0
 86 87  1  0  0  0  0
 87 88  1  0  0  0  0
 85 89  1  0  0  0  0
 89 90  1  0  0  0  0
 89 91  2  0  0  0  0
 81 92  1  0  0  0  0
 92 93  2  0  0  0  0
 93 94  1  0  0  0  0
 94 95  1  0  0  0  0
 95 96  2  0  0  0  0
 96 97  1  0  0  0  0
 97 98  2  0  0  0  0
 98 99  1  0  0  0  0
 99100  1  0  0  0  0
100101  1  0  0  0  0
 98102  1  0  0  0  0
102103  2  0  0  0  0
102104  1  0  0  0  0
 94105  2  0  0  0  0
105106  1  0  0  0  0
 93107  1  0  0  0  0
107108  2  0  0  0  0
108109  1  0  0  0  0
108110  1  0  0  0  0
110111  1  0  0  0  0
111112  1  0  0  0  0
112113  2  0  0  0  0
113114  1  0  0  0  0
114115  1  0  0  0  0
115116  2  0  0  0  0
116117  1  0  0  0  0
117118  1  0  0  0  0
116119  1  0  0  0  0
119120  1  0  0  0  0
120121  1  0  0  0  0
119122  2  0  0  0  0
112123  1  0  0  0  0
123124  1  0  0  0  0
124125  1  0  0  0  0
125126  2  0  0  0  0
126127  1  0  0  0  0
127128  1  0  0  0  0
128129  2  0  0  0  0
129130  1  0  0  0  0
130131  1  0  0  0  0
129132  1  0  0  0  0
132133  1  0  0  0  0
133134  1  0  0  0  0
132135  2  0  0  0  0
 29  1  1  0  0  0  0
 37 33  2  0  0  0  0
 74 46  1  0  0  0  0
106 78  1  0  0  0  0
114110  2  0  0  0  0
127123  2  0  0  0  0
 28  3  1  0  0  0  0
 45 36  1  0  0  0  0
 73 48  1  0  0  0  0
105 80  1  0  0  0  0
122113  1  0  0  0  0
135126  1  0  0  0  0
 14  5  1  0  0  0  0
 32 15  1  0  0  0  0
 59 50  1  0  0  0  0
 77 60  1  0  0  0  0
 91 82  1  0  0  0  0
109 92  1  0  0  0  0
 26 18  1  0  0  0  0
 71 63  1  0  0  0  0
103 95  1  0  0  0  0
  1136  1  0  0  0  0
  2137  1  0  0  0  0
  6138  1  0  0  0  0
  7139  1  0  0  0  0
 10140  1  0  0  0  0
 10141  1  0  0  0  0
 11142  1  0  0  0  0
 11143  1  0  0  0  0
 11144  1  0  0  0  0
 14145  1  0  0  0  0
 19146  1  0  0  0  0
 20147  1  0  0  0  0
 23148  1  0  0  0  0
 23149  1  0  0  0  0
 24150  1  0  0  0  0
 24151  1  0  0  0  0
 24152  1  0  0  0  0
 26153  1  0  0  0  0
 30154  1  0  0  0  0
 38155  1  0  0  0  0
 41156  1  0  0  0  0
 41157  1  0  0  0  0
 41158  1  0  0  0  0
 44159  1  0  0  0  0
 44160  1  0  0  0  0
 44161  1  0  0  0  0
 45162  1  0  0  0  0
 47163  1  0  0  0  0
 51164  1  0  0  0  0
 52165  1  0  0  0  0
 55166  1  0  0  0  0
 55167  1  0  0  0  0
 56168  1  0  0  0  0
 56169  1  0  0  0  0
 56170  1  0  0  0  0
 59171  1  0  0  0  0
 64172  1  0  0  0  0
 65173  1  0  0  0  0
 68174  1  0  0  0  0
 68175  1  0  0  0  0
 69176  1  0  0  0  0
 69177  1  0  0  0  0
 69178  1  0  0  0  0
 71179  1  0  0  0  0
 75180  1  0  0  0  0
 79181  1  0  0  0  0
 83182  1  0  0  0  0
 84183  1  0  0  0  0
 87184  1  0  0  0  0
 87185  1  0  0  0  0
 88186  1  0  0  0  0
 88187  1  0  0  0  0
 88188  1  0  0  0  0
 91189  1  0  0  0  0
 96190  1  0  0  0  0
 97191  1  0  0  0  0
100192  1  0  0  0  0
100193  1  0  0  0  0
101194  1  0  0  0  0
101195  1  0  0  0  0
101196  1  0  0  0  0
103197  1  0  0  0  0
107198  1  0  0  0  0
115199  1  0  0  0  0
118200  1  0  0  0  0
118201  1  0  0  0  0
118202  1  0  0  0  0
121203  1  0  0  0  0
121204  1  0  0  0  0
121205  1  0  0  0  0
122206  1  0  0  0  0
125207  1  0  0  0  0
128208  1  0  0  0  0
131209  1  0  0  0  0
131210  1  0  0  0  0
131211  1  0  0  0  0
134212  1  0  0  0  0
134213  1  0  0  0  0
134214  1  0  0  0  0
135215  1  0  0  0  0
M  END
