
  xtb     03042204013D
 energy: -188.956421449548 gnorm: 0.000385993253 xtb: 6.4.1 (unknown)
116127  0     0  0            999 V2000
    9.6992   -3.8663    0.7677 C   0  0  0  0  0  0  0  0  0  0  0  0
    8.6551   -2.5390    1.0538 S   0  0  0  0  0  0  0  0  0  0  0  0
    7.2722   -3.4293    0.4531 C   0  0  0  0  0  0  0  0  0  0  0  0
    7.6656   -4.6877    0.0333 C   0  0  0  0  0  0  0  0  0  0  0  0
    9.0478   -4.9329    0.2318 C   0  0  0  0  0  0  0  0  0  0  0  0
    9.7009   -6.2350   -0.1144 C   0  0  0  0  0  0  0  0  0  0  0  0
    8.6562   -7.3393   -0.2166 C   0  0  0  0  0  0  0  0  0  0  0  0
    7.5495   -6.8966   -1.1683 C   0  0  0  0  0  0  0  0  0  0  0  0
    6.7031   -8.0009   -1.4084 O   0  0  0  0  0  0  0  0  0  0  0  0
    6.7675   -5.7238   -0.5636 C   0  0  0  0  0  0  0  0  0  0  0  0
    5.9711   -2.8382    0.4492 C   0  0  0  0  0  0  0  0  0  0  0  0
    4.5905   -3.7619   -0.0835 S   0  0  0  0  0  0  0  0  0  0  0  0
    3.4914   -2.4357    0.1743 C   0  0  0  0  0  0  0  0  0  0  0  0
    4.1883   -1.3317    0.6360 C   0  0  0  0  0  0  0  0  0  0  0  0
    5.5683   -1.5691    0.8252 C   0  0  0  0  0  0  0  0  0  0  0  0
    6.4830   -0.5325    1.4003 C   0  0  0  0  0  0  0  0  0  0  0  0
    5.7226    0.6645    1.9682 C   0  0  0  0  0  0  0  0  0  0  0  0
    4.6239    1.1198    1.0059 C   0  0  0  0  0  0  0  0  0  0  0  0
    5.1315    1.4988   -0.2517 O   0  0  0  0  0  0  0  0  0  0  0  0
    3.5723    0.0099    0.8840 C   0  0  0  0  0  0  0  0  0  0  0  0
    2.0909   -2.5909   -0.0721 C   0  0  0  0  0  0  0  0  0  0  0  0
    0.9847   -1.3000    0.3500 S   0  0  0  0  0  0  0  0  0  0  0  0
   -0.4041   -2.1981   -0.1985 C   0  0  0  0  0  0  0  0  0  0  0  0
   -0.0134   -3.4152   -0.6889 C   0  0  0  0  0  0  0  0  0  0  0  0
    1.3801   -3.6469   -0.6050 C   0  0  0  0  0  0  0  0  0  0  0  0
    1.8388   -4.9876   -1.0787 C   0  0  0  0  0  0  0  0  0  0  0  0
    0.9236   -6.0568   -0.4760 C   0  0  0  0  0  0  0  0  0  0  0  0
   -0.5657   -5.8544   -0.7997 C   0  0  0  0  0  0  0  0  0  0  0  0
   -1.2662   -6.0828    0.4056 O   0  0  0  0  0  0  0  0  0  0  0  0
   -0.8461   -4.4474   -1.3705 C   0  0  0  0  0  0  0  0  0  0  0  0
   -1.6874   -1.5540   -0.1040 C   0  0  0  0  0  0  0  0  0  0  0  0
   -1.8122    0.0971   -0.6505 S   0  0  0  0  0  0  0  0  0  0  0  0
   -3.4724    0.1945   -0.1249 C   0  0  0  0  0  0  0  0  0  0  0  0
   -3.8710   -0.9804    0.4689 C   0  0  0  0  0  0  0  0  0  0  0  0
   -2.8655   -1.9789    0.4582 C   0  0  0  0  0  0  0  0  0  0  0  0
   -3.1049   -3.3397    1.0357 C   0  0  0  0  0  0  0  0  0  0  0  0
   -4.1927   -3.2922    2.1037 C   0  0  0  0  0  0  0  0  0  0  0  0
   -5.4424   -2.6205    1.5257 C   0  0  0  0  0  0  0  0  0  0  0  0
   -6.5714   -2.7730    2.3542 O   0  0  0  0  0  0  0  0  0  0  0  0
   -5.1380   -1.1444    1.2543 C   0  0  0  0  0  0  0  0  0  0  0  0
   -4.1997    1.4090   -0.3292 C   0  0  0  0  0  0  0  0  0  0  0  0
   -3.4498    2.9315    0.0181 S   0  0  0  0  0  0  0  0  0  0  0  0
   -4.8561    3.8454   -0.4429 C   0  0  0  0  0  0  0  0  0  0  0  0
   -5.8668    2.9769   -0.8728 C   0  0  0  0  0  0  0  0  0  0  0  0
   -5.4812    1.6017   -0.8288 C   0  0  0  0  0  0  0  0  0  0  0  0
   -6.3538    0.6053   -1.3271 C   0  0  0  0  0  0  0  0  0  0  0  0
   -7.5949    0.9482   -1.7784 C   0  0  0  0  0  0  0  0  0  0  0  0
   -8.5254    0.0842   -2.2563 O   0  0  0  0  0  0  0  0  0  0  0  0
   -8.2304   -1.2899   -2.2276 C   0  0  0  0  0  0  0  0  0  0  0  0
   -8.0014    2.3301   -1.7909 C   0  0  0  0  0  0  0  0  0  0  0  0
   -9.2544    2.5372   -2.2708 O   0  0  0  0  0  0  0  0  0  0  0  0
   -9.7342    3.8571   -2.3290 C   0  0  0  0  0  0  0  0  0  0  0  0
   -7.1469    3.3090   -1.3701 C   0  0  0  0  0  0  0  0  0  0  0  0
   -4.8679    5.2584   -0.3049 C   0  0  0  0  0  0  0  0  0  0  0  0
   -6.3690    6.1303   -0.1423 S   0  0  0  0  0  0  0  0  0  0  0  0
   -5.5783    7.6330    0.0461 C   0  0  0  0  0  0  0  0  0  0  0  0
   -4.2120    7.5049   -0.0129 C   0  0  0  0  0  0  0  0  0  0  0  0
   -3.7933    6.1493   -0.2123 C   0  0  0  0  0  0  0  0  0  0  0  0
   -2.4120    5.8767   -0.3276 C   0  0  0  0  0  0  0  0  0  0  0  0
   -1.4978    6.8853   -0.2172 C   0  0  0  0  0  0  0  0  0  0  0  0
   -0.1532    6.7341   -0.3074 O   0  0  0  0  0  0  0  0  0  0  0  0
    0.3612    5.4412   -0.5146 C   0  0  0  0  0  0  0  0  0  0  0  0
   -1.9237    8.2458    0.0103 C   0  0  0  0  0  0  0  0  0  0  0  0
   -0.9047    9.1380    0.1037 O   0  0  0  0  0  0  0  0  0  0  0  0
   -1.2255   10.4905    0.3062 C   0  0  0  0  0  0  0  0  0  0  0  0
   -3.2504    8.5408    0.1003 C   0  0  0  0  0  0  0  0  0  0  0  0
   10.7376   -3.7810    1.0189 H   0  0  0  0  0  0  0  0  0  0  0  0
   10.4507   -6.4843    0.6387 H   0  0  0  0  0  0  0  0  0  0  0  0
   10.2197   -6.1328   -1.0730 H   0  0  0  0  0  0  0  0  0  0  0  0
    8.2186   -7.5448    0.7613 H   0  0  0  0  0  0  0  0  0  0  0  0
    9.1014   -8.2611   -0.5904 H   0  0  0  0  0  0  0  0  0  0  0  0
    8.0102   -6.5710   -2.1176 H   0  0  0  0  0  0  0  0  0  0  0  0
    5.9532   -7.7097   -1.9384 H   0  0  0  0  0  0  0  0  0  0  0  0
    6.0984   -6.1190    0.2093 H   0  0  0  0  0  0  0  0  0  0  0  0
    6.1400   -5.2723   -1.3389 H   0  0  0  0  0  0  0  0  0  0  0  0
    7.0782   -0.9801    2.2001 H   0  0  0  0  0  0  0  0  0  0  0  0
    7.1916   -0.1982    0.6344 H   0  0  0  0  0  0  0  0  0  0  0  0
    5.2554    0.3940    2.9162 H   0  0  0  0  0  0  0  0  0  0  0  0
    6.4211    1.4818    2.1498 H   0  0  0  0  0  0  0  0  0  0  0  0
    4.1433    2.0250    1.3921 H   0  0  0  0  0  0  0  0  0  0  0  0
    5.5188    0.7185   -0.6650 H   0  0  0  0  0  0  0  0  0  0  0  0
    2.9027    0.2673    0.0589 H   0  0  0  0  0  0  0  0  0  0  0  0
    2.9703   -0.0193    1.7964 H   0  0  0  0  0  0  0  0  0  0  0  0
    2.8634   -5.1989   -0.7852 H   0  0  0  0  0  0  0  0  0  0  0  0
    1.7852   -5.0248   -2.1715 H   0  0  0  0  0  0  0  0  0  0  0  0
    1.2442   -7.0452   -0.8042 H   0  0  0  0  0  0  0  0  0  0  0  0
    1.0113   -6.0204    0.6114 H   0  0  0  0  0  0  0  0  0  0  0  0
   -0.8921   -6.5921   -1.5513 H   0  0  0  0  0  0  0  0  0  0  0  0
   -2.2141   -6.0407    0.2399 H   0  0  0  0  0  0  0  0  0  0  0  0
   -0.5791   -4.4553   -2.4320 H   0  0  0  0  0  0  0  0  0  0  0  0
   -1.9073   -4.2120   -1.2984 H   0  0  0  0  0  0  0  0  0  0  0  0
   -3.4498   -4.0043    0.2352 H   0  0  0  0  0  0  0  0  0  0  0  0
   -2.1762   -3.7507    1.4356 H   0  0  0  0  0  0  0  0  0  0  0  0
   -3.8432   -2.7256    2.9706 H   0  0  0  0  0  0  0  0  0  0  0  0
   -4.4391   -4.3033    2.4327 H   0  0  0  0  0  0  0  0  0  0  0  0
   -5.7219   -3.1197    0.5901 H   0  0  0  0  0  0  0  0  0  0  0  0
   -6.3891   -2.3531    3.2030 H   0  0  0  0  0  0  0  0  0  0  0  0
   -5.9866   -0.6684    0.7636 H   0  0  0  0  0  0  0  0  0  0  0  0
   -5.0057   -0.6352    2.2182 H   0  0  0  0  0  0  0  0  0  0  0  0
   -5.9977   -0.4101   -1.3751 H   0  0  0  0  0  0  0  0  0  0  0  0
   -7.3773   -1.5323   -2.8703 H   0  0  0  0  0  0  0  0  0  0  0  0
   -9.1201   -1.7899   -2.6067 H   0  0  0  0  0  0  0  0  0  0  0  0
   -8.0261   -1.6354   -1.2084 H   0  0  0  0  0  0  0  0  0  0  0  0
  -10.7500    3.7834   -2.7135 H   0  0  0  0  0  0  0  0  0  0  0  0
   -9.7517    4.3226   -1.3381 H   0  0  0  0  0  0  0  0  0  0  0  0
   -9.1336    4.4739   -3.0058 H   0  0  0  0  0  0  0  0  0  0  0  0
   -7.4329    4.3441   -1.4251 H   0  0  0  0  0  0  0  0  0  0  0  0
   -6.1590    8.5225    0.1848 H   0  0  0  0  0  0  0  0  0  0  0  0
   -2.0888    4.8687   -0.5176 H   0  0  0  0  0  0  0  0  0  0  0  0
    0.0273    5.0236   -1.4700 H   0  0  0  0  0  0  0  0  0  0  0  0
    1.4438    5.5541   -0.5291 H   0  0  0  0  0  0  0  0  0  0  0  0
    0.0764    4.7604    0.2941 H   0  0  0  0  0  0  0  0  0  0  0  0
   -1.8263   10.8889   -0.5185 H   0  0  0  0  0  0  0  0  0  0  0  0
   -0.2733   11.0169    0.3461 H   0  0  0  0  0  0  0  0  0  0  0  0
   -1.7628   10.6397    1.2489 H   0  0  0  0  0  0  0  0  0  0  0  0
   -3.6043    9.5469    0.2553 H   0  0  0  0  0  0  0  0  0  0  0  0
  1  2  1  0  0  0  0
  2  3  1  0  0  0  0
  3  4  2  0  0  0  0
  4  5  1  0  0  0  0
  5  6  1  0  0  0  0
  6  7  1  0  0  0  0
  7  8  1  0  0  0  0
  8  9  1  0  0  0  0
  8 10  1  0  0  0  0
  3 11  1  0  0  0  0
 11 12  1  0  0  0  0
 12 13  1  0  0  0  0
 13 14  2  0  0  0  0
 14 15  1  0  0  0  0
 15 16  1  0  0  0  0
 16 17  1  0  0  0  0
 17 18  1  0  0  0  0
 18 19  1  0  0  0  0
 18 20  1  0  0  0  0
 13 21  1  0  0  0  0
 21 22  1  0  0  0  0
 22 23  1  0  0  0  0
 23 24  2  0  0  0  0
 24 25  1  0  0  0  0
 25 26  1  0  0  0  0
 26 27  1  0  0  0  0
 27 28  1  0  0  0  0
 28 29  1  0  0  0  0
 28 30  1  0  0  0  0
 23 31  1  0  0  0  0
 31 32  1  0  0  0  0
 32 33  1  0  0  0  0
 33 34  2  0  0  0  0
 34 35  1  0  0  0  0
 35 36  1  0  0  0  0
 36 37  1  0  0  0  0
 37 38  1  0  0  0  0
 38 39  1  0  0  0  0
 38 40  1  0  0  0  0
 33 41  1  0  0  0  0
 41 42  1  0  0  0  0
 42 43  1  0  0  0  0
 43 44  2  0  0  0  0
 44 45  1  0  0  0  0
 45 46  1  0  0  0  0
 46 47  2  0  0  0  0
 47 48  1  0  0  0  0
 48 49  1  0  0  0  0
 47 50  1  0  0  0  0
 50 51  1  0  0  0  0
 51 52  1  0  0  0  0
 50 53  2  0  0  0  0
 43 54  1  0  0  0  0
 54 55  1  0  0  0  0
 55 56  1  0  0  0  0
 56 57  2  0  0  0  0
 57 58  1  0  0  0  0
 58 59  1  0  0  0  0
 59 60  2  0  0  0  0
 60 61  1  0  0  0  0
 61 62  1  0  0  0  0
 60 63  1  0  0  0  0
 63 64  1  0  0  0  0
 64 65  1  0  0  0  0
 63 66  2  0  0  0  0
  5  1  2  0  0  0  0
 15 11  2  0  0  0  0
 25 21  2  0  0  0  0
 35 31  2  0  0  0  0
 45 41  2  0  0  0  0
 58 54  2  0  0  0  0
 10  4  1  0  0  0  0
 20 14  1  0  0  0  0
 30 24  1  0  0  0  0
 40 34  1  0  0  0  0
 53 44  1  0  0  0  0
 66 57  1  0  0  0  0
  1 67  1  0  0  0  0
  6 68  1  0  0  0  0
  6 69  1  0  0  0  0
  7 70  1  0  0  0  0
  7 71  1  0  0  0  0
  8 72  1  0  0  0  0
  9 73  1  0  0  0  0
 10 74  1  0  0  0  0
 10 75  1  0  0  0  0
 16 76  1  0  0  0  0
 16 77  1  0  0  0  0
 17 78  1  0  0  0  0
 17 79  1  0  0  0  0
 18 80  1  0  0  0  0
 19 81  1  0  0  0  0
 20 82  1  0  0  0  0
 20 83  1  0  0  0  0
 26 84  1  0  0  0  0
 26 85  1  0  0  0  0
 27 86  1  0  0  0  0
 27 87  1  0  0  0  0
 28 88  1  0  0  0  0
 29 89  1  0  0  0  0
 30 90  1  0  0  0  0
 30 91  1  0  0  0  0
 36 92  1  0  0  0  0
 36 93  1  0  0  0  0
 37 94  1  0  0  0  0
 37 95  1  0  0  0  0
 38 96  1  0  0  0  0
 39 97  1  0  0  0  0
 40 98  1  0  0  0  0
 40 99  1  0  0  0  0
 46100  1  0  0  0  0
 49101  1  0  0  0  0
 49102  1  0  0  0  0
 49103  1  0  0  0  0
 52104  1  0  0  0  0
 52105  1  0  0  0  0
 52106  1  0  0  0  0
 53107  1  0  0  0  0
 56108  1  0  0  0  0
 59109  1  0  0  0  0
 62110  1  0  0  0  0
 62111  1  0  0  0  0
 62112  1  0  0  0  0
 65113  1  0  0  0  0
 65114  1  0  0  0  0
 65115  1  0  0  0  0
 66116  1  0  0  0  0
M  END
