138

C          3.08930       -0.50650        4.43560
C          2.67060       -0.39820        3.14240
C          3.51200        0.48660        2.39270
C          4.59200        0.95010        3.17380
S          4.50270        0.40020        4.81630
N          5.57320        1.72330        2.74400
C          5.51610        2.06640        1.47940
C          4.46080        1.74260        0.60840
C          3.41500        0.97170        1.07460
C          2.17040        0.77630        0.26930
C          1.28670        2.01960        0.40550
C          4.65510        2.25990       -0.78720
C          5.70780        3.36250       -0.72160
S          6.76840        3.03570        0.74230
C          1.62600       -1.32290        2.69820
C          0.28330       -1.30260        3.00020
C         -0.32030       -2.59620        2.84980
C          0.52340       -3.48270        2.16340
S          2.13440       -2.84710        1.99190
N          0.16430       -4.68090        1.74280
C         -1.05210       -5.04740        2.06890
C         -1.86990       -4.38770        3.01800
C         -1.45920       -3.15490        3.48950
C         -1.89470       -2.45730        4.75740
C         -3.11530       -2.96650        5.51050
C         -3.04890       -5.22680        3.42340
C         -3.30260       -6.23700        2.30780
S         -1.70830       -6.53970        1.45970
C         -0.44590       -0.05910        3.13380
C         -1.64970        0.26850        2.54570
C         -2.00360        1.64660        2.75330
C         -0.98880        2.32520        3.46550
S          0.32140        1.29230        3.92900
N         -0.96920        3.60870        3.77040
C         -1.99880        4.30890        3.36080
C         -3.09300        3.77280        2.65970
C         -3.11940        2.42380        2.35520
C         -4.34140        1.85180        1.69430
C         -5.43600        1.59360        2.73390
C         -4.10180        4.81480        2.26600
C         -3.87600        6.02770        3.16380
S         -2.11030        6.02340        3.66430
C         -2.47970       -0.71400        1.83950
C         -2.32350       -1.30230        0.61520
C         -3.33850       -2.28840        0.33050
C         -4.23100       -2.41760        1.41280
S         -3.88940       -1.31660        2.69400
N         -5.24310       -3.26150        1.50770
C         -5.42020       -4.04630        0.47110
C         -4.64590       -4.00010       -0.70000
C         -3.59110       -3.10900       -0.79570
C         -2.84680       -3.00600       -2.09470
C         -3.46720       -1.91460       -2.97070
C         -5.05140       -5.02620       -1.71880
C         -6.43400       -5.55140       -1.33540
S         -6.68130       -5.25440        0.45730
C         -1.23500       -1.00190       -0.31080
S          0.06600       -2.12500       -0.50130
C          0.75670       -1.23370       -1.81650
C         -0.00610       -0.10380       -2.09880
C         -1.12890        0.03500       -1.21980
C         -1.99320        1.15250       -1.35420
C         -1.76730        2.07200       -2.33450
O         -2.49820        3.19450       -2.55440
C         -3.52500        3.50110       -1.64860
C         -0.68030        1.89230       -3.26690
O         -0.61110        2.85010       -4.22570
C          0.41070        2.76010       -5.18580
C          0.17130        0.83410       -3.14220
C          1.98820       -1.68820       -2.37520
C          2.94840       -0.97390       -3.03870
C          4.06640       -1.75200       -3.42010
C          3.93080       -3.09690       -3.01350
S          2.44000       -3.37720       -2.17740
N          4.81570       -4.05140       -3.23560
C          5.89750       -3.68610       -3.88210
C          6.16040       -2.38320       -4.35470
C          5.23350       -1.38850       -4.12710
C          5.39630        0.00810       -4.65420
C          4.68440        0.15630       -6.00080
C          7.44250       -2.27900       -5.12620
C          8.29530       -3.48960       -4.75680
S          7.15540       -4.83800       -4.25350
H          2.64330       -1.11650        5.19720
H          2.41790        0.60910       -0.77820
H          1.62670       -0.09050        0.64160
H          1.77970        2.89650       -0.00760
H          1.07710        2.21840        1.45320
H          0.34500        1.87490       -0.11680
H          3.73190        2.64490       -1.22060
H          5.00790        1.43210       -1.41270
H          5.25170        4.34140       -0.56870
H          6.34560        3.39950       -1.60160
H         -1.02990       -2.53450        5.42860
H         -2.02290       -1.39240        4.55710
H         -4.01970       -2.88440        4.91480
H         -2.98610       -3.99610        5.82830
H         -3.24820       -2.35560        6.40130
H         -3.94490       -4.62740        3.57300
H         -2.81960       -5.75630        4.35260
H         -3.99660       -5.84440        1.56550
H         -3.68060       -7.18720        2.67660
H         -4.09790        0.91810        1.19110
H         -4.71800        2.55380        0.94710
H         -5.06630        0.94370        3.52210
H         -6.29090        1.11390        2.26400
H         -5.76750        2.52230        3.19130
H         -5.12900        4.46600        2.36420
H         -3.93630        5.08790        1.21790
H         -4.46560        5.96310        4.07900
H         -4.08890        6.97110        2.66740
H         -2.89050       -3.96270       -2.61530
H         -1.80020       -2.77540       -1.92760
H         -3.39960       -0.94730       -2.47870
H         -2.93870       -1.85340       -3.91870
H         -4.51600       -2.12720       -3.16960
H         -5.08260       -4.61350       -2.72730
H         -4.31870       -5.84010       -1.70590
H         -6.54840       -6.61700       -1.51920
H         -7.22730       -5.01320       -1.85550
H         -2.81210        1.25060       -0.66170
H         -4.31860        2.74590       -1.66730
H         -3.13500        3.59300       -0.62880
H         -3.93120        4.45770       -1.97380
H          1.40250        2.81530       -4.72390
H          0.27290        3.61590       -5.84410
H          0.33480        1.83720       -5.77040
H          0.96680        0.67800       -3.84900
H          2.87960        0.08330       -3.21620
H          6.45410        0.24390       -4.77690
H          4.97290        0.71950       -3.94230
H          5.10990       -0.52660       -6.73220
H          4.78760        1.17240       -6.37490
H          3.62610       -0.07300       -5.89750
H          7.21600       -2.28810       -6.19730
H          7.98220       -1.35700       -4.90400
H          8.90540       -3.84950       -5.58130
H          8.93730       -3.28050       -3.90000
