170

C         -1.73300       -1.33910       13.36370
S         -1.23590       -1.28430       11.72840
C         -2.81060       -0.77820       11.18880
C         -3.66660       -0.61770       12.27660
C         -3.04690       -0.96550       13.51980
C         -3.79240       -0.88820       14.72400
C         -5.08010       -0.44350       14.69550
O         -5.90570       -0.33530       15.76830
C         -5.40650       -0.70450       17.02870
C         -5.67470       -0.00870       13.45260
O         -6.93930        0.47410       13.58310
C         -7.57710        0.98540       12.44110
C         -4.98010       -0.09210       12.28150
C         -3.08040       -0.60320        9.80390
S         -1.88870        0.08280        8.74560
C         -2.94230        0.01980        7.36210
C         -4.15800       -0.58690        7.70570
C         -4.23190       -0.93790        9.08670
C         -5.35300       -1.65000        9.56100
C         -6.39440       -1.96570        8.73000
O         -7.52300       -2.61370        9.15580
C         -7.58870       -3.04430       10.49240
C         -6.31810       -1.62660        7.33750
O         -7.27790       -1.87390        6.40100
C         -8.24140       -2.88870        6.58290
C         -5.20590       -0.98160        6.85580
C         -2.48730        0.50290        6.11390
S         -0.80560        0.35510        5.70410
C         -1.02980        1.01220        4.10410
C         -2.37340        1.39330        3.93390
C         -3.18630        1.12440        5.07280
C         -4.53170        1.54960        5.09190
C         -5.08010        2.14500        3.99050
O         -6.36550        2.56370        3.88560
C         -7.23780        2.30060        4.95750
C         -4.27140        2.38920        2.82730
O         -4.92130        2.99840        1.80690
C         -4.20230        3.28220        0.63080
C         -2.94860        2.03740        2.82000
C          0.02600        1.01670        3.17110
S         -0.30430        1.06600        1.46370
C          1.36260        0.85020        1.02920
C          2.16440        0.80460        2.17580
C          1.41190        0.88850        3.38360
C          2.09040        0.88240        4.61870
C          3.45440        0.78150        4.66070
O          4.20160        0.75860        5.79150
C          3.53870        0.82590        7.03040
C          4.21310        0.71510        3.44170
O          5.55400        0.64680        3.61340
C          6.36900        0.55970        2.46940
C          3.57170        0.73920        2.23340
C          1.70450        0.73140       -0.33720
C          2.81770        0.17380       -0.91060
C          2.81930        0.21860       -2.32030
C          3.79750       -0.28910       -3.19660
C          5.05930       -0.79100       -2.68570
S          5.70160       -2.33490       -3.16290
C          7.10340       -2.14960       -2.16650
C          8.12950       -3.22340       -2.05970
C          7.86770       -4.11070       -0.83970
C          7.06110       -0.95850       -1.50440
Cl         8.28520       -0.41990       -0.42540
C          5.90920       -0.18460       -1.79960
Cl         5.67770        1.39560       -1.16730
C          3.49670       -0.27400       -4.55240
C          2.30350        0.28570       -5.07020
C          1.36040        0.86630       -4.19800
C          0.13920        1.47930       -4.69270
S         -0.94340        0.62610       -5.75570
C         -2.06600        1.94200       -5.80390
C         -3.34790        1.84460       -6.55510
C         -4.47590        1.34330       -5.65010
C         -1.61680        2.97220       -5.03380
C         -0.36810        2.71680       -4.40620
Cl         0.43910        3.89800       -3.46330
Cl        -2.46080        4.45300       -4.83770
C          1.63650        0.80350       -2.84110
S          0.58080        1.31800       -1.55820
C          2.24940        0.20070       -6.48000
C          3.33910       -0.40950       -7.03370
S          4.51260       -0.88600       -5.82550
C          3.56000       -0.68020       -8.41710
C          2.67510       -0.49400       -9.43990
C          3.18880       -0.86150      -10.70650
C          2.55430       -0.77350      -11.95700
C          1.20390       -0.24860      -12.07890
S          0.78140        1.30760      -11.42510
C         -0.85770        1.18030      -11.96530
C         -1.85600        2.23930      -11.65140
C         -2.41220        2.05980      -10.23650
C         -1.05220       -0.00640      -12.60560
Cl        -2.55490       -0.49910      -13.27130
C          0.11400       -0.81590      -12.67810
Cl         0.09960       -2.38200      -13.37250
C          3.28420       -1.18810      -13.06480
C          4.60170       -1.69770      -12.97190
C          5.22580       -1.80920      -11.71960
C          6.57640       -2.33250      -11.58190
S          7.91100       -1.63980      -12.45560
C          9.04870       -2.73340      -11.74400
C         10.50220       -2.64290      -12.05280
C         11.17430       -1.55960      -11.20600
C          8.41640       -3.57400      -10.87820
C          7.01550       -3.35250      -10.78510
Cl         5.99210       -4.33530       -9.82390
Cl         9.21300       -4.80180       -9.98280
C          4.50470       -1.37850      -10.61310
S          5.07970       -1.34490       -8.97160
C          5.12210       -2.04190      -14.25360
C          4.26040       -1.77720      -15.25660
S          2.75780       -1.11050      -14.72190
H         -1.03590       -1.63940       14.11980
H         -3.31030       -1.18220       15.64180
H         -5.11120       -1.75890       17.05100
H         -6.22490       -0.54380       17.72840
H         -4.55250       -0.08400       17.31990
H         -7.02370        1.82790       12.01370
H         -8.55430        1.32740       12.77760
H         -7.70880        0.21780       11.67010
H         -5.39820        0.25760       11.35240
H         -5.35750       -1.95590       10.59310
H         -7.53990       -2.20500       11.19410
H         -6.78990       -3.75500       10.72620
H         -8.55360       -3.53930       10.59110
H         -8.70450       -3.01740        5.60440
H         -7.78260       -3.82990        6.89300
H         -9.00240       -2.60040        7.31100
H         -5.14570       -0.80670        5.79460
H         -5.10090        1.41520        5.99520
H         -6.93670        2.83920        5.86230
H         -7.29440        1.22930        5.17700
H         -8.21420        2.65810        4.63480
H         -3.79710        2.37220        0.17700
H         -4.92050        3.73830       -0.04840
H         -3.38470        3.98530        0.81890
H         -2.33110        2.26910        1.97080
H          1.52440        0.97880        5.52810
H          2.84240       -0.00880        7.16050
H          2.99490        1.76930        7.14470
H          4.32120        0.76690        7.78480
H          6.27120        1.44500        1.83380
H          6.13820       -0.33400        1.88070
H          7.39080        0.49340        2.83890
H          4.13070        0.74900        1.31550
H          3.57760       -0.33140       -0.34700
H          8.10940       -3.83060       -2.96570
H          9.11550       -2.76280       -1.96730
H          8.62230       -4.88990       -0.77660
H          6.88820       -4.57750       -0.91550
H          7.90190       -3.51870        0.07150
H         -3.60460        2.83310       -6.94120
H         -3.22330        1.16100       -7.39560
H         -4.23660        0.35740       -5.25920
H         -4.61860        2.02330       -4.81430
H         -5.40390        1.28090       -6.21180
H          1.43370        0.58240       -7.06430
H          1.68150       -0.11640       -9.29120
H         -2.66980        2.17890      -12.37600
H         -1.38450        3.22010      -11.73370
H         -3.14570        2.83250      -10.02290
H         -1.61070        2.12680       -9.50430
H         -2.89100        1.08790      -10.14370
H         10.63520       -2.41060      -13.11100
H         10.96390       -3.60990      -11.84510
H         10.72400       -0.59050      -11.40740
H         11.05940       -1.78320      -10.14840
H         12.23440       -1.50790      -11.43870
H          6.09770       -2.46600      -14.40320
H          4.40340       -1.93770      -16.30720
