
  xtb     03022208403D
 energy: -251.091253330442 gnorm: 0.000178444919 xtb: 6.4.1 (unknown)
163179  0     0  0            999 V2000
  -14.1818    5.8861   -7.9278 C   0  0  0  0  0  0  0  0  0  0  0  0
  -12.8596    5.8087   -7.6801 C   0  0  0  0  0  0  0  0  0  0  0  0
  -12.5606    5.5633   -6.3055 C   0  0  0  0  0  0  0  0  0  0  0  0
  -11.3086    5.4231   -5.6976 C   0  0  0  0  0  0  0  0  0  0  0  0
  -10.0289    5.4847   -6.4766 C   0  0  0  0  0  0  0  0  0  0  0  0
   -9.7043    4.1234   -7.0943 C   0  0  0  0  0  0  0  0  0  0  0  0
  -11.3123    5.1744   -4.3379 C   0  0  0  0  0  0  0  0  0  0  0  0
  -12.4915    5.0727   -3.5580 C   0  0  0  0  0  0  0  0  0  0  0  0
  -13.7445    5.2112   -4.1678 C   0  0  0  0  0  0  0  0  0  0  0  0
  -15.0246    5.1405   -3.3902 C   0  0  0  0  0  0  0  0  0  0  0  0
  -15.3690    6.5037   -2.7872 C   0  0  0  0  0  0  0  0  0  0  0  0
  -13.7400    5.4580   -5.5289 C   0  0  0  0  0  0  0  0  0  0  0  0
  -15.1644    5.6699   -6.5196 S   0  0  0  0  0  0  0  0  0  0  0  0
  -12.2024    4.8288   -2.1892 C   0  0  0  0  0  0  0  0  0  0  0  0
  -10.8697    4.7237   -1.9127 C   0  0  0  0  0  0  0  0  0  0  0  0
   -9.8890    4.9502   -3.3551 S   0  0  0  0  0  0  0  0  0  0  0  0
  -10.2031    4.4697   -0.6796 C   0  0  0  0  0  0  0  0  0  0  0  0
   -8.5464    4.9488   -0.5190 S   0  0  0  0  0  0  0  0  0  0  0  0
   -8.4214    4.3228    1.0957 C   0  0  0  0  0  0  0  0  0  0  0  0
   -9.6391    3.7694    1.4966 C   0  0  0  0  0  0  0  0  0  0  0  0
  -10.6466    3.8399    0.4841 C   0  0  0  0  0  0  0  0  0  0  0  0
  -11.9053    3.2412    0.7184 C   0  0  0  0  0  0  0  0  0  0  0  0
  -12.1723    2.6456    1.9178 C   0  0  0  0  0  0  0  0  0  0  0  0
  -13.3363    2.0330    2.2503 O   0  0  0  0  0  0  0  0  0  0  0  0
  -14.3663    1.9940    1.2952 C   0  0  0  0  0  0  0  0  0  0  0  0
  -11.1774    2.6302    2.9591 C   0  0  0  0  0  0  0  0  0  0  0  0
  -11.5787    2.0333    4.1077 O   0  0  0  0  0  0  0  0  0  0  0  0
  -10.6561    1.9399    5.1652 C   0  0  0  0  0  0  0  0  0  0  0  0
   -9.9441    3.1737    2.7400 C   0  0  0  0  0  0  0  0  0  0  0  0
   -7.1501    4.3651    1.7279 C   0  0  0  0  0  0  0  0  0  0  0  0
   -6.0330    4.9775    1.2276 C   0  0  0  0  0  0  0  0  0  0  0  0
   -4.8507    4.7303    1.9636 C   0  0  0  0  0  0  0  0  0  0  0  0
   -3.5435    5.1370    1.6645 C   0  0  0  0  0  0  0  0  0  0  0  0
   -3.2296    5.9983    0.4785 C   0  0  0  0  0  0  0  0  0  0  0  0
   -3.0886    5.1515   -0.7880 C   0  0  0  0  0  0  0  0  0  0  0  0
   -2.5460    4.6207    2.4683 C   0  0  0  0  0  0  0  0  0  0  0  0
   -2.7866    3.7739    3.5807 C   0  0  0  0  0  0  0  0  0  0  0  0
   -4.1026    3.4356    3.9287 C   0  0  0  0  0  0  0  0  0  0  0  0
   -4.4157    2.5353    5.0864 C   0  0  0  0  0  0  0  0  0  0  0  0
   -4.3443    1.0650    4.6692 C   0  0  0  0  0  0  0  0  0  0  0  0
   -5.0933    3.9029    3.0890 C   0  0  0  0  0  0  0  0  0  0  0  0
   -6.7882    3.4938    3.2102 S   0  0  0  0  0  0  0  0  0  0  0  0
   -1.5786    3.2997    4.1516 C   0  0  0  0  0  0  0  0  0  0  0  0
   -0.4571    3.7329    3.5042 C   0  0  0  0  0  0  0  0  0  0  0  0
   -0.8363    4.8341    2.1957 S   0  0  0  0  0  0  0  0  0  0  0  0
    0.8832    3.2652    3.6632 C   0  0  0  0  0  0  0  0  0  0  0  0
    1.3217    2.2397    4.4502 C   0  0  0  0  0  0  0  0  0  0  0  0
    2.6568    1.8431    4.1815 C   0  0  0  0  0  0  0  0  0  0  0  0
    3.3563    0.7484    4.7082 C   0  0  0  0  0  0  0  0  0  0  0  0
    2.8069   -0.0823    5.8286 C   0  0  0  0  0  0  0  0  0  0  0  0
    3.0364    0.6074    7.1747 C   0  0  0  0  0  0  0  0  0  0  0  0
    4.5784    0.4681    4.1277 C   0  0  0  0  0  0  0  0  0  0  0  0
    5.1556    1.2476    3.0924 C   0  0  0  0  0  0  0  0  0  0  0  0
    4.4910    2.3872    2.6196 C   0  0  0  0  0  0  0  0  0  0  0  0
    5.0860    3.2789    1.5719 C   0  0  0  0  0  0  0  0  0  0  0  0
    6.1013    4.2397    2.1933 C   0  0  0  0  0  0  0  0  0  0  0  0
    3.2459    2.6363    3.1633 C   0  0  0  0  0  0  0  0  0  0  0  0
    2.1451    3.8736    2.6124 S   0  0  0  0  0  0  0  0  0  0  0  0
    6.3426    0.6578    2.5887 C   0  0  0  0  0  0  0  0  0  0  0  0
    6.6594   -0.5319    3.1774 C   0  0  0  0  0  0  0  0  0  0  0  0
    5.5528   -0.9395    4.4723 S   0  0  0  0  0  0  0  0  0  0  0  0
    7.6433   -1.4761    2.7510 C   0  0  0  0  0  0  0  0  0  0  0  0
    8.4416   -1.3962    1.6466 C   0  0  0  0  0  0  0  0  0  0  0  0
    9.1504   -2.5913    1.3651 C   0  0  0  0  0  0  0  0  0  0  0  0
    9.9698   -2.8729    0.2630 C   0  0  0  0  0  0  0  0  0  0  0  0
   10.3207   -1.8279   -0.7529 C   0  0  0  0  0  0  0  0  0  0  0  0
   11.4601   -0.9412   -0.2475 C   0  0  0  0  0  0  0  0  0  0  0  0
   10.4426   -4.1670    0.1687 C   0  0  0  0  0  0  0  0  0  0  0  0
   10.1639   -5.1794    1.1226 C   0  0  0  0  0  0  0  0  0  0  0  0
    9.3862   -4.8847    2.2491 C   0  0  0  0  0  0  0  0  0  0  0  0
    9.0376   -5.9231    3.2725 C   0  0  0  0  0  0  0  0  0  0  0  0
    7.7976   -6.7107    2.8446 C   0  0  0  0  0  0  0  0  0  0  0  0
    8.8820   -3.6000    2.3248 C   0  0  0  0  0  0  0  0  0  0  0  0
    7.7834   -3.0259    3.5533 S   0  0  0  0  0  0  0  0  0  0  0  0
   10.7058   -6.4320    0.7335 C   0  0  0  0  0  0  0  0  0  0  0  0
   11.3600   -6.4017   -0.4606 C   0  0  0  0  0  0  0  0  0  0  0  0
   11.3883   -4.7938   -1.1601 S   0  0  0  0  0  0  0  0  0  0  0  0
   11.9314   -7.4963   -1.1743 C   0  0  0  0  0  0  0  0  0  0  0  0
   12.5264   -7.4742   -2.3988 C   0  0  0  0  0  0  0  0  0  0  0  0
   12.9252   -8.7545   -2.8661 C   0  0  0  0  0  0  0  0  0  0  0  0
   13.5374   -9.0816   -4.0816 C   0  0  0  0  0  0  0  0  0  0  0  0
   13.8513   -8.0448   -5.1178 C   0  0  0  0  0  0  0  0  0  0  0  0
   12.6197   -7.7455   -5.9750 C   0  0  0  0  0  0  0  0  0  0  0  0
   13.7878  -10.4246   -4.2983 C   0  0  0  0  0  0  0  0  0  0  0  0
   13.4754  -11.4432   -3.3652 C   0  0  0  0  0  0  0  0  0  0  0  0
   12.8787  -11.1149   -2.1433 C   0  0  0  0  0  0  0  0  0  0  0  0
   12.4901  -12.1567   -1.1371 C   0  0  0  0  0  0  0  0  0  0  0  0
   11.1143  -12.7396   -1.4657 C   0  0  0  0  0  0  0  0  0  0  0  0
   12.6126   -9.7746   -1.9330 C   0  0  0  0  0  0  0  0  0  0  0  0
   11.8407   -9.1171   -0.5106 S   0  0  0  0  0  0  0  0  0  0  0  0
   13.8402  -12.7329   -3.8581 C   0  0  0  0  0  0  0  0  0  0  0  0
   14.3927  -12.6920   -5.0865 C   0  0  0  0  0  0  0  0  0  0  0  0
   14.5142  -11.0946   -5.7398 S   0  0  0  0  0  0  0  0  0  0  0  0
  -14.6692    6.0612   -8.8672 H   0  0  0  0  0  0  0  0  0  0  0  0
  -12.1101    5.9186   -8.4428 H   0  0  0  0  0  0  0  0  0  0  0  0
   -9.2177    5.7759   -5.8052 H   0  0  0  0  0  0  0  0  0  0  0  0
  -10.1070    6.2362   -7.2641 H   0  0  0  0  0  0  0  0  0  0  0  0
   -8.7747    4.1748   -7.6560 H   0  0  0  0  0  0  0  0  0  0  0  0
  -10.5010    3.8088   -7.7648 H   0  0  0  0  0  0  0  0  0  0  0  0
   -9.5962    3.3741   -6.3135 H   0  0  0  0  0  0  0  0  0  0  0  0
  -15.8310    4.8306   -4.0587 H   0  0  0  0  0  0  0  0  0  0  0  0
  -14.9379    4.3976   -2.5950 H   0  0  0  0  0  0  0  0  0  0  0  0
  -16.2974    6.4452   -2.2240 H   0  0  0  0  0  0  0  0  0  0  0  0
  -15.4888    7.2417   -3.5767 H   0  0  0  0  0  0  0  0  0  0  0  0
  -14.5760    6.8382   -2.1220 H   0  0  0  0  0  0  0  0  0  0  0  0
  -12.9625    4.7858   -1.4321 H   0  0  0  0  0  0  0  0  0  0  0  0
  -12.6315    3.2361   -0.0746 H   0  0  0  0  0  0  0  0  0  0  0  0
  -14.6979    3.0012    1.0207 H   0  0  0  0  0  0  0  0  0  0  0  0
  -15.1885    1.4618    1.7704 H   0  0  0  0  0  0  0  0  0  0  0  0
  -14.0589    1.4549    0.3927 H   0  0  0  0  0  0  0  0  0  0  0  0
  -10.3480    2.9295    5.5181 H   0  0  0  0  0  0  0  0  0  0  0  0
  -11.1779    1.4168    5.9646 H   0  0  0  0  0  0  0  0  0  0  0  0
   -9.7683    1.3693    4.8739 H   0  0  0  0  0  0  0  0  0  0  0  0
   -9.1898    3.1582    3.5068 H   0  0  0  0  0  0  0  0  0  0  0  0
   -6.0641    5.5634    0.3262 H   0  0  0  0  0  0  0  0  0  0  0  0
   -4.0187    6.7391    0.3388 H   0  0  0  0  0  0  0  0  0  0  0  0
   -2.2913    6.5271    0.6617 H   0  0  0  0  0  0  0  0  0  0  0  0
   -4.0099    4.6096   -0.9897 H   0  0  0  0  0  0  0  0  0  0  0  0
   -2.8626    5.7853   -1.6419 H   0  0  0  0  0  0  0  0  0  0  0  0
   -2.2834    4.4303   -0.6688 H   0  0  0  0  0  0  0  0  0  0  0  0
   -5.4235    2.7565    5.4457 H   0  0  0  0  0  0  0  0  0  0  0  0
   -3.7145    2.7217    5.9017 H   0  0  0  0  0  0  0  0  0  0  0  0
   -3.3521    0.8219    4.2956 H   0  0  0  0  0  0  0  0  0  0  0  0
   -4.5673    0.4199    5.5158 H   0  0  0  0  0  0  0  0  0  0  0  0
   -5.0658    0.8642    3.8808 H   0  0  0  0  0  0  0  0  0  0  0  0
   -1.5431    2.6239    4.9862 H   0  0  0  0  0  0  0  0  0  0  0  0
    0.6885    1.7419    5.1615 H   0  0  0  0  0  0  0  0  0  0  0  0
    1.7384   -0.2496    5.6804 H   0  0  0  0  0  0  0  0  0  0  0  0
    3.3060   -1.0538    5.8316 H   0  0  0  0  0  0  0  0  0  0  0  0
    2.6350    0.0015    7.9835 H   0  0  0  0  0  0  0  0  0  0  0  0
    4.1007    0.7518    7.3456 H   0  0  0  0  0  0  0  0  0  0  0  0
    2.5508    1.5806    7.1923 H   0  0  0  0  0  0  0  0  0  0  0  0
    4.2882    3.8549    1.0978 H   0  0  0  0  0  0  0  0  0  0  0  0
    5.5740    2.6776    0.8026 H   0  0  0  0  0  0  0  0  0  0  0  0
    6.5302    4.8831    1.4289 H   0  0  0  0  0  0  0  0  0  0  0  0
    5.6176    4.8647    2.9404 H   0  0  0  0  0  0  0  0  0  0  0  0
    6.9041    3.6866    2.6760 H   0  0  0  0  0  0  0  0  0  0  0  0
    6.9143    1.0777    1.7817 H   0  0  0  0  0  0  0  0  0  0  0  0
    8.4897   -0.5202    1.0264 H   0  0  0  0  0  0  0  0  0  0  0  0
    9.4460   -1.2123   -0.9711 H   0  0  0  0  0  0  0  0  0  0  0  0
   10.6302   -2.3194   -1.6780 H   0  0  0  0  0  0  0  0  0  0  0  0
   11.7063   -0.1833   -0.9873 H   0  0  0  0  0  0  0  0  0  0  0  0
   11.1765   -0.4468    0.6789 H   0  0  0  0  0  0  0  0  0  0  0  0
   12.3468   -1.5417   -0.0582 H   0  0  0  0  0  0  0  0  0  0  0  0
    9.8771   -6.6062    3.4110 H   0  0  0  0  0  0  0  0  0  0  0  0
    8.8363   -5.4293    4.2260 H   0  0  0  0  0  0  0  0  0  0  0  0
    6.9482   -6.0408    2.7331 H   0  0  0  0  0  0  0  0  0  0  0  0
    7.9713   -7.2083    1.8931 H   0  0  0  0  0  0  0  0  0  0  0  0
    7.5511   -7.4614    3.5915 H   0  0  0  0  0  0  0  0  0  0  0  0
   10.5944   -7.3392    1.3005 H   0  0  0  0  0  0  0  0  0  0  0  0
   12.6610   -6.5616   -2.9518 H   0  0  0  0  0  0  0  0  0  0  0  0
   14.6544   -8.4134   -5.7599 H   0  0  0  0  0  0  0  0  0  0  0  0
   14.1930   -7.1277   -4.6349 H   0  0  0  0  0  0  0  0  0  0  0  0
   11.8036   -7.3799   -5.3559 H   0  0  0  0  0  0  0  0  0  0  0  0
   12.2882   -8.6479   -6.4836 H   0  0  0  0  0  0  0  0  0  0  0  0
   12.8547   -6.9925   -6.7233 H   0  0  0  0  0  0  0  0  0  0  0  0
   13.2333  -12.9554   -1.1205 H   0  0  0  0  0  0  0  0  0  0  0  0
   12.4580  -11.6994   -0.1454 H   0  0  0  0  0  0  0  0  0  0  0  0
   10.3622  -11.9541   -1.4552 H   0  0  0  0  0  0  0  0  0  0  0  0
   11.1197  -13.1970   -2.4527 H   0  0  0  0  0  0  0  0  0  0  0  0
   10.8380  -13.4936   -0.7326 H   0  0  0  0  0  0  0  0  0  0  0  0
   13.6889  -13.6455   -3.3105 H   0  0  0  0  0  0  0  0  0  0  0  0
   14.7477  -13.5132   -5.6785 H   0  0  0  0  0  0  0  0  0  0  0  0
  1  2  2  0  0  0  0
  2  3  1  0  0  0  0
  3  4  2  0  0  0  0
  4  5  1  0  0  0  0
  5  6  1  0  0  0  0
  4  7  1  0  0  0  0
  7  8  2  0  0  0  0
  8  9  1  0  0  0  0
  9 10  1  0  0  0  0
 10 11  1  0  0  0  0
  9 12  2  0  0  0  0
 12 13  1  0  0  0  0
  8 14  1  0  0  0  0
 14 15  2  0  0  0  0
 15 16  1  0  0  0  0
 15 17  1  0  0  0  0
 17 18  1  0  0  0  0
 18 19  1  0  0  0  0
 19 20  2  0  0  0  0
 20 21  1  0  0  0  0
 21 22  1  0  0  0  0
 22 23  2  0  0  0  0
 23 24  1  0  0  0  0
 24 25  1  0  0  0  0
 23 26  1  0  0  0  0
 26 27  1  0  0  0  0
 27 28  1  0  0  0  0
 26 29  2  0  0  0  0
 19 30  1  0  0  0  0
 30 31  2  0  0  0  0
 31 32  1  0  0  0  0
 32 33  2  0  0  0  0
 33 34  1  0  0  0  0
 34 35  1  0  0  0  0
 33 36  1  0  0  0  0
 36 37  2  0  0  0  0
 37 38  1  0  0  0  0
 38 39  1  0  0  0  0
 39 40  1  0  0  0  0
 38 41  2  0  0  0  0
 41 42  1  0  0  0  0
 37 43  1  0  0  0  0
 43 44  2  0  0  0  0
 44 45  1  0  0  0  0
 44 46  1  0  0  0  0
 46 47  2  0  0  0  0
 47 48  1  0  0  0  0
 48 49  2  0  0  0  0
 49 50  1  0  0  0  0
 50 51  1  0  0  0  0
 49 52  1  0  0  0  0
 52 53  2  0  0  0  0
 53 54  1  0  0  0  0
 54 55  1  0  0  0  0
 55 56  1  0  0  0  0
 54 57  2  0  0  0  0
 57 58  1  0  0  0  0
 53 59  1  0  0  0  0
 59 60  2  0  0  0  0
 60 61  1  0  0  0  0
 60 62  1  0  0  0  0
 62 63  2  0  0  0  0
 63 64  1  0  0  0  0
 64 65  2  0  0  0  0
 65 66  1  0  0  0  0
 66 67  1  0  0  0  0
 65 68  1  0  0  0  0
 68 69  2  0  0  0  0
 69 70  1  0  0  0  0
 70 71  1  0  0  0  0
 71 72  1  0  0  0  0
 70 73  2  0  0  0  0
 73 74  1  0  0  0  0
 69 75  1  0  0  0  0
 75 76  2  0  0  0  0
 76 77  1  0  0  0  0
 76 78  1  0  0  0  0
 78 79  2  0  0  0  0
 79 80  1  0  0  0  0
 80 81  2  0  0  0  0
 81 82  1  0  0  0  0
 82 83  1  0  0  0  0
 81 84  1  0  0  0  0
 84 85  2  0  0  0  0
 85 86  1  0  0  0  0
 86 87  1  0  0  0  0
 87 88  1  0  0  0  0
 86 89  2  0  0  0  0
 89 90  1  0  0  0  0
 85 91  1  0  0  0  0
 91 92  2  0  0  0  0
 92 93  1  0  0  0  0
 13  1  1  0  0  0  0
 21 17  2  0  0  0  0
 42 30  1  0  0  0  0
 58 46  1  0  0  0  0
 74 62  1  0  0  0  0
 90 78  1  0  0  0  0
 12  3  1  0  0  0  0
 29 20  1  0  0  0  0
 41 32  1  0  0  0  0
 57 48  1  0  0  0  0
 73 64  1  0  0  0  0
 89 80  1  0  0  0  0
 16  7  1  0  0  0  0
 45 36  1  0  0  0  0
 61 52  1  0  0  0  0
 77 68  1  0  0  0  0
 93 84  1  0  0  0  0
  1 94  1  0  0  0  0
  2 95  1  0  0  0  0
  5 96  1  0  0  0  0
  5 97  1  0  0  0  0
  6 98  1  0  0  0  0
  6 99  1  0  0  0  0
  6100  1  0  0  0  0
 10101  1  0  0  0  0
 10102  1  0  0  0  0
 11103  1  0  0  0  0
 11104  1  0  0  0  0
 11105  1  0  0  0  0
 14106  1  0  0  0  0
 22107  1  0  0  0  0
 25108  1  0  0  0  0
 25109  1  0  0  0  0
 25110  1  0  0  0  0
 28111  1  0  0  0  0
 28112  1  0  0  0  0
 28113  1  0  0  0  0
 29114  1  0  0  0  0
 31115  1  0  0  0  0
 34116  1  0  0  0  0
 34117  1  0  0  0  0
 35118  1  0  0  0  0
 35119  1  0  0  0  0
 35120  1  0  0  0  0
 39121  1  0  0  0  0
 39122  1  0  0  0  0
 40123  1  0  0  0  0
 40124  1  0  0  0  0
 40125  1  0  0  0  0
 43126  1  0  0  0  0
 47127  1  0  0  0  0
 50128  1  0  0  0  0
 50129  1  0  0  0  0
 51130  1  0  0  0  0
 51131  1  0  0  0  0
 51132  1  0  0  0  0
 55133  1  0  0  0  0
 55134  1  0  0  0  0
 56135  1  0  0  0  0
 56136  1  0  0  0  0
 56137  1  0  0  0  0
 59138  1  0  0  0  0
 63139  1  0  0  0  0
 66140  1  0  0  0  0
 66141  1  0  0  0  0
 67142  1  0  0  0  0
 67143  1  0  0  0  0
 67144  1  0  0  0  0
 71145  1  0  0  0  0
 71146  1  0  0  0  0
 72147  1  0  0  0  0
 72148  1  0  0  0  0
 72149  1  0  0  0  0
 75150  1  0  0  0  0
 79151  1  0  0  0  0
 82152  1  0  0  0  0
 82153  1  0  0  0  0
 83154  1  0  0  0  0
 83155  1  0  0  0  0
 83156  1  0  0  0  0
 87157  1  0  0  0  0
 87158  1  0  0  0  0
 88159  1  0  0  0  0
 88160  1  0  0  0  0
 88161  1  0  0  0  0
 91162  1  0  0  0  0
 92163  1  0  0  0  0
M  END
