
  xtb     03022222563D
 energy: -412.743292277977 gnorm: 0.000151661247 xtb: 6.4.1 (unknown)
212235  0     0  0            999 V2000
  -14.1560   -3.7871   12.2200 C   0  0  0  0  0  0  0  0  0  0  0  0
  -13.7423   -2.5300   11.9605 C   0  0  0  0  0  0  0  0  0  0  0  0
  -13.0717   -2.4166   10.7080 C   0  0  0  0  0  0  0  0  0  0  0  0
  -12.4727   -1.2797   10.1429 C   0  0  0  0  0  0  0  0  0  0  0  0
  -12.5662    0.0264   10.7745 C   0  0  0  0  0  0  0  0  0  0  0  0
  -11.1453    0.9728   11.1004 S   0  0  0  0  0  0  0  0  0  0  0  0
  -12.0709    2.2741   11.7706 C   0  0  0  0  0  0  0  0  0  0  0  0
  -11.4040    3.5138   12.2558 C   0  0  0  0  0  0  0  0  0  0  0  0
  -10.7216    4.2601   11.1086 C   0  0  0  0  0  0  0  0  0  0  0  0
  -13.4004    1.9784   11.7311 C   0  0  0  0  0  0  0  0  0  0  0  0
  -14.6374    3.0256   12.2969 Cl  0  0  0  0  0  0  0  0  0  0  0  0
  -13.6853    0.7028   11.1714 C   0  0  0  0  0  0  0  0  0  0  0  0
  -15.2872    0.1266   10.9511 Cl  0  0  0  0  0  0  0  0  0  0  0  0
  -11.7774   -1.4588    8.9544 C   0  0  0  0  0  0  0  0  0  0  0  0
  -11.6874   -2.7089    8.2970 C   0  0  0  0  0  0  0  0  0  0  0  0
  -12.3228   -3.8391    8.8388 C   0  0  0  0  0  0  0  0  0  0  0  0
  -12.2526   -5.1246    8.1644 C   0  0  0  0  0  0  0  0  0  0  0  0
  -10.7238   -5.7978    7.6768 S   0  0  0  0  0  0  0  0  0  0  0  0
  -11.4689   -7.1892    6.9678 C   0  0  0  0  0  0  0  0  0  0  0  0
  -10.6540   -8.2050    6.2465 C   0  0  0  0  0  0  0  0  0  0  0  0
  -10.2061   -7.6718    4.8831 C   0  0  0  0  0  0  0  0  0  0  0  0
  -12.8220   -7.1250    7.1146 C   0  0  0  0  0  0  0  0  0  0  0  0
  -13.2700   -5.9611    7.7976 C   0  0  0  0  0  0  0  0  0  0  0  0
  -14.9325   -5.6212    8.0328 Cl  0  0  0  0  0  0  0  0  0  0  0  0
  -13.9076   -8.3206    6.5344 Cl  0  0  0  0  0  0  0  0  0  0  0  0
  -12.9965   -3.6644   10.0423 C   0  0  0  0  0  0  0  0  0  0  0  0
  -13.7663   -4.9177   10.9721 S   0  0  0  0  0  0  0  0  0  0  0  0
  -10.9408   -2.6178    7.0969 C   0  0  0  0  0  0  0  0  0  0  0  0
  -10.4701   -1.3658    6.8404 C   0  0  0  0  0  0  0  0  0  0  0  0
  -10.9462   -0.2103    8.0676 S   0  0  0  0  0  0  0  0  0  0  0  0
   -9.6441   -0.9723    5.7478 C   0  0  0  0  0  0  0  0  0  0  0  0
   -9.2435    0.2824    5.3994 C   0  0  0  0  0  0  0  0  0  0  0  0
   -8.3717    0.3072    4.2829 C   0  0  0  0  0  0  0  0  0  0  0  0
   -7.7308    1.4183    3.7065 C   0  0  0  0  0  0  0  0  0  0  0  0
   -7.9341    2.7613    4.2233 C   0  0  0  0  0  0  0  0  0  0  0  0
   -7.7299    3.1194    5.9137 S   0  0  0  0  0  0  0  0  0  0  0  0
   -8.1070    4.7932    5.6882 C   0  0  0  0  0  0  0  0  0  0  0  0
   -8.1761    5.7244    6.8475 C   0  0  0  0  0  0  0  0  0  0  0  0
   -9.4758    5.5219    7.6299 C   0  0  0  0  0  0  0  0  0  0  0  0
   -8.3776    5.0433    4.3765 C   0  0  0  0  0  0  0  0  0  0  0  0
   -8.8046    6.5878    3.7633 Cl  0  0  0  0  0  0  0  0  0  0  0  0
   -8.2732    3.8973    3.5417 C   0  0  0  0  0  0  0  0  0  0  0  0
   -8.6344    3.9493    1.8678 Cl  0  0  0  0  0  0  0  0  0  0  0  0
   -6.8624    1.1666    2.6517 C   0  0  0  0  0  0  0  0  0  0  0  0
   -6.6306   -0.1345    2.1387 C   0  0  0  0  0  0  0  0  0  0  0  0
   -7.2938   -1.2438    2.6943 C   0  0  0  0  0  0  0  0  0  0  0  0
   -7.0364   -2.5963    2.2289 C   0  0  0  0  0  0  0  0  0  0  0  0
   -5.4059   -3.1908    2.0865 S   0  0  0  0  0  0  0  0  0  0  0  0
   -5.9326   -4.7626    1.5982 C   0  0  0  0  0  0  0  0  0  0  0  0
   -4.9771   -5.8611    1.2761 C   0  0  0  0  0  0  0  0  0  0  0  0
   -3.5232   -5.4493    1.4580 C   0  0  0  0  0  0  0  0  0  0  0  0
   -7.2948   -4.8087    1.5522 C   0  0  0  0  0  0  0  0  0  0  0  0
   -7.9244   -3.5867    1.9072 C   0  0  0  0  0  0  0  0  0  0  0  0
   -9.6241   -3.3847    1.8312 Cl  0  0  0  0  0  0  0  0  0  0  0  0
   -8.1759   -6.2135    1.1095 Cl  0  0  0  0  0  0  0  0  0  0  0  0
   -8.1454   -0.9919    3.7623 C   0  0  0  0  0  0  0  0  0  0  0  0
   -8.9854   -2.1997    4.6885 S   0  0  0  0  0  0  0  0  0  0  0  0
   -5.6694   -0.1283    1.1027 C   0  0  0  0  0  0  0  0  0  0  0  0
   -5.1380    1.1059    0.8567 C   0  0  0  0  0  0  0  0  0  0  0  0
   -5.8509    2.3429    1.8644 S   0  0  0  0  0  0  0  0  0  0  0  0
   -4.0682    1.4018   -0.0398 C   0  0  0  0  0  0  0  0  0  0  0  0
   -3.4066    0.5097   -0.8354 C   0  0  0  0  0  0  0  0  0  0  0  0
   -2.2942    1.0659   -1.5058 C   0  0  0  0  0  0  0  0  0  0  0  0
   -1.3581    0.4078   -2.3256 C   0  0  0  0  0  0  0  0  0  0  0  0
   -1.4936   -0.9978   -2.6695 C   0  0  0  0  0  0  0  0  0  0  0  0
   -1.7310   -2.2269   -1.4603 S   0  0  0  0  0  0  0  0  0  0  0  0
   -1.7449   -3.4974   -2.6350 C   0  0  0  0  0  0  0  0  0  0  0  0
   -1.9835   -4.9149   -2.2465 C   0  0  0  0  0  0  0  0  0  0  0  0
   -3.4697   -5.2654   -2.3541 C   0  0  0  0  0  0  0  0  0  0  0  0
   -1.5860   -2.9836   -3.8868 C   0  0  0  0  0  0  0  0  0  0  0  0
   -1.5587   -3.9376   -5.3121 Cl  0  0  0  0  0  0  0  0  0  0  0  0
   -1.4381   -1.5708   -3.9107 C   0  0  0  0  0  0  0  0  0  0  0  0
   -1.3020   -0.6932   -5.3754 Cl  0  0  0  0  0  0  0  0  0  0  0  0
   -0.2773    1.1576   -2.7676 C   0  0  0  0  0  0  0  0  0  0  0  0
   -0.1235    2.5382   -2.4821 C   0  0  0  0  0  0  0  0  0  0  0  0
   -1.1045    3.2144   -1.7336 C   0  0  0  0  0  0  0  0  0  0  0  0
   -1.0219    4.6419   -1.4725 C   0  0  0  0  0  0  0  0  0  0  0  0
    0.3986    5.3781   -0.7868 S   0  0  0  0  0  0  0  0  0  0  0  0
   -0.3099    6.9573   -0.8036 C   0  0  0  0  0  0  0  0  0  0  0  0
    0.4178    8.1379   -0.2622 C   0  0  0  0  0  0  0  0  0  0  0  0
    0.2019    8.2661    1.2477 C   0  0  0  0  0  0  0  0  0  0  0  0
   -1.5754    6.9003   -1.3051 C   0  0  0  0  0  0  0  0  0  0  0  0
   -1.9813    5.5931   -1.6874 C   0  0  0  0  0  0  0  0  0  0  0  0
   -3.4973    5.2858   -2.4251 Cl  0  0  0  0  0  0  0  0  0  0  0  0
   -2.5945    8.2690   -1.4838 Cl  0  0  0  0  0  0  0  0  0  0  0  0
   -2.1516    2.4494   -1.2344 C   0  0  0  0  0  0  0  0  0  0  0  0
   -3.3818    3.0065   -0.1374 S   0  0  0  0  0  0  0  0  0  0  0  0
    1.0861    3.0546   -2.9989 C   0  0  0  0  0  0  0  0  0  0  0  0
    1.8637    2.1211   -3.6278 C   0  0  0  0  0  0  0  0  0  0  0  0
    1.0945    0.5428   -3.6406 S   0  0  0  0  0  0  0  0  0  0  0  0
    3.1687    2.2545   -4.1745 C   0  0  0  0  0  0  0  0  0  0  0  0
    4.1515    0.8387   -4.3378 S   0  0  0  0  0  0  0  0  0  0  0  0
    5.5171    1.7423   -4.8960 C   0  0  0  0  0  0  0  0  0  0  0  0
    5.2177    3.1068   -4.9613 C   0  0  0  0  0  0  0  0  0  0  0  0
    3.8745    3.3953   -4.5684 C   0  0  0  0  0  0  0  0  0  0  0  0
    3.4038    4.7249   -4.6339 C   0  0  0  0  0  0  0  0  0  0  0  0
    4.2458    5.7364   -5.0014 C   0  0  0  0  0  0  0  0  0  0  0  0
    3.9067    7.0449   -5.0875 O   0  0  0  0  0  0  0  0  0  0  0  0
    2.5940    7.4193   -4.7497 C   0  0  0  0  0  0  0  0  0  0  0  0
    5.6224    5.4555   -5.3209 C   0  0  0  0  0  0  0  0  0  0  0  0
    6.3575    6.5477   -5.6314 O   0  0  0  0  0  0  0  0  0  0  0  0
    7.7048    6.3654   -5.9956 C   0  0  0  0  0  0  0  0  0  0  0  0
    6.0824    4.1682   -5.3071 C   0  0  0  0  0  0  0  0  0  0  0  0
    6.7295    1.0525   -5.1722 C   0  0  0  0  0  0  0  0  0  0  0  0
    7.7896    1.4175   -5.9539 C   0  0  0  0  0  0  0  0  0  0  0  0
    8.8500    0.4808   -5.9507 C   0  0  0  0  0  0  0  0  0  0  0  0
   10.0987    0.5848   -6.5905 C   0  0  0  0  0  0  0  0  0  0  0  0
   10.4749    1.7991   -7.2942 C   0  0  0  0  0  0  0  0  0  0  0  0
   11.0679    1.7744   -8.9270 S   0  0  0  0  0  0  0  0  0  0  0  0
   11.2625    3.4932   -8.9659 C   0  0  0  0  0  0  0  0  0  0  0  0
   11.7283    4.1926  -10.1949 C   0  0  0  0  0  0  0  0  0  0  0  0
   10.5460    4.5800  -11.0867 C   0  0  0  0  0  0  0  0  0  0  0  0
   10.8804    4.0415   -7.7778 C   0  0  0  0  0  0  0  0  0  0  0  0
   10.9327    5.7251   -7.4371 Cl  0  0  0  0  0  0  0  0  0  0  0  0
   10.4402    3.0843   -6.8268 C   0  0  0  0  0  0  0  0  0  0  0  0
   10.0048    3.5117   -5.2209 Cl  0  0  0  0  0  0  0  0  0  0  0  0
   10.9594   -0.4975   -6.4773 C   0  0  0  0  0  0  0  0  0  0  0  0
   10.6490   -1.6501   -5.7162 C   0  0  0  0  0  0  0  0  0  0  0  0
    9.4100   -1.7460   -5.0576 C   0  0  0  0  0  0  0  0  0  0  0  0
    9.0530   -2.9191   -4.2750 C   0  0  0  0  0  0  0  0  0  0  0  0
   10.0536   -3.4830   -2.9679 S   0  0  0  0  0  0  0  0  0  0  0  0
    8.9709   -4.7811   -2.5916 C   0  0  0  0  0  0  0  0  0  0  0  0
    9.2766   -5.7529   -1.5055 C   0  0  0  0  0  0  0  0  0  0  0  0
   10.2452   -6.8349   -1.9885 C   0  0  0  0  0  0  0  0  0  0  0  0
    7.9102   -4.7721   -3.4463 C   0  0  0  0  0  0  0  0  0  0  0  0
    7.9491   -3.7157   -4.3966 C   0  0  0  0  0  0  0  0  0  0  0  0
    6.7565   -3.5328   -5.6140 Cl  0  0  0  0  0  0  0  0  0  0  0  0
    6.6324   -5.9163   -3.3976 Cl  0  0  0  0  0  0  0  0  0  0  0  0
    8.5403   -0.6729   -5.1892 C   0  0  0  0  0  0  0  0  0  0  0  0
    6.9834   -0.5227   -4.4327 S   0  0  0  0  0  0  0  0  0  0  0  0
   11.6976   -2.5989   -5.7363 C   0  0  0  0  0  0  0  0  0  0  0  0
   12.7790   -2.2151   -6.4777 C   0  0  0  0  0  0  0  0  0  0  0  0
   12.5467   -0.6195   -7.1801 S   0  0  0  0  0  0  0  0  0  0  0  0
   13.9970   -2.9150   -6.7081 C   0  0  0  0  0  0  0  0  0  0  0  0
   15.4219   -2.0349   -7.1663 S   0  0  0  0  0  0  0  0  0  0  0  0
   16.3811   -3.4446   -7.1730 C   0  0  0  0  0  0  0  0  0  0  0  0
   15.6560   -4.5695   -6.8532 C   0  0  0  0  0  0  0  0  0  0  0  0
   14.2773   -4.2768   -6.5959 C   0  0  0  0  0  0  0  0  0  0  0  0
   13.3926   -5.3437   -6.3203 C   0  0  0  0  0  0  0  0  0  0  0  0
   13.8638   -6.6231   -6.2428 C   0  0  0  0  0  0  0  0  0  0  0  0
   13.1101   -7.7184   -5.9791 O   0  0  0  0  0  0  0  0  0  0  0  0
   11.7316   -7.5449   -5.7626 C   0  0  0  0  0  0  0  0  0  0  0  0
   15.2644   -6.9085   -6.4514 C   0  0  0  0  0  0  0  0  0  0  0  0
   15.5849   -8.2201   -6.3242 O   0  0  0  0  0  0  0  0  0  0  0  0
   16.9231   -8.5992   -6.5271 C   0  0  0  0  0  0  0  0  0  0  0  0
   16.1292   -5.9030   -6.7645 C   0  0  0  0  0  0  0  0  0  0  0  0
  -14.6804   -4.1417   13.0858 H   0  0  0  0  0  0  0  0  0  0  0  0
  -13.8861   -1.7044   12.6323 H   0  0  0  0  0  0  0  0  0  0  0  0
  -10.6566    3.2533   13.0092 H   0  0  0  0  0  0  0  0  0  0  0  0
  -12.1565    4.1515   12.7220 H   0  0  0  0  0  0  0  0  0  0  0  0
   -9.9653    3.6285   10.6485 H   0  0  0  0  0  0  0  0  0  0  0  0
  -11.4502    4.5379   10.3512 H   0  0  0  0  0  0  0  0  0  0  0  0
  -10.2448    5.1625   11.4816 H   0  0  0  0  0  0  0  0  0  0  0  0
   -9.7742   -8.4575    6.8420 H   0  0  0  0  0  0  0  0  0  0  0  0
  -11.2559   -9.1050    6.1125 H   0  0  0  0  0  0  0  0  0  0  0  0
  -11.0703   -7.4265    4.2708 H   0  0  0  0  0  0  0  0  0  0  0  0
   -9.6145   -8.4210    4.3640 H   0  0  0  0  0  0  0  0  0  0  0  0
   -9.6030   -6.7750    5.0067 H   0  0  0  0  0  0  0  0  0  0  0  0
  -10.7557   -3.4456    6.4372 H   0  0  0  0  0  0  0  0  0  0  0  0
   -9.5637    1.1573    5.9349 H   0  0  0  0  0  0  0  0  0  0  0  0
   -7.3253    5.5474    7.5083 H   0  0  0  0  0  0  0  0  0  0  0  0
   -8.1239    6.7489    6.4758 H   0  0  0  0  0  0  0  0  0  0  0  0
  -10.3338    5.7142    6.9908 H   0  0  0  0  0  0  0  0  0  0  0  0
   -9.5380    4.5006    7.9982 H   0  0  0  0  0  0  0  0  0  0  0  0
   -9.5127    6.2013    8.4769 H   0  0  0  0  0  0  0  0  0  0  0  0
   -5.1505   -6.1794    0.2434 H   0  0  0  0  0  0  0  0  0  0  0  0
   -5.2059   -6.7190    1.9156 H   0  0  0  0  0  0  0  0  0  0  0  0
   -3.2858   -4.5932    0.8306 H   0  0  0  0  0  0  0  0  0  0  0  0
   -2.8651   -6.2718    1.1909 H   0  0  0  0  0  0  0  0  0  0  0  0
   -3.3328   -5.1746    2.4926 H   0  0  0  0  0  0  0  0  0  0  0  0
   -5.3670   -1.0099    0.5710 H   0  0  0  0  0  0  0  0  0  0  0  0
   -3.6911   -0.5217   -0.9188 H   0  0  0  0  0  0  0  0  0  0  0  0
   -1.4103   -5.5629   -2.9124 H   0  0  0  0  0  0  0  0  0  0  0  0
   -1.6405   -5.0723   -1.2230 H   0  0  0  0  0  0  0  0  0  0  0  0
   -3.6314   -6.2981   -2.0569 H   0  0  0  0  0  0  0  0  0  0  0  0
   -4.0601   -4.6166   -1.7114 H   0  0  0  0  0  0  0  0  0  0  0  0
   -3.8109   -5.1410   -3.3784 H   0  0  0  0  0  0  0  0  0  0  0  0
    1.4846    8.0346   -0.4688 H   0  0  0  0  0  0  0  0  0  0  0  0
    0.0481    9.0355   -0.7615 H   0  0  0  0  0  0  0  0  0  0  0  0
   -0.8568    8.3756    1.4681 H   0  0  0  0  0  0  0  0  0  0  0  0
    0.5737    7.3810    1.7584 H   0  0  0  0  0  0  0  0  0  0  0  0
    0.7296    9.1367    1.6275 H   0  0  0  0  0  0  0  0  0  0  0  0
    1.3980    4.0676   -2.8383 H   0  0  0  0  0  0  0  0  0  0  0  0
    2.3699    4.9223   -4.4152 H   0  0  0  0  0  0  0  0  0  0  0  0
    2.3558    7.1585   -3.7128 H   0  0  0  0  0  0  0  0  0  0  0  0
    1.8584    6.9579   -5.4165 H   0  0  0  0  0  0  0  0  0  0  0  0
    2.5576    8.5009   -4.8673 H   0  0  0  0  0  0  0  0  0  0  0  0
    8.0883    7.3601   -6.2153 H   0  0  0  0  0  0  0  0  0  0  0  0
    8.2873    5.9240   -5.1815 H   0  0  0  0  0  0  0  0  0  0  0  0
    7.7969    5.7370   -6.8873 H   0  0  0  0  0  0  0  0  0  0  0  0
    7.1116    3.9509   -5.5272 H   0  0  0  0  0  0  0  0  0  0  0  0
    7.7979    2.2984   -6.5663 H   0  0  0  0  0  0  0  0  0  0  0  0
   12.2736    5.0922   -9.9025 H   0  0  0  0  0  0  0  0  0  0  0  0
   12.4030    3.5376  -10.7480 H   0  0  0  0  0  0  0  0  0  0  0  0
    9.8737    5.2467  -10.5525 H   0  0  0  0  0  0  0  0  0  0  0  0
   10.9024    5.0870  -11.9791 H   0  0  0  0  0  0  0  0  0  0  0  0
    9.9926    3.6932  -11.3858 H   0  0  0  0  0  0  0  0  0  0  0  0
    9.7178   -5.2242   -0.6587 H   0  0  0  0  0  0  0  0  0  0  0  0
    8.3430   -6.2161   -1.1815 H   0  0  0  0  0  0  0  0  0  0  0  0
   11.1848   -6.3861   -2.3030 H   0  0  0  0  0  0  0  0  0  0  0  0
   10.4490   -7.5387   -1.1863 H   0  0  0  0  0  0  0  0  0  0  0  0
    9.8156   -7.3780   -2.8269 H   0  0  0  0  0  0  0  0  0  0  0  0
   11.6622   -3.5103   -5.1723 H   0  0  0  0  0  0  0  0  0  0  0  0
   17.4247   -3.3775   -7.4064 H   0  0  0  0  0  0  0  0  0  0  0  0
   12.3438   -5.1367   -6.2053 H   0  0  0  0  0  0  0  0  0  0  0  0
   11.2325   -7.1384   -6.6483 H   0  0  0  0  0  0  0  0  0  0  0  0
   11.3401   -8.5386   -5.5521 H   0  0  0  0  0  0  0  0  0  0  0  0
   11.5386   -6.8899   -4.9066 H   0  0  0  0  0  0  0  0  0  0  0  0
   16.9509   -9.6763   -6.3719 H   0  0  0  0  0  0  0  0  0  0  0  0
   17.2552   -8.3703   -7.5451 H   0  0  0  0  0  0  0  0  0  0  0  0
   17.5916   -8.1112   -5.8102 H   0  0  0  0  0  0  0  0  0  0  0  0
   17.1744   -6.0861   -6.9518 H   0  0  0  0  0  0  0  0  0  0  0  0
  1  2  2  0  0  0  0
  2  3  1  0  0  0  0
  3  4  2  0  0  0  0
  4  5  1  0  0  0  0
  5  6  1  0  0  0  0
  6  7  1  0  0  0  0
  7  8  1  0  0  0  0
  8  9  1  0  0  0  0
  7 10  2  0  0  0  0
 10 11  1  0  0  0  0
 10 12  1  0  0  0  0
 12 13  1  0  0  0  0
  4 14  1  0  0  0  0
 14 15  2  0  0  0  0
 15 16  1  0  0  0  0
 16 17  1  0  0  0  0
 17 18  1  0  0  0  0
 18 19  1  0  0  0  0
 19 20  1  0  0  0  0
 20 21  1  0  0  0  0
 19 22  2  0  0  0  0
 22 23  1  0  0  0  0
 23 24  1  0  0  0  0
 22 25  1  0  0  0  0
 16 26  2  0  0  0  0
 26 27  1  0  0  0  0
 15 28  1  0  0  0  0
 28 29  2  0  0  0  0
 29 30  1  0  0  0  0
 29 31  1  0  0  0  0
 31 32  2  0  0  0  0
 32 33  1  0  0  0  0
 33 34  2  0  0  0  0
 34 35  1  0  0  0  0
 35 36  1  0  0  0  0
 36 37  1  0  0  0  0
 37 38  1  0  0  0  0
 38 39  1  0  0  0  0
 37 40  2  0  0  0  0
 40 41  1  0  0  0  0
 40 42  1  0  0  0  0
 42 43  1  0  0  0  0
 34 44  1  0  0  0  0
 44 45  2  0  0  0  0
 45 46  1  0  0  0  0
 46 47  1  0  0  0  0
 47 48  1  0  0  0  0
 48 49  1  0  0  0  0
 49 50  1  0  0  0  0
 50 51  1  0  0  0  0
 49 52  2  0  0  0  0
 52 53  1  0  0  0  0
 53 54  1  0  0  0  0
 52 55  1  0  0  0  0
 46 56  2  0  0  0  0
 56 57  1  0  0  0  0
 45 58  1  0  0  0  0
 58 59  2  0  0  0  0
 59 60  1  0  0  0  0
 59 61  1  0  0  0  0
 61 62  2  0  0  0  0
 62 63  1  0  0  0  0
 63 64  2  0  0  0  0
 64 65  1  0  0  0  0
 65 66  1  0  0  0  0
 66 67  1  0  0  0  0
 67 68  1  0  0  0  0
 68 69  1  0  0  0  0
 67 70  2  0  0  0  0
 70 71  1  0  0  0  0
 70 72  1  0  0  0  0
 72 73  1  0  0  0  0
 64 74  1  0  0  0  0
 74 75  2  0  0  0  0
 75 76  1  0  0  0  0
 76 77  1  0  0  0  0
 77 78  1  0  0  0  0
 78 79  1  0  0  0  0
 79 80  1  0  0  0  0
 80 81  1  0  0  0  0
 79 82  2  0  0  0  0
 82 83  1  0  0  0  0
 83 84  1  0  0  0  0
 82 85  1  0  0  0  0
 76 86  2  0  0  0  0
 86 87  1  0  0  0  0
 75 88  1  0  0  0  0
 88 89  2  0  0  0  0
 89 90  1  0  0  0  0
 89 91  1  0  0  0  0
 91 92  1  0  0  0  0
 92 93  1  0  0  0  0
 93 94  2  0  0  0  0
 94 95  1  0  0  0  0
 95 96  1  0  0  0  0
 96 97  2  0  0  0  0
 97 98  1  0  0  0  0
 98 99  1  0  0  0  0
 97100  1  0  0  0  0
100101  1  0  0  0  0
101102  1  0  0  0  0
100103  2  0  0  0  0
 93104  1  0  0  0  0
104105  2  0  0  0  0
105106  1  0  0  0  0
106107  2  0  0  0  0
107108  1  0  0  0  0
108109  1  0  0  0  0
109110  1  0  0  0  0
110111  1  0  0  0  0
111112  1  0  0  0  0
110113  2  0  0  0  0
113114  1  0  0  0  0
113115  1  0  0  0  0
115116  1  0  0  0  0
107117  1  0  0  0  0
117118  2  0  0  0  0
118119  1  0  0  0  0
119120  1  0  0  0  0
120121  1  0  0  0  0
121122  1  0  0  0  0
122123  1  0  0  0  0
123124  1  0  0  0  0
122125  2  0  0  0  0
125126  1  0  0  0  0
126127  1  0  0  0  0
125128  1  0  0  0  0
119129  2  0  0  0  0
129130  1  0  0  0  0
118131  1  0  0  0  0
131132  2  0  0  0  0
132133  1  0  0  0  0
132134  1  0  0  0  0
134135  1  0  0  0  0
135136  1  0  0  0  0
136137  2  0  0  0  0
137138  1  0  0  0  0
138139  1  0  0  0  0
139140  2  0  0  0  0
140141  1  0  0  0  0
141142  1  0  0  0  0
140143  1  0  0  0  0
143144  1  0  0  0  0
144145  1  0  0  0  0
143146  2  0  0  0  0
 27  1  1  0  0  0  0
 57 31  1  0  0  0  0
 87 61  1  0  0  0  0
 95 91  2  0  0  0  0
130104  1  0  0  0  0
138134  2  0  0  0  0
 26  3  1  0  0  0  0
 56 33  1  0  0  0  0
 86 63  1  0  0  0  0
103 94  1  0  0  0  0
129106  1  0  0  0  0
146137  1  0  0  0  0
 12  5  2  0  0  0  0
 30 14  1  0  0  0  0
 42 35  2  0  0  0  0
 60 44  1  0  0  0  0
 72 65  2  0  0  0  0
 90 74  1  0  0  0  0
115108  2  0  0  0  0
133117  1  0  0  0  0
 23 17  2  0  0  0  0
 53 47  2  0  0  0  0
 83 77  2  0  0  0  0
126120  2  0  0  0  0
  1147  1  0  0  0  0
  2148  1  0  0  0  0
  8149  1  0  0  0  0
  8150  1  0  0  0  0
  9151  1  0  0  0  0
  9152  1  0  0  0  0
  9153  1  0  0  0  0
 20154  1  0  0  0  0
 20155  1  0  0  0  0
 21156  1  0  0  0  0
 21157  1  0  0  0  0
 21158  1  0  0  0  0
 28159  1  0  0  0  0
 32160  1  0  0  0  0
 38161  1  0  0  0  0
 38162  1  0  0  0  0
 39163  1  0  0  0  0
 39164  1  0  0  0  0
 39165  1  0  0  0  0
 50166  1  0  0  0  0
 50167  1  0  0  0  0
 51168  1  0  0  0  0
 51169  1  0  0  0  0
 51170  1  0  0  0  0
 58171  1  0  0  0  0
 62172  1  0  0  0  0
 68173  1  0  0  0  0
 68174  1  0  0  0  0
 69175  1  0  0  0  0
 69176  1  0  0  0  0
 69177  1  0  0  0  0
 80178  1  0  0  0  0
 80179  1  0  0  0  0
 81180  1  0  0  0  0
 81181  1  0  0  0  0
 81182  1  0  0  0  0
 88183  1  0  0  0  0
 96184  1  0  0  0  0
 99185  1  0  0  0  0
 99186  1  0  0  0  0
 99187  1  0  0  0  0
102188  1  0  0  0  0
102189  1  0  0  0  0
102190  1  0  0  0  0
103191  1  0  0  0  0
105192  1  0  0  0  0
111193  1  0  0  0  0
111194  1  0  0  0  0
112195  1  0  0  0  0
112196  1  0  0  0  0
112197  1  0  0  0  0
123198  1  0  0  0  0
123199  1  0  0  0  0
124200  1  0  0  0  0
124201  1  0  0  0  0
124202  1  0  0  0  0
131203  1  0  0  0  0
136204  1  0  0  0  0
139205  1  0  0  0  0
142206  1  0  0  0  0
142207  1  0  0  0  0
142208  1  0  0  0  0
145209  1  0  0  0  0
145210  1  0  0  0  0
145211  1  0  0  0  0
146212  1  0  0  0  0
M  END
