84

C          7.30190       -3.52150       12.09210
C          6.73680       -2.58630       11.28790
C          6.35830       -3.25090       10.07140
C          6.74000       -4.64700       10.21360
O          6.64880       -5.60540        9.51030
O          7.31900       -4.72450       11.50050
C          5.78150       -2.30070        9.25870
O          5.77370       -1.09000        9.88300
C          6.35030       -1.18290       11.14880
O          6.45410       -0.24690       11.87810
C          5.23310       -2.40110        7.96290
C          4.63270       -1.44860        7.16060
C          4.24970       -2.09490        5.95820
C          4.65010       -3.49310        6.06140
O          4.55310       -4.42460        5.32410
O          5.24730       -3.59960        7.32320
C          3.62870       -1.14370        5.16150
O          3.61270        0.05490        5.80220
C          4.22030       -0.04760        7.05750
O          4.31840        0.88250        7.79250
C          3.05140       -1.26110        3.89150
C          2.38250       -0.34700        3.09260
C          1.97890       -1.01610        1.91140
C          2.44080       -2.38920        2.03820
O          2.34200       -3.34570        1.31270
O          3.08350       -2.46640        3.25140
C          1.26490       -0.09320        1.13650
O          1.23130        1.10390        1.80700
C          1.90470        1.02970        3.02310
O          1.99280        1.96520        3.75410
C          0.57500       -0.09700       -0.06910
S         -0.31910        1.36420       -0.42350
C         -0.98850        0.68530       -1.86510
C         -0.46170       -0.59410       -2.12420
C          0.41580       -1.05330       -1.10290
C          1.03150       -2.30060       -1.22390
C          0.79830       -3.08070       -2.33970
O          1.31780       -4.29100       -2.55320
C          2.21030       -4.83940       -1.60040
C         -0.03710       -2.58790       -3.40440
O         -0.14170       -3.41460       -4.46430
C         -0.89390       -2.99750       -5.57970
C         -0.64380       -1.36350       -3.29030
C         -1.94160        1.40890       -2.62180
S         -1.81010        3.12610       -2.77860
C         -3.19430        3.20460       -3.83250
C         -3.78540        1.93520       -3.99900
C         -3.07530        0.91950       -3.29500
C         -3.59410       -0.38920       -3.24270
C         -4.73650       -0.70040       -3.93330
O         -5.32460       -1.91260       -3.96090
C         -4.77710       -2.95250       -3.18440
C         -5.41300        0.31170       -4.70600
O         -6.50150       -0.12120       -5.35270
C         -7.27820        0.80720       -6.08470
C         -4.94670        1.60700       -4.71050
C         -3.49460        4.48100       -4.32760
C         -4.38900        5.03940       -5.22530
C         -4.11800        6.45600       -5.25890
C         -3.01830        6.71700       -4.34080
O         -2.44260        7.71370       -4.02790
O         -2.69010        5.47440       -3.81680
C         -4.97650        7.01530       -6.14280
O         -5.77620        6.07500       -6.68370
C         -5.46410        4.82180       -6.16510
O         -6.05630        3.83500       -6.52800
H          7.71810       -3.45710       13.08080
H          1.67500       -2.65350       -0.43820
H          1.75660       -4.91330       -0.61040
H          2.45480       -5.83250       -1.97150
H          3.12120       -4.24060       -1.52630
H         -0.83140       -3.81450       -6.29580
H         -0.47780       -2.08950       -6.02630
H         -1.94310       -2.82360       -5.31890
H         -1.24110       -0.96030       -4.09020
H         -3.09420       -1.12280       -2.63360
H         -3.75850       -3.20090       -3.50040
H         -4.77270       -2.69830       -2.12030
H         -5.42440       -3.81160       -3.34870
H         -6.69350        1.30200       -6.86240
H         -8.07720        0.22320       -6.53690
H         -7.70560        1.56830       -5.42760
H         -5.46350        2.37330       -5.25960
H         -5.11940        8.02730       -6.47000
