110

C         10.54160        1.50490        2.74080
S         11.68300        1.65060        1.45830
C         10.48960        1.32460        0.22560
C         10.84270        1.33950       -1.22020
C         11.04910        2.76810       -1.72710
C          9.28600        1.12840        0.81540
C          9.29880        1.22280        2.25690
N          8.10250        1.01240        2.85610
C          7.16800        0.76130        2.00180
S          7.68030        0.76320        0.26640
C          5.82580        0.48630        2.31620
S          4.67400        0.13710        1.07150
C          3.36890       -0.09570        2.20120
C          3.83280        0.11940        3.51610
C          5.21720        0.44090        3.57700
C          5.84730        0.67690        4.81230
C          5.11950        0.60670        5.96890
O          5.60850        0.80640        7.21570
C          6.97680        1.10800        7.34690
C          3.71310        0.31330        5.91610
O          3.09700        0.29780        7.12420
C          1.72300        0.00090        7.16970
C          3.09510        0.08190        4.71620
C          2.10030       -0.52030        1.76020
S          0.96300       -1.23640        2.86860
C         -0.19590       -1.59420        1.62590
C          0.28580       -1.17990        0.37560
C          1.56720       -0.55820        0.45700
C          2.15110       -0.03970       -0.71530
C          1.54960       -0.23100       -1.92890
O          2.02720        0.22070       -3.11530
C          3.25240        0.91340       -3.12070
C          0.32120       -0.97020       -2.02160
O         -0.09390       -1.19130       -3.29180
C         -1.18920       -2.05260       -3.49020
C         -0.31250       -1.39280       -0.88390
C         -1.40380       -2.21070        2.01660
S         -1.48640       -3.01270        3.57760
C         -3.18250       -3.39880        3.42110
C         -3.92330       -4.09400        4.50750
C         -4.09130       -3.19250        5.73190
C         -3.63550       -2.92540        2.23450
C         -2.65540       -2.25860        1.41810
N         -3.13730       -1.74490        0.27470
C         -4.40960       -1.94300        0.12640
S         -5.18780       -2.87700        1.45100
C         -5.10470       -1.42720       -0.98090
S         -4.15190       -0.47340       -2.07380
C         -5.50500       -0.19660       -3.12040
C         -6.66460       -0.80430       -2.62130
C         -6.43690       -1.51010       -1.40290
C         -7.50410       -2.18750       -0.78230
C         -8.75130       -2.16540       -1.34690
O         -9.84890       -2.77530       -0.84210
C         -9.71960       -3.49460        0.36040
C         -8.97990       -1.45560       -2.57780
O        -10.25510       -1.51780       -3.03100
C        -10.56910       -0.85160       -4.22930
C         -7.95270       -0.79290       -3.19260
C         -5.26490        0.54490       -4.29600
S         -6.45370        1.09130       -5.45370
C         -5.27030        1.86470       -6.48220
C         -5.66720        2.52210       -7.75540
C         -5.74870        1.50760       -8.89940
C         -4.03050        1.68530       -5.95060
C         -4.01250        0.95620       -4.72080
N         -2.78220        0.76580       -4.18290
C         -1.87140        1.28830       -4.90380
S         -2.39650        2.11500       -6.37480
H         10.85580        1.63380        3.75550
H         11.75780        0.76430       -1.38090
H         10.03130        0.86350       -1.77610
H         11.85690        3.24770       -1.17870
H         10.14180        3.35190       -1.58950
H         11.30110        2.75980       -2.78450
H          6.89830        0.90830        4.79690
H          7.60380        0.30100        6.95540
H          7.15200        1.21980        8.41570
H          7.23160        2.04110        6.83470
H          1.51130       -0.99020        6.75540
H          1.45490        0.01850        8.22470
H          1.13150        0.74950        6.63250
H          2.03880       -0.11410        4.68090
H          3.07020        0.51340       -0.64580
H          3.19020        1.84480       -2.54850
H          3.45470        1.14430       -4.16530
H          4.06430        0.29850       -2.71980
H         -1.26990       -2.18110       -4.56850
H         -1.01820       -3.02490       -3.01670
H         -2.11200       -1.61290       -3.10740
H         -1.27010       -1.88110       -0.92200
H         -3.38270       -4.99820        4.79910
H         -4.90340       -4.38550        4.12240
H         -4.64060       -2.29210        5.46620
H         -3.11740       -2.90280        6.12020
H         -4.63740       -3.71640        6.51200
H         -7.32050       -2.71750        0.13620
H        -10.71170       -3.88800        0.57480
H         -9.39860       -2.84750        1.18290
H         -9.01300       -4.32430        0.25770
H        -10.39140        0.22560       -4.14840
H         -9.99460       -1.24940       -5.07220
H        -11.62940       -1.03250       -4.39630
H         -8.10710       -0.25670       -4.11350
H         -4.92480        3.28610       -7.99810
H         -6.63840        3.00540       -7.63040
H         -6.03940        2.00540       -9.82060
H         -6.48370        0.73910       -8.67060
H         -4.78290        1.03120       -9.05060
H         -0.82690        1.23560       -4.66700
