100

C          1.31060        1.90380        6.76300
S          0.83840        3.45940        7.32690
C          1.11280        4.22600        5.77290
C          1.60180        3.27530        4.90460
C          1.68720        1.96810        5.45920
C          2.11920        1.06810        4.38840
O          2.26120       -0.11830        4.35530
O          2.33880        1.85830        3.27630
C          2.07250        3.19710        3.53000
O          2.24940        4.04320        2.70080
C          0.84050        5.62120        5.56990
C          0.36570        6.16960        4.42690
C         -0.14080        5.41850        3.32300
S         -1.00290        3.94750        3.60450
C         -0.95200        3.48680        1.92730
C         -0.37340        4.50570        1.15910
C          0.04670        5.61920        1.95350
C          0.69910        6.71170        1.34680
C          0.96260        6.69050        0.00530
O          1.56980        7.67190       -0.69480
C          2.02030        8.81050       -0.00080
C          0.61450        5.53260       -0.78070
O          0.99840        5.60790       -2.07430
C          0.80180        4.48900       -2.90280
C         -0.03910        4.47450       -0.20950
C         -1.19000        2.11650        1.66880
S         -0.81760        1.04260        2.97860
C         -0.97730       -0.36700        1.97340
C         -1.40970       -0.00550        0.68000
C         -1.56400        1.40070        0.52040
C         -2.12150        1.91370       -0.66780
C         -2.43410        1.06660       -1.69860
O         -2.98860        1.43420       -2.87790
C         -3.35120        2.78100       -3.05850
C         -2.19160       -0.34450       -1.57060
O         -2.50920       -1.06960       -2.66390
C         -2.33930       -2.46600       -2.62000
C         -1.71020       -0.86060       -0.39320
C         -0.60620       -1.60100        2.51190
S         -0.40920       -3.06290        1.55850
C          0.15710       -4.02760        2.91900
C          0.17610       -3.21180        4.03400
C         -0.25320       -1.89130        3.82790
C         -0.19620       -1.20560        5.10590
O         -0.50650       -0.08760        5.41990
O          0.27480       -2.11640        6.03050
C          0.53110       -3.34210        5.45070
O          0.94940       -4.27510        6.06730
C          0.64440       -5.35380        2.87260
C          0.64390       -6.27750        1.87650
C         -0.03220       -6.31810        0.62970
S         -1.53350       -5.51130        0.21620
C         -1.62000       -6.23190       -1.38120
C         -0.54070       -7.06810       -1.54990
C          0.31910       -7.13120       -0.43230
C          1.37000       -8.09750       -0.72880
O          2.30180       -8.47300       -0.08450
O          1.10180       -8.58350       -2.00430
C         -0.02530       -8.01480       -2.54550
O         -0.42870       -8.29500       -3.63670
C         -2.75480       -5.99500       -2.22120
C         -2.75730       -5.94590       -3.56830
C         -1.62810       -5.87730       -4.43830
S         -0.07100       -5.20240       -4.01380
C          0.60200       -5.44790       -5.60870
C         -0.35780       -6.01570       -6.41610
C         -1.59550       -6.22830       -5.76530
C         -2.52180       -6.81490       -6.73610
O         -3.67070       -7.11990       -6.63350
O         -1.81350       -6.94500       -7.91370
C         -0.51590       -6.48870       -7.79590
O          0.24770       -6.51060       -8.71400
C          1.96120       -5.06090       -5.85330
C          2.58840       -5.22160       -7.01880
H          1.26780        1.05410        7.41360
H          1.06180        6.26640        6.40910
H          0.36100        7.24790        4.33450
H          1.00010        7.53970        1.96570
H          2.75510        8.54520        0.76540
H          1.18930        9.35210        0.46260
H          2.49070        9.44410       -0.75050
H         -0.26320        4.26930       -3.03680
H          1.30620        3.60200       -2.50760
H          1.23570        4.75540       -3.86490
H         -0.26200        3.58860       -0.77770
H         -2.33700        2.96750       -0.72240
H         -4.08110        3.10450       -2.30980
H         -3.80000        2.83380       -4.04860
H         -2.47960        3.44350       -3.02180
H         -2.96070       -2.92190       -1.84290
H         -2.65720       -2.82990       -3.59530
H         -1.29270       -2.74050       -2.45300
H         -1.57840       -1.92190       -0.27370
H          1.15600       -5.62870        3.78810
H          1.26650       -7.15190        2.02840
H         -3.69760       -5.89140       -1.70080
H         -3.70740       -5.94450       -4.08720
H          2.46980       -4.62250       -5.00440
H          3.61360       -4.91770       -7.13900
H          2.10000       -5.66010       -7.87220
