118

C          3.42720        1.26400        5.09160
S          2.53890        0.66280        3.76770
C          2.09370        2.25220        3.23650
C          2.63210        3.21670        4.09780
C          3.41740        2.63940        5.15420
C          4.05810        3.48770        6.09670
S          5.04380        2.83750        7.41860
C          3.88750        4.83940        6.00570
C          3.11270        5.40350        4.97960
C          2.50110        4.62820        4.02690
O          1.77080        5.17940        3.02090
C          1.21130        2.48400        2.14810
C          0.84590        1.64050        1.15230
C          1.30340        0.31940        0.85440
S          0.07370       -0.81900        0.42330
C          1.16220       -2.17700        0.43130
C          2.48000       -1.72950        0.66690
C          2.55760       -0.30050        0.85290
C          3.83010        0.32250        0.94250
S          4.10290        2.06920        0.85750
C          4.95620       -0.45560        1.03390
C          4.87650       -1.84470        0.95660
C          3.68030       -2.48160        0.72230
O          3.65370       -3.82440        0.52290
C          0.50380       -3.40690        0.21010
C          0.94310       -4.69380        0.29100
C          0.09680       -5.79690        0.03700
S         -1.62000       -5.54860        0.03100
C         -1.97850       -7.20730       -0.29460
C         -0.78710       -7.95140       -0.36490
C          0.39570       -7.14940       -0.21200
C          1.65850       -7.77100       -0.36900
S          3.21350       -6.90700       -0.36940
C          1.73420       -9.12950       -0.53730
C          0.58340       -9.91880       -0.60350
C         -0.66620       -9.35320       -0.55140
O         -1.78630      -10.11870       -0.66750
C         -3.30760       -7.69320       -0.39930
C         -4.46240       -6.98530       -0.35080
C         -4.58980       -5.54590       -0.37670
S         -3.93870       -4.65740       -1.71110
C         -4.38770       -3.12050       -1.03670
C         -5.16440       -3.30990        0.11590
C         -5.25130       -4.69420        0.50430
C         -5.92440       -5.02830        1.71010
S         -5.98020       -6.66770        2.37750
C         -6.59870       -4.05570        2.39800
C         -6.62790       -2.73260        1.94150
C         -5.91960       -2.34520        0.83180
O         -5.96470       -1.06050        0.38210
C         -3.81310       -1.98240       -1.64710
C         -3.52800       -0.80140       -1.03780
C         -2.83550        0.26260       -1.64480
S         -2.30070        0.19810       -3.29900
C         -1.49610        1.73660       -3.18980
C         -1.68700        2.30420       -1.92620
C         -2.43370        1.46730       -1.04990
C         -2.68920        1.89920        0.26810
C         -2.22650        3.11530        0.69180
O         -2.37720        3.62280        1.94120
C         -2.97220        2.80950        2.92000
C         -1.50120        3.97520       -0.20880
O         -1.10720        5.15180        0.33820
C         -0.28910        5.99570       -0.43240
C         -1.24650        3.57290       -1.48950
C         -0.87910        2.32790       -4.33260
S         -1.74530        2.32730       -5.83490
C         -0.63140        3.41100       -6.59060
C          0.42680        3.70480       -5.73450
C          0.30800        3.05350       -4.45170
C          1.40120        3.11950       -3.54740
S          1.52260        2.14620       -2.06910
C          2.47910        3.90920       -3.84190
C          2.56080        4.60360       -5.05630
C          1.59110        4.47630       -6.01560
O          1.73070        5.04370       -7.24160
C         -0.98150        3.84870       -7.91940
C         -0.82110        5.06900       -8.42110
H          3.89420        0.56690        5.75900
H          5.43210        1.73260        6.78690
H          4.36220        5.48760        6.72570
H          3.01180        6.47960        4.93660
H          1.77380        6.14030        3.11250
H          0.75620        3.46390        2.14600
H          0.01850        1.96000        0.53350
H          2.96830        2.37480        0.23740
H          5.91990        0.02020        1.12690
H          5.78370       -2.43020        1.01940
H          4.54620       -4.18560        0.60230
H         -0.54010       -3.27070       -0.06130
H          1.95810       -4.89670        0.57720
H          2.81820       -5.87150       -1.10620
H          2.70260       -9.59470       -0.63600
H          0.68340      -10.98800       -0.73210
H         -1.52880      -11.04210       -0.78460
H         -3.38870       -8.76700       -0.46500
H         -5.39330       -7.54090       -0.34090
H         -4.85920       -7.09410        1.79230
H         -7.12970       -4.31750        3.29980
H         -7.21610       -2.00370        2.48250
H         -6.59910       -0.56190        0.91220
H         -3.45890       -2.13320       -2.66090
H         -3.80200       -0.65830       -0.00610
H         -3.24130        1.25230        0.92790
H         -2.42080        1.87220        3.04910
H         -2.93180        3.38300        3.84440
H         -4.01700        2.58670        2.67810
H          0.63410        5.48970       -0.73350
H         -0.81040        6.35970       -1.32410
H         -0.04670        6.83910        0.21160
H         -0.71360        4.20220       -2.18250
H          0.61480        1.23490       -2.40540
H          3.30270        3.95960       -3.14670
H          3.44160        5.19690       -5.26070
H          2.59280        5.47520       -7.29670
H         -1.50430        3.09920       -8.50280
H         -0.36230        5.86370       -7.86270
H         -1.14540        5.30160       -9.42010
