
  xtb     03022200083D
 energy: -317.525268822905 gnorm: 0.000260807822 xtb: 6.4.1 (unknown)
170187  0     0  0            999 V2000
    6.9439   -5.7382   12.4220 C   0  0  0  0  0  0  0  0  0  0  0  0
    5.5536   -5.2478   11.5644 S   0  0  0  0  0  0  0  0  0  0  0  0
    6.4055   -5.2205   10.0465 C   0  0  0  0  0  0  0  0  0  0  0  0
    7.7384   -5.5875   10.2317 C   0  0  0  0  0  0  0  0  0  0  0  0
    8.0381   -5.8824   11.6015 C   0  0  0  0  0  0  0  0  0  0  0  0
    9.3495   -6.2694   11.9760 C   0  0  0  0  0  0  0  0  0  0  0  0
   10.3263   -6.3540   11.0296 C   0  0  0  0  0  0  0  0  0  0  0  0
   11.6165   -6.7086   11.2517 O   0  0  0  0  0  0  0  0  0  0  0  0
   12.0004   -7.0259   12.5659 C   0  0  0  0  0  0  0  0  0  0  0  0
   10.0287   -6.0482    9.6495 C   0  0  0  0  0  0  0  0  0  0  0  0
   11.0896   -6.1626    8.8147 O   0  0  0  0  0  0  0  0  0  0  0  0
   10.8966   -5.8829    7.4497 C   0  0  0  0  0  0  0  0  0  0  0  0
    8.7695   -5.6783    9.2714 C   0  0  0  0  0  0  0  0  0  0  0  0
    5.6930   -4.8464    8.8758 C   0  0  0  0  0  0  0  0  0  0  0  0
    4.4102   -4.3727    8.8252 C   0  0  0  0  0  0  0  0  0  0  0  0
    3.9515   -4.0777    7.5213 C   0  0  0  0  0  0  0  0  0  0  0  0
    2.6916   -3.5851    7.1314 C   0  0  0  0  0  0  0  0  0  0  0  0
    1.6148   -3.4465    8.0948 C   0  0  0  0  0  0  0  0  0  0  0  0
    0.7058   -1.9727    8.2504 S   0  0  0  0  0  0  0  0  0  0  0  0
   -0.2897   -2.6274    9.5050 C   0  0  0  0  0  0  0  0  0  0  0  0
   -1.3321   -1.8023   10.1750 C   0  0  0  0  0  0  0  0  0  0  0  0
   -0.7362   -1.0050   11.3377 C   0  0  0  0  0  0  0  0  0  0  0  0
    0.0756   -3.9116    9.7790 C   0  0  0  0  0  0  0  0  0  0  0  0
   -0.6867   -4.8905   10.9648 Cl  0  0  0  0  0  0  0  0  0  0  0  0
    1.1505   -4.3819    8.9794 C   0  0  0  0  0  0  0  0  0  0  0  0
    1.7297   -5.9950    9.0733 Cl  0  0  0  0  0  0  0  0  0  0  0  0
    2.5317   -3.2548    5.7920 C   0  0  0  0  0  0  0  0  0  0  0  0
    3.5445   -3.4628    4.8246 C   0  0  0  0  0  0  0  0  0  0  0  0
    4.7676   -4.0534    5.1953 C   0  0  0  0  0  0  0  0  0  0  0  0
    5.7743   -4.3716    4.1990 C   0  0  0  0  0  0  0  0  0  0  0  0
    7.4399   -3.9155    4.4112 S   0  0  0  0  0  0  0  0  0  0  0  0
    7.9053   -4.5947    2.8879 C   0  0  0  0  0  0  0  0  0  0  0  0
    9.3259   -4.5796    2.4427 C   0  0  0  0  0  0  0  0  0  0  0  0
   10.1356   -5.6603    3.1630 C   0  0  0  0  0  0  0  0  0  0  0  0
    6.8254   -5.1499    2.2704 C   0  0  0  0  0  0  0  0  0  0  0  0
    5.6169   -5.0268    3.0074 C   0  0  0  0  0  0  0  0  0  0  0  0
    4.1450   -5.7283    2.4641 Cl  0  0  0  0  0  0  0  0  0  0  0  0
    6.8870   -5.9205    0.7384 Cl  0  0  0  0  0  0  0  0  0  0  0  0
    4.9503   -4.3107    6.5452 C   0  0  0  0  0  0  0  0  0  0  0  0
    6.3955   -4.9533    7.2692 S   0  0  0  0  0  0  0  0  0  0  0  0
    3.1564   -3.0039    3.5461 C   0  0  0  0  0  0  0  0  0  0  0  0
    1.8840   -2.5103    3.5043 C   0  0  0  0  0  0  0  0  0  0  0  0
    1.1041   -2.5647    5.0703 S   0  0  0  0  0  0  0  0  0  0  0  0
    1.2163   -2.0170    2.3447 C   0  0  0  0  0  0  0  0  0  0  0  0
    1.6406   -2.1646    1.0549 C   0  0  0  0  0  0  0  0  0  0  0  0
    0.7781   -1.5783    0.1028 C   0  0  0  0  0  0  0  0  0  0  0  0
    0.9403   -1.5333   -1.2970 C   0  0  0  0  0  0  0  0  0  0  0  0
    2.0536   -2.2104   -1.9405 C   0  0  0  0  0  0  0  0  0  0  0  0
    2.3983   -3.8814   -1.5870 S   0  0  0  0  0  0  0  0  0  0  0  0
    3.7449   -3.9213   -2.6714 C   0  0  0  0  0  0  0  0  0  0  0  0
    4.5352   -5.1661   -2.8787 C   0  0  0  0  0  0  0  0  0  0  0  0
    3.9340   -6.0206   -3.9968 C   0  0  0  0  0  0  0  0  0  0  0  0
    3.8961   -2.7102   -3.2769 C   0  0  0  0  0  0  0  0  0  0  0  0
    5.1243   -2.3645   -4.4252 Cl  0  0  0  0  0  0  0  0  0  0  0  0
    2.9463   -1.7375   -2.8626 C   0  0  0  0  0  0  0  0  0  0  0  0
    3.0118   -0.1146   -3.4112 Cl  0  0  0  0  0  0  0  0  0  0  0  0
   -0.0218   -0.8408   -2.0134 C   0  0  0  0  0  0  0  0  0  0  0  0
   -1.1323   -0.1983   -1.4054 C   0  0  0  0  0  0  0  0  0  0  0  0
   -1.2866   -0.2385   -0.0058 C   0  0  0  0  0  0  0  0  0  0  0  0
   -2.3969    0.4286    0.6502 C   0  0  0  0  0  0  0  0  0  0  0  0
   -3.3995   -0.4170    1.7940 S   0  0  0  0  0  0  0  0  0  0  0  0
   -4.3885    0.9744    2.0784 C   0  0  0  0  0  0  0  0  0  0  0  0
   -5.5556    0.9148    3.0008 C   0  0  0  0  0  0  0  0  0  0  0  0
   -6.7448    0.2139    2.3406 C   0  0  0  0  0  0  0  0  0  0  0  0
   -3.9582    2.0214    1.3205 C   0  0  0  0  0  0  0  0  0  0  0  0
   -2.8282    1.7197    0.5141 C   0  0  0  0  0  0  0  0  0  0  0  0
   -2.0542    2.9088   -0.4546 Cl  0  0  0  0  0  0  0  0  0  0  0  0
   -4.6829    3.5777    1.3384 Cl  0  0  0  0  0  0  0  0  0  0  0  0
   -0.3318   -0.9465    0.7128 C   0  0  0  0  0  0  0  0  0  0  0  0
   -0.2884   -1.1292    2.4450 S   0  0  0  0  0  0  0  0  0  0  0  0
   -1.9852    0.3903   -2.3590 C   0  0  0  0  0  0  0  0  0  0  0  0
   -1.5639    0.2515   -3.6592 C   0  0  0  0  0  0  0  0  0  0  0  0
   -0.0844   -0.6896   -3.7451 S   0  0  0  0  0  0  0  0  0  0  0  0
   -2.1737    0.8363   -4.7905 C   0  0  0  0  0  0  0  0  0  0  0  0
   -3.4592    1.9752   -4.5217 S   0  0  0  0  0  0  0  0  0  0  0  0
   -3.6490    2.3389   -6.2141 C   0  0  0  0  0  0  0  0  0  0  0  0
   -2.7519    1.5506   -6.9641 C   0  0  0  0  0  0  0  0  0  0  0  0
   -1.9129    0.7232   -6.1594 C   0  0  0  0  0  0  0  0  0  0  0  0
   -0.9407   -0.0963   -6.7668 C   0  0  0  0  0  0  0  0  0  0  0  0
   -0.7952   -0.1066   -8.1262 C   0  0  0  0  0  0  0  0  0  0  0  0
    0.1158   -0.8382   -8.8095 O   0  0  0  0  0  0  0  0  0  0  0  0
    1.0192   -1.6291   -8.0752 C   0  0  0  0  0  0  0  0  0  0  0  0
   -1.6631    0.6947   -8.9433 C   0  0  0  0  0  0  0  0  0  0  0  0
   -1.4511    0.5739  -10.2769 O   0  0  0  0  0  0  0  0  0  0  0  0
   -2.2471    1.3343  -11.1522 C   0  0  0  0  0  0  0  0  0  0  0  0
   -2.6140    1.4919   -8.3659 C   0  0  0  0  0  0  0  0  0  0  0  0
   -4.5374    3.3506   -6.6348 C   0  0  0  0  0  0  0  0  0  0  0  0
   -4.5282    3.9201   -8.2857 S   0  0  0  0  0  0  0  0  0  0  0  0
   -5.7177    5.1440   -7.9905 C   0  0  0  0  0  0  0  0  0  0  0  0
   -6.0880    5.1422   -6.6449 C   0  0  0  0  0  0  0  0  0  0  0  0
   -5.4526    4.1162   -5.8845 C   0  0  0  0  0  0  0  0  0  0  0  0
   -5.7853    3.9920   -4.5198 C   0  0  0  0  0  0  0  0  0  0  0  0
   -6.6378    4.8805   -3.9216 C   0  0  0  0  0  0  0  0  0  0  0  0
   -7.0084    4.8461   -2.6201 O   0  0  0  0  0  0  0  0  0  0  0  0
   -6.4265    3.8760   -1.7828 C   0  0  0  0  0  0  0  0  0  0  0  0
   -7.1944    5.9726   -4.6734 C   0  0  0  0  0  0  0  0  0  0  0  0
   -7.9738    6.8199   -3.9535 O   0  0  0  0  0  0  0  0  0  0  0  0
   -8.4978    7.9516   -4.6013 C   0  0  0  0  0  0  0  0  0  0  0  0
   -6.9204    6.0885   -6.0055 C   0  0  0  0  0  0  0  0  0  0  0  0
   -6.1634    5.9820   -9.0472 C   0  0  0  0  0  0  0  0  0  0  0  0
   -5.0452    6.5290  -10.2643 S   0  0  0  0  0  0  0  0  0  0  0  0
   -6.2422    7.4630  -11.0491 C   0  0  0  0  0  0  0  0  0  0  0  0
   -7.4685    7.3572  -10.4359 C   0  0  0  0  0  0  0  0  0  0  0  0
   -7.4376    6.4891   -9.2975 C   0  0  0  0  0  0  0  0  0  0  0  0
   -8.6462    6.1780   -8.6324 C   0  0  0  0  0  0  0  0  0  0  0  0
   -9.8103    6.7741   -9.0223 C   0  0  0  0  0  0  0  0  0  0  0  0
  -11.0280    6.5598   -8.4597 O   0  0  0  0  0  0  0  0  0  0  0  0
  -11.1246    5.6235   -7.4163 C   0  0  0  0  0  0  0  0  0  0  0  0
   -9.8263    7.7147  -10.1190 C   0  0  0  0  0  0  0  0  0  0  0  0
  -11.0490    8.2483  -10.3697 O   0  0  0  0  0  0  0  0  0  0  0  0
  -11.1708    9.1541  -11.4371 C   0  0  0  0  0  0  0  0  0  0  0  0
   -8.6852    7.9794  -10.8153 C   0  0  0  0  0  0  0  0  0  0  0  0
    6.8874   -5.8942   13.4807 H   0  0  0  0  0  0  0  0  0  0  0  0
    9.5389   -6.4869   13.0143 H   0  0  0  0  0  0  0  0  0  0  0  0
   13.0580   -7.2779   12.5116 H   0  0  0  0  0  0  0  0  0  0  0  0
   11.4415   -7.8854   12.9509 H   0  0  0  0  0  0  0  0  0  0  0  0
   11.8642   -6.1744   13.2409 H   0  0  0  0  0  0  0  0  0  0  0  0
   11.8669   -6.0347    6.9796 H   0  0  0  0  0  0  0  0  0  0  0  0
   10.1635   -6.5615    7.0012 H   0  0  0  0  0  0  0  0  0  0  0  0
   10.5724   -4.8487    7.2931 H   0  0  0  0  0  0  0  0  0  0  0  0
    8.5503   -5.4468    8.2443 H   0  0  0  0  0  0  0  0  0  0  0  0
    3.8227   -4.2143    9.7112 H   0  0  0  0  0  0  0  0  0  0  0  0
   -2.1152   -2.4640   10.5500 H   0  0  0  0  0  0  0  0  0  0  0  0
   -1.7701   -1.1154    9.4492 H   0  0  0  0  0  0  0  0  0  0  0  0
   -0.3087   -1.6786   12.0760 H   0  0  0  0  0  0  0  0  0  0  0  0
    0.0462   -0.3415   10.9774 H   0  0  0  0  0  0  0  0  0  0  0  0
   -1.5083   -0.4083   11.8159 H   0  0  0  0  0  0  0  0  0  0  0  0
    9.3566   -4.7517    1.3655 H   0  0  0  0  0  0  0  0  0  0  0  0
    9.7622   -3.6014    2.6532 H   0  0  0  0  0  0  0  0  0  0  0  0
   10.1110   -5.4955    4.2379 H   0  0  0  0  0  0  0  0  0  0  0  0
    9.7229   -6.6436    2.9519 H   0  0  0  0  0  0  0  0  0  0  0  0
   11.1693   -5.6374    2.8290 H   0  0  0  0  0  0  0  0  0  0  0  0
    3.8100   -3.0068    2.6948 H   0  0  0  0  0  0  0  0  0  0  0  0
    2.5433   -2.6839    0.7954 H   0  0  0  0  0  0  0  0  0  0  0  0
    5.5592   -4.8916   -3.1402 H   0  0  0  0  0  0  0  0  0  0  0  0
    4.5534   -5.7399   -1.9507 H   0  0  0  0  0  0  0  0  0  0  0  0
    4.5230   -6.9236   -4.1332 H   0  0  0  0  0  0  0  0  0  0  0  0
    3.9247   -5.4655   -4.9315 H   0  0  0  0  0  0  0  0  0  0  0  0
    2.9135   -6.3031   -3.7491 H   0  0  0  0  0  0  0  0  0  0  0  0
   -5.8345    1.9335    3.2759 H   0  0  0  0  0  0  0  0  0  0  0  0
   -5.2738    0.3725    3.9054 H   0  0  0  0  0  0  0  0  0  0  0  0
   -7.5867    0.1803    3.0268 H   0  0  0  0  0  0  0  0  0  0  0  0
   -7.0474    0.7481    1.4433 H   0  0  0  0  0  0  0  0  0  0  0  0
   -6.4761   -0.8034    2.0663 H   0  0  0  0  0  0  0  0  0  0  0  0
   -2.8973    0.9007   -2.1102 H   0  0  0  0  0  0  0  0  0  0  0  0
   -0.3172   -0.7112   -6.1425 H   0  0  0  0  0  0  0  0  0  0  0  0
    0.5009   -2.4056   -7.5034 H   0  0  0  0  0  0  0  0  0  0  0  0
    1.6679   -2.0961   -8.8142 H   0  0  0  0  0  0  0  0  0  0  0  0
    1.6219   -1.0218   -7.3924 H   0  0  0  0  0  0  0  0  0  0  0  0
   -3.3054    1.0654  -11.0700 H   0  0  0  0  0  0  0  0  0  0  0  0
   -2.1333    2.4079  -10.9703 H   0  0  0  0  0  0  0  0  0  0  0  0
   -1.8909    1.0960  -12.1529 H   0  0  0  0  0  0  0  0  0  0  0  0
   -3.2745    2.0691   -8.9861 H   0  0  0  0  0  0  0  0  0  0  0  0
   -5.3683    3.1868   -3.9446 H   0  0  0  0  0  0  0  0  0  0  0  0
   -6.7017    2.8612   -2.0888 H   0  0  0  0  0  0  0  0  0  0  0  0
   -6.8216    4.0726   -0.7878 H   0  0  0  0  0  0  0  0  0  0  0  0
   -5.3359    3.9637   -1.7645 H   0  0  0  0  0  0  0  0  0  0  0  0
   -9.1680    7.6768   -5.4234 H   0  0  0  0  0  0  0  0  0  0  0  0
   -7.7027    8.5963   -4.9899 H   0  0  0  0  0  0  0  0  0  0  0  0
   -9.0624    8.4903   -3.8423 H   0  0  0  0  0  0  0  0  0  0  0  0
   -7.3016    6.9090   -6.5892 H   0  0  0  0  0  0  0  0  0  0  0  0
   -5.9836    8.0361  -11.9166 H   0  0  0  0  0  0  0  0  0  0  0  0
   -8.6255    5.4514   -7.8376 H   0  0  0  0  0  0  0  0  0  0  0  0
  -10.8250    4.6228   -7.7443 H   0  0  0  0  0  0  0  0  0  0  0  0
  -12.1745    5.6110   -7.1288 H   0  0  0  0  0  0  0  0  0  0  0  0
  -10.5164    5.9128   -6.5521 H   0  0  0  0  0  0  0  0  0  0  0  0
  -10.9123    8.6858  -12.3926 H   0  0  0  0  0  0  0  0  0  0  0  0
  -10.5430   10.0388  -11.2869 H   0  0  0  0  0  0  0  0  0  0  0  0
  -12.2176    9.4524  -11.4527 H   0  0  0  0  0  0  0  0  0  0  0  0
   -8.6737    8.6481  -11.6602 H   0  0  0  0  0  0  0  0  0  0  0  0
  1  2  1  0  0  0  0
  2  3  1  0  0  0  0
  3  4  2  0  0  0  0
  4  5  1  0  0  0  0
  5  6  1  0  0  0  0
  6  7  2  0  0  0  0
  7  8  1  0  0  0  0
  8  9  1  0  0  0  0
  7 10  1  0  0  0  0
 10 11  1  0  0  0  0
 11 12  1  0  0  0  0
 10 13  2  0  0  0  0
  3 14  1  0  0  0  0
 14 15  2  0  0  0  0
 15 16  1  0  0  0  0
 16 17  2  0  0  0  0
 17 18  1  0  0  0  0
 18 19  1  0  0  0  0
 19 20  1  0  0  0  0
 20 21  1  0  0  0  0
 21 22  1  0  0  0  0
 20 23  2  0  0  0  0
 23 24  1  0  0  0  0
 23 25  1  0  0  0  0
 25 26  1  0  0  0  0
 17 27  1  0  0  0  0
 27 28  2  0  0  0  0
 28 29  1  0  0  0  0
 29 30  1  0  0  0  0
 30 31  1  0  0  0  0
 31 32  1  0  0  0  0
 32 33  1  0  0  0  0
 33 34  1  0  0  0  0
 32 35  2  0  0  0  0
 35 36  1  0  0  0  0
 36 37  1  0  0  0  0
 35 38  1  0  0  0  0
 29 39  2  0  0  0  0
 39 40  1  0  0  0  0
 28 41  1  0  0  0  0
 41 42  2  0  0  0  0
 42 43  1  0  0  0  0
 42 44  1  0  0  0  0
 44 45  2  0  0  0  0
 45 46  1  0  0  0  0
 46 47  2  0  0  0  0
 47 48  1  0  0  0  0
 48 49  1  0  0  0  0
 49 50  1  0  0  0  0
 50 51  1  0  0  0  0
 51 52  1  0  0  0  0
 50 53  2  0  0  0  0
 53 54  1  0  0  0  0
 53 55  1  0  0  0  0
 55 56  1  0  0  0  0
 47 57  1  0  0  0  0
 57 58  2  0  0  0  0
 58 59  1  0  0  0  0
 59 60  1  0  0  0  0
 60 61  1  0  0  0  0
 61 62  1  0  0  0  0
 62 63  1  0  0  0  0
 63 64  1  0  0  0  0
 62 65  2  0  0  0  0
 65 66  1  0  0  0  0
 66 67  1  0  0  0  0
 65 68  1  0  0  0  0
 59 69  2  0  0  0  0
 69 70  1  0  0  0  0
 58 71  1  0  0  0  0
 71 72  2  0  0  0  0
 72 73  1  0  0  0  0
 72 74  1  0  0  0  0
 74 75  1  0  0  0  0
 75 76  1  0  0  0  0
 76 77  2  0  0  0  0
 77 78  1  0  0  0  0
 78 79  1  0  0  0  0
 79 80  2  0  0  0  0
 80 81  1  0  0  0  0
 81 82  1  0  0  0  0
 80 83  1  0  0  0  0
 83 84  1  0  0  0  0
 84 85  1  0  0  0  0
 83 86  2  0  0  0  0
 76 87  1  0  0  0  0
 87 88  1  0  0  0  0
 88 89  1  0  0  0  0
 89 90  2  0  0  0  0
 90 91  1  0  0  0  0
 91 92  1  0  0  0  0
 92 93  2  0  0  0  0
 93 94  1  0  0  0  0
 94 95  1  0  0  0  0
 93 96  1  0  0  0  0
 96 97  1  0  0  0  0
 97 98  1  0  0  0  0
 96 99  2  0  0  0  0
 89100  1  0  0  0  0
100101  1  0  0  0  0
101102  1  0  0  0  0
102103  2  0  0  0  0
103104  1  0  0  0  0
104105  1  0  0  0  0
105106  2  0  0  0  0
106107  1  0  0  0  0
107108  1  0  0  0  0
106109  1  0  0  0  0
109110  1  0  0  0  0
110111  1  0  0  0  0
109112  2  0  0  0  0
  5  1  2  0  0  0  0
 40 14  1  0  0  0  0
 70 44  1  0  0  0  0
 78 74  2  0  0  0  0
 91 87  2  0  0  0  0
104100  2  0  0  0  0
 13  4  1  0  0  0  0
 39 16  1  0  0  0  0
 69 46  1  0  0  0  0
 86 77  1  0  0  0  0
 99 90  1  0  0  0  0
112103  1  0  0  0  0
 25 18  2  0  0  0  0
 43 27  1  0  0  0  0
 55 48  2  0  0  0  0
 73 57  1  0  0  0  0
 36 30  2  0  0  0  0
 66 60  2  0  0  0  0
  1113  1  0  0  0  0
  6114  1  0  0  0  0
  9115  1  0  0  0  0
  9116  1  0  0  0  0
  9117  1  0  0  0  0
 12118  1  0  0  0  0
 12119  1  0  0  0  0
 12120  1  0  0  0  0
 13121  1  0  0  0  0
 15122  1  0  0  0  0
 21123  1  0  0  0  0
 21124  1  0  0  0  0
 22125  1  0  0  0  0
 22126  1  0  0  0  0
 22127  1  0  0  0  0
 33128  1  0  0  0  0
 33129  1  0  0  0  0
 34130  1  0  0  0  0
 34131  1  0  0  0  0
 34132  1  0  0  0  0
 41133  1  0  0  0  0
 45134  1  0  0  0  0
 51135  1  0  0  0  0
 51136  1  0  0  0  0
 52137  1  0  0  0  0
 52138  1  0  0  0  0
 52139  1  0  0  0  0
 63140  1  0  0  0  0
 63141  1  0  0  0  0
 64142  1  0  0  0  0
 64143  1  0  0  0  0
 64144  1  0  0  0  0
 71145  1  0  0  0  0
 79146  1  0  0  0  0
 82147  1  0  0  0  0
 82148  1  0  0  0  0
 82149  1  0  0  0  0
 85150  1  0  0  0  0
 85151  1  0  0  0  0
 85152  1  0  0  0  0
 86153  1  0  0  0  0
 92154  1  0  0  0  0
 95155  1  0  0  0  0
 95156  1  0  0  0  0
 95157  1  0  0  0  0
 98158  1  0  0  0  0
 98159  1  0  0  0  0
 98160  1  0  0  0  0
 99161  1  0  0  0  0
102162  1  0  0  0  0
105163  1  0  0  0  0
108164  1  0  0  0  0
108165  1  0  0  0  0
108166  1  0  0  0  0
111167  1  0  0  0  0
111168  1  0  0  0  0
111169  1  0  0  0  0
112170  1  0  0  0  0
M  END
