144

C          8.72600        7.42730        4.30190
C          9.79650        8.24660        4.29230
S          9.45730        9.84940        3.72250
C          7.79630        9.40940        3.47340
C          7.53740        8.06410        3.83040
C          6.23740        7.56210        3.69020
C          5.97230        6.14280        4.09980
C          6.22350        5.19100        2.92700
C          5.27010        8.42210        3.15550
C          5.68490        9.75400        2.86990
N          6.89320       10.24880        3.01830
S          4.39180       10.75240        2.28390
C          3.31550        9.41480        2.39300
C          3.86290        8.24970        2.85010
C          3.10060        7.02490        2.93280
C          1.75280        6.96780        2.91960
C          0.96440        5.77950        2.93570
S         -0.60830        5.85780        2.19640
C         -0.92660        4.17830        2.47450
C          0.15570        3.57750        3.11540
C          1.21170        4.49220        3.41430
C          2.30100        4.03870        4.19690
C          2.38080        2.72850        4.57330
O          3.34370        2.18830        5.36390
C          4.30440        3.04270        5.92970
C          1.39650        1.77770        4.11930
O          1.64990        0.49220        4.47690
C          0.75820       -0.50460        4.04540
C          0.30920        2.20340        3.41540
C         -2.15280        3.57620        2.07130
S         -2.87980        3.96480        0.54120
C         -4.13700        2.79650        0.75370
C         -4.03880        2.17960        1.98780
C         -2.91480        2.62770        2.74760
C         -2.73840        2.15080        4.06850
C         -3.59450        1.21840        4.57630
O         -3.52080        0.68230        5.82150
C         -2.51480        1.14590        6.68680
C         -4.69760        0.72170        3.78500
O         -5.45310       -0.21260        4.41400
C         -6.56460       -0.73590        3.73150
C         -4.91850        1.20760        2.53100
C         -5.17320        2.61030       -0.25240
C         -6.08250        3.58770       -0.49880
S         -7.29380        3.18020       -1.65950
C         -6.56160        1.62020       -1.86700
C         -5.40130        1.44180       -1.06750
C         -4.67220        0.25390       -1.22250
C         -3.41150       -0.00710       -0.45410
C         -2.20980        0.65100       -1.13660
C         -5.15910       -0.67630       -2.15010
C         -6.38880       -0.39130       -2.79860
N         -7.07020        0.72570       -2.68510
S         -6.93850       -1.69780       -3.80180
C         -5.52510       -2.60150       -3.38850
C         -4.66310       -1.97210       -2.54750
C         -3.37840       -2.55560       -2.18970
C         -3.20300       -3.84350       -1.88210
C         -1.90230       -4.39130       -1.51800
C         -1.08060       -3.72830       -0.66160
S          0.39670       -4.53800       -0.28100
C         -0.05870       -5.84120       -1.33150
C         -1.31990       -5.63750       -1.95210
C         -1.74470       -6.57710       -2.90140
C         -3.06950       -6.42800       -3.58770
C         -4.15970       -7.15700       -2.79780
C         -0.90120       -7.66970       -3.14820
C          0.30050       -7.76170       -2.39360
N          0.72460       -6.87820       -1.51910
S          1.22360       -9.18360       -2.75960
C          0.05340       -9.62350       -3.94720
C         -0.99120       -8.76550       -4.08190
C         -1.98420       -8.96940       -5.13970
C         -1.65020       -9.19940       -6.41340
C         -0.26990       -9.28790       -6.89060
C          0.17110      -10.39560       -7.54140
S          1.88970      -10.49960       -7.71430
C          2.06660       -8.99750       -6.85570
C          0.81710       -8.40760       -6.54580
C          0.81900       -7.09560       -6.04900
C         -0.38570       -6.21740       -6.21130
C         -0.68720       -6.04020       -7.70290
C          2.04820       -6.60510       -5.59540
C          3.21620       -7.34610       -5.91800
N          3.24360       -8.47070       -6.59900
S          4.66810       -6.54430       -5.40630
C          3.72480       -5.27820       -4.70620
C          2.38160       -5.40920       -4.86350
C          1.42890       -4.52110       -4.21110
C          1.61420       -3.22240       -4.01710
H          8.77800        6.40200        4.62080
H         10.80020        8.01270        4.58980
H          4.95070        6.05100        4.46600
H          6.63750        5.87950        4.92430
H          6.01120        4.16190        3.21040
H          5.59940        5.45010        2.07440
H          7.26290        5.25350        2.61270
H          2.30570        9.56250        2.06500
H          3.64920        6.10020        2.93620
H          1.18180        7.88280        2.83470
H          3.03550        4.75340        4.52380
H          4.91660        2.41230        6.57250
H          4.93840        3.49990        5.16380
H          3.83870        3.83090        6.53080
H         -0.25010       -0.34970        4.44570
H          1.15700       -1.44260        4.42730
H          0.70590       -0.55060        2.95270
H         -0.44620        1.51630        3.07380
H         -1.93220        2.55550        4.65670
H         -2.65130        0.59740        7.61710
H         -2.61360        2.21920        6.87910
H         -1.51320        0.94430        6.29110
H         -7.29570        0.04440        3.49590
H         -7.01390       -1.45860        4.41030
H         -6.26660       -1.24180        2.80670
H         -5.75400        0.88390        1.93140
H         -6.11570        4.55290       -0.03110
H         -3.25770       -1.08430       -0.37710
H         -3.50570        0.38760        0.55500
H         -1.29790        0.43070       -0.58590
H         -2.09650        0.29450       -2.15850
H         -2.33760        1.72970       -1.17150
H         -5.38440       -3.56290       -3.84370
H         -2.51830       -1.90390       -2.24560
H         -4.05660       -4.50340       -1.82560
H         -1.28560       -2.78990       -0.18330
H         -3.31270       -5.36830       -3.67540
H         -3.02260       -6.84190       -4.59450
H         -3.94120       -8.22140       -2.74180
H         -5.12730       -7.02500       -3.27710
H         -4.21960       -6.77780       -1.77980
H          0.20360      -10.53050       -4.50020
H         -3.02720       -8.96870       -4.85580
H         -2.42310       -9.41830       -7.13820
H         -0.42930      -11.21620       -7.88510
H         -0.19690       -5.23670       -5.77980
H         -1.25580       -6.65430       -5.72800
H          0.17450       -5.61820       -8.21590
H         -1.53020       -5.36540       -7.83180
H         -0.93090       -6.99310       -8.16610
H          4.23030       -4.50700       -4.15860
H          0.53560       -4.99920       -3.83200
H          2.48460       -2.70970       -4.38940
H          0.89230       -2.62500       -3.48740
