
  xtb     03072216153D
 energy: -192.600440363009 gnorm: 0.000344204167 xtb: 6.4.1 (unknown)
110121  0     0  0            999 V2000
   10.5416    1.5049    2.7408 C   0  0  0  0  0  0  0  0  0  0  0  0
   11.6830    1.6506    1.4583 S   0  0  0  0  0  0  0  0  0  0  0  0
   10.4896    1.3246    0.2256 C   0  0  0  0  0  0  0  0  0  0  0  0
   10.8427    1.3395   -1.2202 C   0  0  0  0  0  0  0  0  0  0  0  0
   11.0491    2.7681   -1.7271 C   0  0  0  0  0  0  0  0  0  0  0  0
    9.2860    1.1284    0.8154 C   0  0  0  0  0  0  0  0  0  0  0  0
    9.2988    1.2228    2.2569 C   0  0  0  0  0  0  0  0  0  0  0  0
    8.1025    1.0124    2.8561 N   0  0  0  0  0  0  0  0  0  0  0  0
    7.1680    0.7613    2.0018 C   0  0  0  0  0  0  0  0  0  0  0  0
    7.6803    0.7632    0.2664 S   0  0  0  0  0  0  0  0  0  0  0  0
    5.8258    0.4863    2.3162 C   0  0  0  0  0  0  0  0  0  0  0  0
    4.6740    0.1371    1.0715 S   0  0  0  0  0  0  0  0  0  0  0  0
    3.3689   -0.0957    2.2012 C   0  0  0  0  0  0  0  0  0  0  0  0
    3.8328    0.1194    3.5161 C   0  0  0  0  0  0  0  0  0  0  0  0
    5.2172    0.4409    3.5770 C   0  0  0  0  0  0  0  0  0  0  0  0
    5.8473    0.6769    4.8123 C   0  0  0  0  0  0  0  0  0  0  0  0
    5.1195    0.6067    5.9689 C   0  0  0  0  0  0  0  0  0  0  0  0
    5.6085    0.8064    7.2157 O   0  0  0  0  0  0  0  0  0  0  0  0
    6.9768    1.1080    7.3469 C   0  0  0  0  0  0  0  0  0  0  0  0
    3.7131    0.3133    5.9161 C   0  0  0  0  0  0  0  0  0  0  0  0
    3.0970    0.2978    7.1242 O   0  0  0  0  0  0  0  0  0  0  0  0
    1.7230    0.0009    7.1697 C   0  0  0  0  0  0  0  0  0  0  0  0
    3.0951    0.0819    4.7162 C   0  0  0  0  0  0  0  0  0  0  0  0
    2.1003   -0.5203    1.7602 C   0  0  0  0  0  0  0  0  0  0  0  0
    0.9630   -1.2364    2.8686 S   0  0  0  0  0  0  0  0  0  0  0  0
   -0.1959   -1.5942    1.6259 C   0  0  0  0  0  0  0  0  0  0  0  0
    0.2858   -1.1799    0.3756 C   0  0  0  0  0  0  0  0  0  0  0  0
    1.5672   -0.5582    0.4570 C   0  0  0  0  0  0  0  0  0  0  0  0
    2.1511   -0.0397   -0.7153 C   0  0  0  0  0  0  0  0  0  0  0  0
    1.5496   -0.2310   -1.9289 C   0  0  0  0  0  0  0  0  0  0  0  0
    2.0272    0.2207   -3.1153 O   0  0  0  0  0  0  0  0  0  0  0  0
    3.2524    0.9134   -3.1207 C   0  0  0  0  0  0  0  0  0  0  0  0
    0.3212   -0.9702   -2.0216 C   0  0  0  0  0  0  0  0  0  0  0  0
   -0.0939   -1.1913   -3.2918 O   0  0  0  0  0  0  0  0  0  0  0  0
   -1.1892   -2.0526   -3.4902 C   0  0  0  0  0  0  0  0  0  0  0  0
   -0.3125   -1.3928   -0.8839 C   0  0  0  0  0  0  0  0  0  0  0  0
   -1.4038   -2.2107    2.0166 C   0  0  0  0  0  0  0  0  0  0  0  0
   -1.4864   -3.0127    3.5776 S   0  0  0  0  0  0  0  0  0  0  0  0
   -3.1825   -3.3988    3.4211 C   0  0  0  0  0  0  0  0  0  0  0  0
   -3.9233   -4.0940    4.5075 C   0  0  0  0  0  0  0  0  0  0  0  0
   -4.0913   -3.1925    5.7319 C   0  0  0  0  0  0  0  0  0  0  0  0
   -3.6355   -2.9254    2.2345 C   0  0  0  0  0  0  0  0  0  0  0  0
   -2.6554   -2.2586    1.4181 C   0  0  0  0  0  0  0  0  0  0  0  0
   -3.1373   -1.7449    0.2747 N   0  0  0  0  0  0  0  0  0  0  0  0
   -4.4096   -1.9430    0.1264 C   0  0  0  0  0  0  0  0  0  0  0  0
   -5.1878   -2.8770    1.4510 S   0  0  0  0  0  0  0  0  0  0  0  0
   -5.1047   -1.4272   -0.9809 C   0  0  0  0  0  0  0  0  0  0  0  0
   -4.1519   -0.4734   -2.0738 S   0  0  0  0  0  0  0  0  0  0  0  0
   -5.5050   -0.1966   -3.1204 C   0  0  0  0  0  0  0  0  0  0  0  0
   -6.6646   -0.8043   -2.6213 C   0  0  0  0  0  0  0  0  0  0  0  0
   -6.4369   -1.5101   -1.4029 C   0  0  0  0  0  0  0  0  0  0  0  0
   -7.5041   -2.1875   -0.7823 C   0  0  0  0  0  0  0  0  0  0  0  0
   -8.7513   -2.1654   -1.3469 C   0  0  0  0  0  0  0  0  0  0  0  0
   -9.8489   -2.7753   -0.8421 O   0  0  0  0  0  0  0  0  0  0  0  0
   -9.7196   -3.4946    0.3604 C   0  0  0  0  0  0  0  0  0  0  0  0
   -8.9799   -1.4556   -2.5778 C   0  0  0  0  0  0  0  0  0  0  0  0
  -10.2551   -1.5178   -3.0310 O   0  0  0  0  0  0  0  0  0  0  0  0
  -10.5691   -0.8516   -4.2293 C   0  0  0  0  0  0  0  0  0  0  0  0
   -7.9527   -0.7929   -3.1926 C   0  0  0  0  0  0  0  0  0  0  0  0
   -5.2649    0.5449   -4.2960 C   0  0  0  0  0  0  0  0  0  0  0  0
   -6.4537    1.0913   -5.4537 S   0  0  0  0  0  0  0  0  0  0  0  0
   -5.2703    1.8647   -6.4822 C   0  0  0  0  0  0  0  0  0  0  0  0
   -5.6672    2.5221   -7.7554 C   0  0  0  0  0  0  0  0  0  0  0  0
   -5.7487    1.5076   -8.8994 C   0  0  0  0  0  0  0  0  0  0  0  0
   -4.0305    1.6853   -5.9506 C   0  0  0  0  0  0  0  0  0  0  0  0
   -4.0125    0.9562   -4.7208 C   0  0  0  0  0  0  0  0  0  0  0  0
   -2.7822    0.7658   -4.1829 N   0  0  0  0  0  0  0  0  0  0  0  0
   -1.8714    1.2883   -4.9038 C   0  0  0  0  0  0  0  0  0  0  0  0
   -2.3965    2.1150   -6.3748 S   0  0  0  0  0  0  0  0  0  0  0  0
   10.8558    1.6338    3.7555 H   0  0  0  0  0  0  0  0  0  0  0  0
   11.7578    0.7643   -1.3809 H   0  0  0  0  0  0  0  0  0  0  0  0
   10.0313    0.8635   -1.7761 H   0  0  0  0  0  0  0  0  0  0  0  0
   11.8569    3.2477   -1.1787 H   0  0  0  0  0  0  0  0  0  0  0  0
   10.1418    3.3519   -1.5895 H   0  0  0  0  0  0  0  0  0  0  0  0
   11.3011    2.7598   -2.7845 H   0  0  0  0  0  0  0  0  0  0  0  0
    6.8983    0.9083    4.7969 H   0  0  0  0  0  0  0  0  0  0  0  0
    7.6038    0.3010    6.9554 H   0  0  0  0  0  0  0  0  0  0  0  0
    7.1520    1.2198    8.4157 H   0  0  0  0  0  0  0  0  0  0  0  0
    7.2316    2.0411    6.8347 H   0  0  0  0  0  0  0  0  0  0  0  0
    1.5113   -0.9902    6.7554 H   0  0  0  0  0  0  0  0  0  0  0  0
    1.4549    0.0185    8.2247 H   0  0  0  0  0  0  0  0  0  0  0  0
    1.1315    0.7495    6.6325 H   0  0  0  0  0  0  0  0  0  0  0  0
    2.0388   -0.1141    4.6809 H   0  0  0  0  0  0  0  0  0  0  0  0
    3.0702    0.5134   -0.6458 H   0  0  0  0  0  0  0  0  0  0  0  0
    3.1902    1.8448   -2.5485 H   0  0  0  0  0  0  0  0  0  0  0  0
    3.4547    1.1443   -4.1653 H   0  0  0  0  0  0  0  0  0  0  0  0
    4.0643    0.2985   -2.7198 H   0  0  0  0  0  0  0  0  0  0  0  0
   -1.2699   -2.1811   -4.5685 H   0  0  0  0  0  0  0  0  0  0  0  0
   -1.0182   -3.0249   -3.0167 H   0  0  0  0  0  0  0  0  0  0  0  0
   -2.1120   -1.6129   -3.1074 H   0  0  0  0  0  0  0  0  0  0  0  0
   -1.2701   -1.8811   -0.9220 H   0  0  0  0  0  0  0  0  0  0  0  0
   -3.3827   -4.9982    4.7991 H   0  0  0  0  0  0  0  0  0  0  0  0
   -4.9034   -4.3855    4.1224 H   0  0  0  0  0  0  0  0  0  0  0  0
   -4.6406   -2.2921    5.4662 H   0  0  0  0  0  0  0  0  0  0  0  0
   -3.1174   -2.9028    6.1202 H   0  0  0  0  0  0  0  0  0  0  0  0
   -4.6374   -3.7164    6.5120 H   0  0  0  0  0  0  0  0  0  0  0  0
   -7.3205   -2.7175    0.1362 H   0  0  0  0  0  0  0  0  0  0  0  0
  -10.7117   -3.8880    0.5748 H   0  0  0  0  0  0  0  0  0  0  0  0
   -9.3986   -2.8475    1.1829 H   0  0  0  0  0  0  0  0  0  0  0  0
   -9.0130   -4.3243    0.2577 H   0  0  0  0  0  0  0  0  0  0  0  0
  -10.3914    0.2256   -4.1484 H   0  0  0  0  0  0  0  0  0  0  0  0
   -9.9946   -1.2494   -5.0722 H   0  0  0  0  0  0  0  0  0  0  0  0
  -11.6294   -1.0325   -4.3963 H   0  0  0  0  0  0  0  0  0  0  0  0
   -8.1071   -0.2567   -4.1135 H   0  0  0  0  0  0  0  0  0  0  0  0
   -4.9248    3.2861   -7.9981 H   0  0  0  0  0  0  0  0  0  0  0  0
   -6.6384    3.0054   -7.6304 H   0  0  0  0  0  0  0  0  0  0  0  0
   -6.0394    2.0054   -9.8206 H   0  0  0  0  0  0  0  0  0  0  0  0
   -6.4837    0.7391   -8.6706 H   0  0  0  0  0  0  0  0  0  0  0  0
   -4.7829    1.0312   -9.0506 H   0  0  0  0  0  0  0  0  0  0  0  0
   -0.8269    1.2356   -4.6670 H   0  0  0  0  0  0  0  0  0  0  0  0
  1  2  1  0  0  0  0
  2  3  1  0  0  0  0
  3  4  1  0  0  0  0
  4  5  1  0  0  0  0
  3  6  2  0  0  0  0
  6  7  1  0  0  0  0
  7  8  1  0  0  0  0
  8  9  2  0  0  0  0
  9 10  1  0  0  0  0
  9 11  1  0  0  0  0
 11 12  1  0  0  0  0
 12 13  1  0  0  0  0
 13 14  2  0  0  0  0
 14 15  1  0  0  0  0
 15 16  1  0  0  0  0
 16 17  2  0  0  0  0
 17 18  1  0  0  0  0
 18 19  1  0  0  0  0
 17 20  1  0  0  0  0
 20 21  1  0  0  0  0
 21 22  1  0  0  0  0
 20 23  2  0  0  0  0
 13 24  1  0  0  0  0
 24 25  1  0  0  0  0
 25 26  1  0  0  0  0
 26 27  2  0  0  0  0
 27 28  1  0  0  0  0
 28 29  1  0  0  0  0
 29 30  2  0  0  0  0
 30 31  1  0  0  0  0
 31 32  1  0  0  0  0
 30 33  1  0  0  0  0
 33 34  1  0  0  0  0
 34 35  1  0  0  0  0
 33 36  2  0  0  0  0
 26 37  1  0  0  0  0
 37 38  1  0  0  0  0
 38 39  1  0  0  0  0
 39 40  1  0  0  0  0
 40 41  1  0  0  0  0
 39 42  2  0  0  0  0
 42 43  1  0  0  0  0
 43 44  1  0  0  0  0
 44 45  2  0  0  0  0
 45 46  1  0  0  0  0
 45 47  1  0  0  0  0
 47 48  1  0  0  0  0
 48 49  1  0  0  0  0
 49 50  2  0  0  0  0
 50 51  1  0  0  0  0
 51 52  1  0  0  0  0
 52 53  2  0  0  0  0
 53 54  1  0  0  0  0
 54 55  1  0  0  0  0
 53 56  1  0  0  0  0
 56 57  1  0  0  0  0
 57 58  1  0  0  0  0
 56 59  2  0  0  0  0
 49 60  1  0  0  0  0
 60 61  1  0  0  0  0
 61 62  1  0  0  0  0
 62 63  1  0  0  0  0
 63 64  1  0  0  0  0
 62 65  2  0  0  0  0
 65 66  1  0  0  0  0
 66 67  1  0  0  0  0
 67 68  2  0  0  0  0
 68 69  1  0  0  0  0
  7  1  2  0  0  0  0
 15 11  2  0  0  0  0
 28 24  2  0  0  0  0
 43 37  2  0  0  0  0
 51 47  2  0  0  0  0
 66 60  2  0  0  0  0
 10  6  1  0  0  0  0
 23 14  1  0  0  0  0
 36 27  1  0  0  0  0
 46 42  1  0  0  0  0
 59 50  1  0  0  0  0
 69 65  1  0  0  0  0
  1 70  1  0  0  0  0
  4 71  1  0  0  0  0
  4 72  1  0  0  0  0
  5 73  1  0  0  0  0
  5 74  1  0  0  0  0
  5 75  1  0  0  0  0
 16 76  1  0  0  0  0
 19 77  1  0  0  0  0
 19 78  1  0  0  0  0
 19 79  1  0  0  0  0
 22 80  1  0  0  0  0
 22 81  1  0  0  0  0
 22 82  1  0  0  0  0
 23 83  1  0  0  0  0
 29 84  1  0  0  0  0
 32 85  1  0  0  0  0
 32 86  1  0  0  0  0
 32 87  1  0  0  0  0
 35 88  1  0  0  0  0
 35 89  1  0  0  0  0
 35 90  1  0  0  0  0
 36 91  1  0  0  0  0
 40 92  1  0  0  0  0
 40 93  1  0  0  0  0
 41 94  1  0  0  0  0
 41 95  1  0  0  0  0
 41 96  1  0  0  0  0
 52 97  1  0  0  0  0
 55 98  1  0  0  0  0
 55 99  1  0  0  0  0
 55100  1  0  0  0  0
 58101  1  0  0  0  0
 58102  1  0  0  0  0
 58103  1  0  0  0  0
 59104  1  0  0  0  0
 63105  1  0  0  0  0
 63106  1  0  0  0  0
 64107  1  0  0  0  0
 64108  1  0  0  0  0
 64109  1  0  0  0  0
 68110  1  0  0  0  0
M  END
