
  xtb     03042220063D
 energy: -181.233756603138 gnorm: 0.000947584559 xtb: 6.4.1 (unknown)
108119  0     0  0            999 V2000
    6.1242    6.0045   -2.3684 C   0  0  0  0  0  0  0  0  0  0  0  0
    4.4634    6.4410   -2.2270 S   0  0  0  0  0  0  0  0  0  0  0  0
    3.9281    4.7701   -2.1793 C   0  0  0  0  0  0  0  0  0  0  0  0
    5.0326    3.9308   -2.2719 C   0  0  0  0  0  0  0  0  0  0  0  0
    5.2125    2.5161   -2.2951 C   0  0  0  0  0  0  0  0  0  0  0  0
    6.4888    2.0888   -2.4074 C   0  0  0  0  0  0  0  0  0  0  0  0
    6.9607    0.6749   -2.4420 C   0  0  0  0  0  0  0  0  0  0  0  0
    7.8161    0.3428   -1.2196 C   0  0  0  0  0  0  0  0  0  0  0  0
    7.7521    3.5191   -2.5033 Se  0  0  0  0  0  2  0  0  0  0  0  0
    6.2619    4.6555   -2.3786 C   0  0  0  0  0  0  0  0  0  0  0  0
    2.5613    4.4251   -2.0395 C   0  0  0  0  0  0  0  0  0  0  0  0
    2.1186    2.7540   -1.8267 S   0  0  0  0  0  0  0  0  0  0  0  0
    0.4228    3.1054   -1.7429 C   0  0  0  0  0  0  0  0  0  0  0  0
    0.2116    4.4834   -1.8165 C   0  0  0  0  0  0  0  0  0  0  0  0
    1.4121    5.2293   -2.0149 C   0  0  0  0  0  0  0  0  0  0  0  0
    1.3201    6.6314   -2.1583 C   0  0  0  0  0  0  0  0  0  0  0  0
    0.1135    7.2641   -2.0455 C   0  0  0  0  0  0  0  0  0  0  0  0
   -0.0854    8.5994   -2.1782 O   0  0  0  0  0  0  0  0  0  0  0  0
    1.0263    9.4155   -2.4533 C   0  0  0  0  0  0  0  0  0  0  0  0
   -1.0761    6.5156   -1.7368 C   0  0  0  0  0  0  0  0  0  0  0  0
   -2.1944    7.2702   -1.5781 O   0  0  0  0  0  0  0  0  0  0  0  0
   -3.3877    6.6206   -1.2176 C   0  0  0  0  0  0  0  0  0  0  0  0
   -1.0165    5.1567   -1.6271 C   0  0  0  0  0  0  0  0  0  0  0  0
   -0.5223    2.0538   -1.6334 C   0  0  0  0  0  0  0  0  0  0  0  0
   -0.1728    0.6426   -0.6836 S   0  0  0  0  0  0  0  0  0  0  0  0
   -1.7146   -0.0846   -1.0328 C   0  0  0  0  0  0  0  0  0  0  0  0
   -2.4775    0.7559   -1.8461 C   0  0  0  0  0  0  0  0  0  0  0  0
   -1.7837    1.9439   -2.2235 C   0  0  0  0  0  0  0  0  0  0  0  0
   -2.3650    2.8177   -3.1703 C   0  0  0  0  0  0  0  0  0  0  0  0
   -3.6298    2.5866   -3.6295 C   0  0  0  0  0  0  0  0  0  0  0  0
   -4.2851    3.3509   -4.5416 O   0  0  0  0  0  0  0  0  0  0  0  0
   -3.5950    4.4294   -5.1214 C   0  0  0  0  0  0  0  0  0  0  0  0
   -4.3875    1.4669   -3.1319 C   0  0  0  0  0  0  0  0  0  0  0  0
   -5.6546    1.3904   -3.6069 O   0  0  0  0  0  0  0  0  0  0  0  0
   -6.4317    0.2775   -3.2421 C   0  0  0  0  0  0  0  0  0  0  0  0
   -3.8132    0.5772   -2.2678 C   0  0  0  0  0  0  0  0  0  0  0  0
   -1.9812   -1.3867   -0.5362 C   0  0  0  0  0  0  0  0  0  0  0  0
   -1.1696   -1.9142    0.9252 S   0  0  0  0  0  0  0  0  0  0  0  0
   -1.8272   -3.5291    0.8225 C   0  0  0  0  0  0  0  0  0  0  0  0
   -2.6638   -3.6358   -0.2762 C   0  0  0  0  0  0  0  0  0  0  0  0
   -3.4561   -4.7020   -0.7941 C   0  0  0  0  0  0  0  0  0  0  0  0
   -4.0854   -4.4449   -1.9583 C   0  0  0  0  0  0  0  0  0  0  0  0
   -4.8926   -5.4012   -2.7678 C   0  0  0  0  0  0  0  0  0  0  0  0
   -3.9885   -6.1666   -3.7357 C   0  0  0  0  0  0  0  0  0  0  0  0
   -3.7770   -2.6742   -2.5813 Se  0  0  0  0  0  2  0  0  0  0  0  0
   -2.7389   -2.4287   -1.0323 C   0  0  0  0  0  0  0  0  0  0  0  0
   -1.4240   -4.5029    1.7726 C   0  0  0  0  0  0  0  0  0  0  0  0
   -0.9247   -3.9734    3.3679 S   0  0  0  0  0  0  0  0  0  0  0  0
   -0.5251   -5.5936    3.8784 C   0  0  0  0  0  0  0  0  0  0  0  0
   -0.7617   -6.4954    2.8526 C   0  0  0  0  0  0  0  0  0  0  0  0
   -0.5446   -7.8999    2.7251 C   0  0  0  0  0  0  0  0  0  0  0  0
   -0.8288   -8.4206    1.5142 C   0  0  0  0  0  0  0  0  0  0  0  0
   -0.6769   -9.8381    1.0790 C   0  0  0  0  0  0  0  0  0  0  0  0
    0.3929   -9.9742   -0.0044 C   0  0  0  0  0  0  0  0  0  0  0  0
   -1.4780   -7.1153    0.2876 Se  0  0  0  0  0  2  0  0  0  0  0  0
   -1.2790   -5.8709    1.6810 C   0  0  0  0  0  0  0  0  0  0  0  0
   -0.0326   -5.7957    5.1890 C   0  0  0  0  0  0  0  0  0  0  0  0
    0.4015   -7.3715    5.8184 S   0  0  0  0  0  0  0  0  0  0  0  0
    0.8429   -6.7253    7.3522 C   0  0  0  0  0  0  0  0  0  0  0  0
    0.6734   -5.3716    7.4017 C   0  0  0  0  0  0  0  0  0  0  0  0
    0.8797   -4.3773    8.4111 C   0  0  0  0  0  0  0  0  0  0  0  0
    0.5747   -3.1177    8.0429 C   0  0  0  0  0  0  0  0  0  0  0  0
    0.6811   -1.8833    8.8737 C   0  0  0  0  0  0  0  0  0  0  0  0
    1.6271   -0.8636    8.2417 C   0  0  0  0  0  0  0  0  0  0  0  0
   -0.0550   -2.9953    6.2353 Se  0  0  0  0  0  2  0  0  0  0  0  0
    0.1756   -4.8498    6.1683 C   0  0  0  0  0  0  0  0  0  0  0  0
    6.8699    6.7702   -2.4374 H   0  0  0  0  0  0  0  0  0  0  0  0
    4.3919    1.8235   -2.2338 H   0  0  0  0  0  0  0  0  0  0  0  0
    6.0913    0.0147   -2.4795 H   0  0  0  0  0  0  0  0  0  0  0  0
    7.5542    0.5104   -3.3472 H   0  0  0  0  0  0  0  0  0  0  0  0
    7.2410    0.4797   -0.3066 H   0  0  0  0  0  0  0  0  0  0  0  0
    8.1617   -0.6870   -1.2652 H   0  0  0  0  0  0  0  0  0  0  0  0
    8.6847    1.0006   -1.1834 H   0  0  0  0  0  0  0  0  0  0  0  0
    2.2111    7.1978   -2.3595 H   0  0  0  0  0  0  0  0  0  0  0  0
    0.6369   10.4303   -2.5135 H   0  0  0  0  0  0  0  0  0  0  0  0
    1.4951    9.1483   -3.4060 H   0  0  0  0  0  0  0  0  0  0  0  0
    1.7741    9.3586   -1.6558 H   0  0  0  0  0  0  0  0  0  0  0  0
   -3.7055    5.8999   -1.9793 H   0  0  0  0  0  0  0  0  0  0  0  0
   -3.2898    6.1043   -0.2571 H   0  0  0  0  0  0  0  0  0  0  0  0
   -4.1359    7.4067   -1.1317 H   0  0  0  0  0  0  0  0  0  0  0  0
   -1.8853    4.5730   -1.3740 H   0  0  0  0  0  0  0  0  0  0  0  0
   -1.7797    3.6470   -3.5297 H   0  0  0  0  0  0  0  0  0  0  0  0
   -2.6988    4.0932   -5.6532 H   0  0  0  0  0  0  0  0  0  0  0  0
   -4.2900    4.8772   -5.8297 H   0  0  0  0  0  0  0  0  0  0  0  0
   -3.3070    5.1781   -4.3749 H   0  0  0  0  0  0  0  0  0  0  0  0
   -5.9421   -0.6628   -3.5254 H   0  0  0  0  0  0  0  0  0  0  0  0
   -6.6369    0.2643   -2.1666 H   0  0  0  0  0  0  0  0  0  0  0  0
   -7.3682    0.3797   -3.7876 H   0  0  0  0  0  0  0  0  0  0  0  0
   -4.3757   -0.2482   -1.8638 H   0  0  0  0  0  0  0  0  0  0  0  0
   -3.5688   -5.6410   -0.2768 H   0  0  0  0  0  0  0  0  0  0  0  0
   -5.6554   -4.8587   -3.3340 H   0  0  0  0  0  0  0  0  0  0  0  0
   -5.3923   -6.1064   -2.0997 H   0  0  0  0  0  0  0  0  0  0  0  0
   -3.2329   -6.7204   -3.1818 H   0  0  0  0  0  0  0  0  0  0  0  0
   -4.5722   -6.8645   -4.3308 H   0  0  0  0  0  0  0  0  0  0  0  0
   -3.4852   -5.4721   -4.4063 H   0  0  0  0  0  0  0  0  0  0  0  0
   -0.1708   -8.4979    3.5384 H   0  0  0  0  0  0  0  0  0  0  0  0
   -1.6313  -10.2028    0.6851 H   0  0  0  0  0  0  0  0  0  0  0  0
   -0.4106  -10.4468    1.9460 H   0  0  0  0  0  0  0  0  0  0  0  0
    0.4837  -11.0098   -0.3224 H   0  0  0  0  0  0  0  0  0  0  0  0
    1.3567   -9.6368    0.3708 H   0  0  0  0  0  0  0  0  0  0  0  0
    0.1270   -9.3664   -0.8697 H   0  0  0  0  0  0  0  0  0  0  0  0
    1.1979   -7.3879    8.1156 H   0  0  0  0  0  0  0  0  0  0  0  0
    1.2489   -4.6322    9.3906 H   0  0  0  0  0  0  0  0  0  0  0  0
    1.0335   -2.1559    9.8714 H   0  0  0  0  0  0  0  0  0  0  0  0
   -0.3113   -1.4319    8.9754 H   0  0  0  0  0  0  0  0  0  0  0  0
    1.6785    0.0364    8.8494 H   0  0  0  0  0  0  0  0  0  0  0  0
    2.6274   -1.2807    8.1472 H   0  0  0  0  0  0  0  0  0  0  0  0
    1.2706   -0.5927    7.2471 H   0  0  0  0  0  0  0  0  0  0  0  0
  1  2  1  0  0  0  0
  2  3  1  0  0  0  0
  3  4  2  0  0  0  0
  4  5  1  0  0  0  0
  5  6  2  0  0  0  0
  6  7  1  0  0  0  0
  7  8  1  0  0  0  0
  6  9  1  0  0  0  0
  9 10  1  0  0  0  0
  3 11  1  0  0  0  0
 11 12  1  0  0  0  0
 12 13  1  0  0  0  0
 13 14  2  0  0  0  0
 14 15  1  0  0  0  0
 15 16  1  0  0  0  0
 16 17  2  0  0  0  0
 17 18  1  0  0  0  0
 18 19  1  0  0  0  0
 17 20  1  0  0  0  0
 20 21  1  0  0  0  0
 21 22  1  0  0  0  0
 20 23  2  0  0  0  0
 13 24  1  0  0  0  0
 24 25  1  0  0  0  0
 25 26  1  0  0  0  0
 26 27  2  0  0  0  0
 27 28  1  0  0  0  0
 28 29  1  0  0  0  0
 29 30  2  0  0  0  0
 30 31  1  0  0  0  0
 31 32  1  0  0  0  0
 30 33  1  0  0  0  0
 33 34  1  0  0  0  0
 34 35  1  0  0  0  0
 33 36  2  0  0  0  0
 26 37  1  0  0  0  0
 37 38  1  0  0  0  0
 38 39  1  0  0  0  0
 39 40  2  0  0  0  0
 40 41  1  0  0  0  0
 41 42  2  0  0  0  0
 42 43  1  0  0  0  0
 43 44  1  0  0  0  0
 42 45  1  0  0  0  0
 45 46  1  0  0  0  0
 39 47  1  0  0  0  0
 47 48  1  0  0  0  0
 48 49  1  0  0  0  0
 49 50  2  0  0  0  0
 50 51  1  0  0  0  0
 51 52  2  0  0  0  0
 52 53  1  0  0  0  0
 53 54  1  0  0  0  0
 52 55  1  0  0  0  0
 55 56  1  0  0  0  0
 49 57  1  0  0  0  0
 57 58  1  0  0  0  0
 58 59  1  0  0  0  0
 59 60  2  0  0  0  0
 60 61  1  0  0  0  0
 61 62  2  0  0  0  0
 62 63  1  0  0  0  0
 63 64  1  0  0  0  0
 62 65  1  0  0  0  0
 65 66  1  0  0  0  0
 10  1  2  0  0  0  0
 15 11  2  0  0  0  0
 28 24  2  0  0  0  0
 46 37  2  0  0  0  0
 56 47  2  0  0  0  0
 66 57  2  0  0  0  0
 10  4  1  0  0  0  0
 23 14  1  0  0  0  0
 36 27  1  0  0  0  0
 46 40  1  0  0  0  0
 56 50  1  0  0  0  0
 66 60  1  0  0  0  0
  1 67  1  0  0  0  0
  5 68  1  0  0  0  0
  7 69  1  0  0  0  0
  7 70  1  0  0  0  0
  8 71  1  0  0  0  0
  8 72  1  0  0  0  0
  8 73  1  0  0  0  0
 16 74  1  0  0  0  0
 19 75  1  0  0  0  0
 19 76  1  0  0  0  0
 19 77  1  0  0  0  0
 22 78  1  0  0  0  0
 22 79  1  0  0  0  0
 22 80  1  0  0  0  0
 23 81  1  0  0  0  0
 29 82  1  0  0  0  0
 32 83  1  0  0  0  0
 32 84  1  0  0  0  0
 32 85  1  0  0  0  0
 35 86  1  0  0  0  0
 35 87  1  0  0  0  0
 35 88  1  0  0  0  0
 36 89  1  0  0  0  0
 41 90  1  0  0  0  0
 43 91  1  0  0  0  0
 43 92  1  0  0  0  0
 44 93  1  0  0  0  0
 44 94  1  0  0  0  0
 44 95  1  0  0  0  0
 51 96  1  0  0  0  0
 53 97  1  0  0  0  0
 53 98  1  0  0  0  0
 54 99  1  0  0  0  0
 54100  1  0  0  0  0
 54101  1  0  0  0  0
 59102  1  0  0  0  0
 61103  1  0  0  0  0
 63104  1  0  0  0  0
 63105  1  0  0  0  0
 64106  1  0  0  0  0
 64107  1  0  0  0  0
 64108  1  0  0  0  0
M  END
