
  xtb     03032220143D
 energy: -255.871400521208 gnorm: 0.000335213624 xtb: 6.4.1 (unknown)
164175  0     0  0            999 V2000
    1.6560   -3.7385   12.2290 C   0  0  0  0  0  0  0  0  0  0  0  0
    0.1784   -3.9673   11.3947 S   0  0  0  0  0  0  0  0  0  0  0  0
    0.8007   -3.2785    9.9383 C   0  0  0  0  0  0  0  0  0  0  0  0
    2.1075   -2.8586   10.1211 C   0  0  0  0  0  0  0  0  0  0  0  0
    2.6026   -3.1363   11.4362 C   0  0  0  0  0  0  0  0  0  0  0  0
    3.9374   -2.7875   11.7700 C   0  0  0  0  0  0  0  0  0  0  0  0
    4.7325   -2.1890   10.8402 C   0  0  0  0  0  0  0  0  0  0  0  0
    6.0271   -1.8134   11.0288 O   0  0  0  0  0  0  0  0  0  0  0  0
    6.6048   -2.0413   12.2879 C   0  0  0  0  0  0  0  0  0  0  0  0
    4.2229   -1.8877    9.5218 C   0  0  0  0  0  0  0  0  0  0  0  0
    5.1260   -1.2800    8.7012 O   0  0  0  0  0  0  0  0  0  0  0  0
    4.7183   -0.9675    7.3948 C   0  0  0  0  0  0  0  0  0  0  0  0
    2.9430   -2.2040    9.1834 C   0  0  0  0  0  0  0  0  0  0  0  0
   -0.0314   -3.0946    8.7631 C   0  0  0  0  0  0  0  0  0  0  0  0
   -1.2660   -2.5037    8.9094 C   0  0  0  0  0  0  0  0  0  0  0  0
   -2.0574   -2.1803    7.8082 C   0  0  0  0  0  0  0  0  0  0  0  0
   -1.5702   -2.3384    6.5306 C   0  0  0  0  0  0  0  0  0  0  0  0
   -2.2799   -2.0559    5.4115 O   0  0  0  0  0  0  0  0  0  0  0  0
   -3.5304   -1.4108    5.5153 C   0  0  0  0  0  0  0  0  0  0  0  0
   -4.0042   -1.1154    4.1006 C   0  0  0  0  0  0  0  0  0  0  0  0
   -0.2671   -2.8904    6.3297 C   0  0  0  0  0  0  0  0  0  0  0  0
    0.4282   -3.4158    7.4502 C   0  0  0  0  0  0  0  0  0  0  0  0
    1.5296   -4.2979    7.2211 C   0  0  0  0  0  0  0  0  0  0  0  0
    2.0310   -4.9188    8.3198 O   0  0  0  0  0  0  0  0  0  0  0  0
    3.1203   -5.8086    8.2127 C   0  0  0  0  0  0  0  0  0  0  0  0
    2.6980   -7.2047    7.7631 C   0  0  0  0  0  0  0  0  0  0  0  0
    1.9835   -4.4992    5.9372 C   0  0  0  0  0  0  0  0  0  0  0  0
    1.4238   -3.7996    4.8701 C   0  0  0  0  0  0  0  0  0  0  0  0
    0.3278   -2.9822    5.0353 C   0  0  0  0  0  0  0  0  0  0  0  0
   -0.1164   -2.1692    3.9203 C   0  0  0  0  0  0  0  0  0  0  0  0
   -0.2733   -2.8219    2.3262 S   0  0  0  0  0  0  0  0  0  0  0  0
   -0.6563   -1.2893    1.6362 C   0  0  0  0  0  0  0  0  0  0  0  0
   -0.6773   -0.3073    2.6104 C   0  0  0  0  0  0  0  0  0  0  0  0
   -0.3468   -0.8027    3.9086 C   0  0  0  0  0  0  0  0  0  0  0  0
   -0.2688    0.1016    4.9966 C   0  0  0  0  0  0  0  0  0  0  0  0
   -0.5692    1.4172    4.8100 C   0  0  0  0  0  0  0  0  0  0  0  0
   -0.5472    2.3743    5.7818 O   0  0  0  0  0  0  0  0  0  0  0  0
   -0.2078    1.9797    7.0851 C   0  0  0  0  0  0  0  0  0  0  0  0
   -0.9492    1.9074    3.5060 C   0  0  0  0  0  0  0  0  0  0  0  0
   -1.2258    3.2422    3.4698 O   0  0  0  0  0  0  0  0  0  0  0  0
   -1.5618    3.8067    2.2295 C   0  0  0  0  0  0  0  0  0  0  0  0
   -0.9953    1.0632    2.4382 C   0  0  0  0  0  0  0  0  0  0  0  0
   -0.9720   -1.1209    0.2252 C   0  0  0  0  0  0  0  0  0  0  0  0
   -2.0346   -1.8167   -0.3027 C   0  0  0  0  0  0  0  0  0  0  0  0
   -2.5100   -1.5523   -1.5856 C   0  0  0  0  0  0  0  0  0  0  0  0
   -1.9389   -0.5639   -2.3528 C   0  0  0  0  0  0  0  0  0  0  0  0
   -2.3915   -0.2236   -3.5939 O   0  0  0  0  0  0  0  0  0  0  0  0
   -3.7593   -0.3785   -3.9093 C   0  0  0  0  0  0  0  0  0  0  0  0
   -4.6633    0.4883   -3.0390 C   0  0  0  0  0  0  0  0  0  0  0  0
   -0.7929    0.1404   -1.8755 C   0  0  0  0  0  0  0  0  0  0  0  0
   -0.2777   -0.1807   -0.5899 C   0  0  0  0  0  0  0  0  0  0  0  0
    0.9439    0.4289   -0.1656 C   0  0  0  0  0  0  0  0  0  0  0  0
    1.5228   -0.1021    0.9478 O   0  0  0  0  0  0  0  0  0  0  0  0
    2.7296    0.4259    1.4504 C   0  0  0  0  0  0  0  0  0  0  0  0
    2.5311    1.7014    2.2646 C   0  0  0  0  0  0  0  0  0  0  0  0
    1.4897    1.4443   -0.9125 C   0  0  0  0  0  0  0  0  0  0  0  0
    0.9193    1.8129   -2.1320 C   0  0  0  0  0  0  0  0  0  0  0  0
   -0.1572    1.1428   -2.6537 C   0  0  0  0  0  0  0  0  0  0  0  0
   -0.6167    1.5329   -4.0059 C   0  0  0  0  0  0  0  0  0  0  0  0
   -1.4700    2.5998   -4.1153 C   0  0  0  0  0  0  0  0  0  0  0  0
   -1.9165    3.0529   -5.3574 C   0  0  0  0  0  0  0  0  0  0  0  0
   -1.4842    2.4544   -6.5156 C   0  0  0  0  0  0  0  0  0  0  0  0
   -1.8404    2.8763   -7.7627 O   0  0  0  0  0  0  0  0  0  0  0  0
   -2.9829    3.6813   -7.9449 C   0  0  0  0  0  0  0  0  0  0  0  0
   -4.2793    2.9293   -7.6592 C   0  0  0  0  0  0  0  0  0  0  0  0
   -0.5765    1.3528   -6.4555 C   0  0  0  0  0  0  0  0  0  0  0  0
   -0.1441    0.8909   -5.1817 C   0  0  0  0  0  0  0  0  0  0  0  0
    0.7549   -0.2176   -5.1162 C   0  0  0  0  0  0  0  0  0  0  0  0
    1.1601   -0.5847   -3.8671 O   0  0  0  0  0  0  0  0  0  0  0  0
    1.7910   -1.8254   -3.6441 C   0  0  0  0  0  0  0  0  0  0  0  0
    0.8242   -2.9998   -3.7574 C   0  0  0  0  0  0  0  0  0  0  0  0
    1.1910   -0.8146   -6.2733 C   0  0  0  0  0  0  0  0  0  0  0  0
    0.7735   -0.3382   -7.5173 C   0  0  0  0  0  0  0  0  0  0  0  0
   -0.1008    0.7113   -7.6307 C   0  0  0  0  0  0  0  0  0  0  0  0
   -0.4527    1.1839   -8.9892 C   0  0  0  0  0  0  0  0  0  0  0  0
    0.4263    2.0250   -9.6222 C   0  0  0  0  0  0  0  0  0  0  0  0
    0.1682    2.5547  -10.8907 C   0  0  0  0  0  0  0  0  0  0  0  0
   -1.0017    2.2503  -11.5391 C   0  0  0  0  0  0  0  0  0  0  0  0
   -1.3916    2.7510  -12.7500 O   0  0  0  0  0  0  0  0  0  0  0  0
   -0.5091    3.5710  -13.4840 C   0  0  0  0  0  0  0  0  0  0  0  0
    0.5947    2.7780  -14.1791 C   0  0  0  0  0  0  0  0  0  0  0  0
   -1.9313    1.3557  -10.9315 C   0  0  0  0  0  0  0  0  0  0  0  0
   -1.6403    0.7967   -9.6624 C   0  0  0  0  0  0  0  0  0  0  0  0
   -2.5722   -0.1316   -9.1066 C   0  0  0  0  0  0  0  0  0  0  0  0
   -2.2185   -0.6960   -7.9229 O   0  0  0  0  0  0  0  0  0  0  0  0
   -2.9465   -1.7965   -7.4267 C   0  0  0  0  0  0  0  0  0  0  0  0
   -2.1146   -2.4212   -6.3168 C   0  0  0  0  0  0  0  0  0  0  0  0
   -3.7428   -0.4192   -9.7697 C   0  0  0  0  0  0  0  0  0  0  0  0
   -4.0239    0.1686  -11.0094 C   0  0  0  0  0  0  0  0  0  0  0  0
   -3.1352    1.0261  -11.5881 C   0  0  0  0  0  0  0  0  0  0  0  0
    1.7461   -4.0595   13.2472 H   0  0  0  0  0  0  0  0  0  0  0  0
    4.2901   -3.0108   12.7639 H   0  0  0  0  0  0  0  0  0  0  0  0
    6.6319   -3.1090   12.5316 H   0  0  0  0  0  0  0  0  0  0  0  0
    6.0698   -1.5051   13.0791 H   0  0  0  0  0  0  0  0  0  0  0  0
    7.6228   -1.6611   12.2193 H   0  0  0  0  0  0  0  0  0  0  0  0
    3.8958   -0.2438    7.3905 H   0  0  0  0  0  0  0  0  0  0  0  0
    5.5885   -0.5266    6.9110 H   0  0  0  0  0  0  0  0  0  0  0  0
    4.4076   -1.8614    6.8422 H   0  0  0  0  0  0  0  0  0  0  0  0
    2.5406   -1.9767    8.2099 H   0  0  0  0  0  0  0  0  0  0  0  0
   -1.6303   -2.2825    9.9022 H   0  0  0  0  0  0  0  0  0  0  0  0
   -3.0441   -1.7807    7.9796 H   0  0  0  0  0  0  0  0  0  0  0  0
   -4.2527   -2.0597    6.0315 H   0  0  0  0  0  0  0  0  0  0  0  0
   -3.4280   -0.4752    6.0826 H   0  0  0  0  0  0  0  0  0  0  0  0
   -3.2939   -0.4608    3.6027 H   0  0  0  0  0  0  0  0  0  0  0  0
   -4.0750   -2.0412    3.5362 H   0  0  0  0  0  0  0  0  0  0  0  0
   -4.9786   -0.6360    4.1281 H   0  0  0  0  0  0  0  0  0  0  0  0
    3.8955   -5.3991    7.5535 H   0  0  0  0  0  0  0  0  0  0  0  0
    3.5270   -5.8542    9.2279 H   0  0  0  0  0  0  0  0  0  0  0  0
    1.9525   -7.5984    8.4492 H   0  0  0  0  0  0  0  0  0  0  0  0
    3.5606   -7.8656    7.7600 H   0  0  0  0  0  0  0  0  0  0  0  0
    2.2659   -7.1806    6.7659 H   0  0  0  0  0  0  0  0  0  0  0  0
    2.8019   -5.1710    5.7341 H   0  0  0  0  0  0  0  0  0  0  0  0
    1.8629   -3.8991    3.8880 H   0  0  0  0  0  0  0  0  0  0  0  0
    0.0235   -0.2792    5.9616 H   0  0  0  0  0  0  0  0  0  0  0  0
   -0.2814    2.8788    7.6948 H   0  0  0  0  0  0  0  0  0  0  0  0
   -0.8963    1.2200    7.4723 H   0  0  0  0  0  0  0  0  0  0  0  0
    0.8150    1.5902    7.1365 H   0  0  0  0  0  0  0  0  0  0  0  0
   -1.7101    4.8688    2.4186 H   0  0  0  0  0  0  0  0  0  0  0  0
   -0.7593    3.6758    1.4950 H   0  0  0  0  0  0  0  0  0  0  0  0
   -2.4859    3.3768    1.8275 H   0  0  0  0  0  0  0  0  0  0  0  0
   -1.2617    1.4040    1.4510 H   0  0  0  0  0  0  0  0  0  0  0  0
   -2.5367   -2.5552    0.3055 H   0  0  0  0  0  0  0  0  0  0  0  0
   -3.3545   -2.1157   -1.9519 H   0  0  0  0  0  0  0  0  0  0  0  0
   -4.0660   -1.4314   -3.8556 H   0  0  0  0  0  0  0  0  0  0  0  0
   -3.8209   -0.0537   -4.9513 H   0  0  0  0  0  0  0  0  0  0  0  0
   -4.3576    1.5287   -3.1182 H   0  0  0  0  0  0  0  0  0  0  0  0
   -4.5966    0.1858   -1.9962 H   0  0  0  0  0  0  0  0  0  0  0  0
   -5.6943    0.3940   -3.3690 H   0  0  0  0  0  0  0  0  0  0  0  0
    3.4517    0.5863    0.6393 H   0  0  0  0  0  0  0  0  0  0  0  0
    3.1146   -0.3649    2.1017 H   0  0  0  0  0  0  0  0  0  0  0  0
    2.1099    2.4938    1.6512 H   0  0  0  0  0  0  0  0  0  0  0  0
    3.4863    2.0336    2.6626 H   0  0  0  0  0  0  0  0  0  0  0  0
    1.8490    1.5085    3.0886 H   0  0  0  0  0  0  0  0  0  0  0  0
    2.3867    1.9522   -0.5960 H   0  0  0  0  0  0  0  0  0  0  0  0
    1.3784    2.6041   -2.7065 H   0  0  0  0  0  0  0  0  0  0  0  0
   -1.8177    3.0957   -3.2196 H   0  0  0  0  0  0  0  0  0  0  0  0
   -2.5958    3.8910   -5.3846 H   0  0  0  0  0  0  0  0  0  0  0  0
   -2.9411    3.9586   -9.0020 H   0  0  0  0  0  0  0  0  0  0  0  0
   -2.9231    4.5994   -7.3454 H   0  0  0  0  0  0  0  0  0  0  0  0
   -5.1318    3.5714   -7.8627 H   0  0  0  0  0  0  0  0  0  0  0  0
   -4.3152    2.6092   -6.6202 H   0  0  0  0  0  0  0  0  0  0  0  0
   -4.3352    2.0501   -8.2967 H   0  0  0  0  0  0  0  0  0  0  0  0
    2.6525   -1.9602   -4.3109 H   0  0  0  0  0  0  0  0  0  0  0  0
    2.1604   -1.7493   -2.6171 H   0  0  0  0  0  0  0  0  0  0  0  0
    0.4329   -3.0791   -4.7684 H   0  0  0  0  0  0  0  0  0  0  0  0
    1.3337   -3.9241   -3.4985 H   0  0  0  0  0  0  0  0  0  0  0  0
   -0.0089   -2.8497   -3.0749 H   0  0  0  0  0  0  0  0  0  0  0  0
    1.8708   -1.6521   -6.2453 H   0  0  0  0  0  0  0  0  0  0  0  0
    1.1398   -0.8206   -8.4123 H   0  0  0  0  0  0  0  0  0  0  0  0
    1.3389    2.3086   -9.1179 H   0  0  0  0  0  0  0  0  0  0  0  0
    0.8999    3.2191  -11.3232 H   0  0  0  0  0  0  0  0  0  0  0  0
   -0.0829    4.3543  -12.8444 H   0  0  0  0  0  0  0  0  0  0  0  0
   -1.1457    4.0511  -14.2335 H   0  0  0  0  0  0  0  0  0  0  0  0
    1.2176    2.2631  -13.4522 H   0  0  0  0  0  0  0  0  0  0  0  0
    0.1536    2.0351  -14.8390 H   0  0  0  0  0  0  0  0  0  0  0  0
    1.2155    3.4494  -14.7662 H   0  0  0  0  0  0  0  0  0  0  0  0
   -3.1219   -2.5298   -8.2268 H   0  0  0  0  0  0  0  0  0  0  0  0
   -3.9217   -1.4667   -7.0379 H   0  0  0  0  0  0  0  0  0  0  0  0
   -1.1855   -2.8016   -6.7328 H   0  0  0  0  0  0  0  0  0  0  0  0
   -1.8728   -1.6699   -5.5703 H   0  0  0  0  0  0  0  0  0  0  0  0
   -2.6609   -3.2383   -5.8531 H   0  0  0  0  0  0  0  0  0  0  0  0
   -4.4637   -1.1010   -9.3451 H   0  0  0  0  0  0  0  0  0  0  0  0
   -4.9526   -0.0765  -11.5038 H   0  0  0  0  0  0  0  0  0  0  0  0
   -3.3328    1.4687  -12.5507 H   0  0  0  0  0  0  0  0  0  0  0  0
  1  2  1  0  0  0  0
  2  3  1  0  0  0  0
  3  4  2  0  0  0  0
  4  5  1  0  0  0  0
  5  6  1  0  0  0  0
  6  7  2  0  0  0  0
  7  8  1  0  0  0  0
  8  9  1  0  0  0  0
  7 10  1  0  0  0  0
 10 11  1  0  0  0  0
 11 12  1  0  0  0  0
 10 13  2  0  0  0  0
  3 14  1  0  0  0  0
 14 15  2  0  0  0  0
 15 16  1  0  0  0  0
 16 17  2  0  0  0  0
 17 18  1  0  0  0  0
 18 19  1  0  0  0  0
 19 20  1  0  0  0  0
 17 21  1  0  0  0  0
 21 22  2  0  0  0  0
 22 23  1  0  0  0  0
 23 24  1  0  0  0  0
 24 25  1  0  0  0  0
 25 26  1  0  0  0  0
 23 27  2  0  0  0  0
 27 28  1  0  0  0  0
 28 29  2  0  0  0  0
 29 30  1  0  0  0  0
 30 31  1  0  0  0  0
 31 32  1  0  0  0  0
 32 33  2  0  0  0  0
 33 34  1  0  0  0  0
 34 35  1  0  0  0  0
 35 36  2  0  0  0  0
 36 37  1  0  0  0  0
 37 38  1  0  0  0  0
 36 39  1  0  0  0  0
 39 40  1  0  0  0  0
 40 41  1  0  0  0  0
 39 42  2  0  0  0  0
 32 43  1  0  0  0  0
 43 44  2  0  0  0  0
 44 45  1  0  0  0  0
 45 46  2  0  0  0  0
 46 47  1  0  0  0  0
 47 48  1  0  0  0  0
 48 49  1  0  0  0  0
 46 50  1  0  0  0  0
 50 51  2  0  0  0  0
 51 52  1  0  0  0  0
 52 53  1  0  0  0  0
 53 54  1  0  0  0  0
 54 55  1  0  0  0  0
 52 56  2  0  0  0  0
 56 57  1  0  0  0  0
 57 58  2  0  0  0  0
 58 59  1  0  0  0  0
 59 60  2  0  0  0  0
 60 61  1  0  0  0  0
 61 62  2  0  0  0  0
 62 63  1  0  0  0  0
 63 64  1  0  0  0  0
 64 65  1  0  0  0  0
 62 66  1  0  0  0  0
 66 67  2  0  0  0  0
 67 68  1  0  0  0  0
 68 69  1  0  0  0  0
 69 70  1  0  0  0  0
 70 71  1  0  0  0  0
 68 72  2  0  0  0  0
 72 73  1  0  0  0  0
 73 74  2  0  0  0  0
 74 75  1  0  0  0  0
 75 76  2  0  0  0  0
 76 77  1  0  0  0  0
 77 78  2  0  0  0  0
 78 79  1  0  0  0  0
 79 80  1  0  0  0  0
 80 81  1  0  0  0  0
 78 82  1  0  0  0  0
 82 83  2  0  0  0  0
 83 84  1  0  0  0  0
 84 85  1  0  0  0  0
 85 86  1  0  0  0  0
 86 87  1  0  0  0  0
 84 88  2  0  0  0  0
 88 89  1  0  0  0  0
 89 90  2  0  0  0  0
  5  1  2  0  0  0  0
 22 14  1  0  0  0  0
 34 30  2  0  0  0  0
 51 43  1  0  0  0  0
 67 59  1  0  0  0  0
 83 75  1  0  0  0  0
 13  4  1  0  0  0  0
 29 21  1  0  0  0  0
 42 33  1  0  0  0  0
 58 50  1  0  0  0  0
 74 66  1  0  0  0  0
 90 82  1  0  0  0  0
  1 91  1  0  0  0  0
  6 92  1  0  0  0  0
  9 93  1  0  0  0  0
  9 94  1  0  0  0  0
  9 95  1  0  0  0  0
 12 96  1  0  0  0  0
 12 97  1  0  0  0  0
 12 98  1  0  0  0  0
 13 99  1  0  0  0  0
 15100  1  0  0  0  0
 16101  1  0  0  0  0
 19102  1  0  0  0  0
 19103  1  0  0  0  0
 20104  1  0  0  0  0
 20105  1  0  0  0  0
 20106  1  0  0  0  0
 25107  1  0  0  0  0
 25108  1  0  0  0  0
 26109  1  0  0  0  0
 26110  1  0  0  0  0
 26111  1  0  0  0  0
 27112  1  0  0  0  0
 28113  1  0  0  0  0
 35114  1  0  0  0  0
 38115  1  0  0  0  0
 38116  1  0  0  0  0
 38117  1  0  0  0  0
 41118  1  0  0  0  0
 41119  1  0  0  0  0
 41120  1  0  0  0  0
 42121  1  0  0  0  0
 44122  1  0  0  0  0
 45123  1  0  0  0  0
 48124  1  0  0  0  0
 48125  1  0  0  0  0
 49126  1  0  0  0  0
 49127  1  0  0  0  0
 49128  1  0  0  0  0
 54129  1  0  0  0  0
 54130  1  0  0  0  0
 55131  1  0  0  0  0
 55132  1  0  0  0  0
 55133  1  0  0  0  0
 56134  1  0  0  0  0
 57135  1  0  0  0  0
 60136  1  0  0  0  0
 61137  1  0  0  0  0
 64138  1  0  0  0  0
 64139  1  0  0  0  0
 65140  1  0  0  0  0
 65141  1  0  0  0  0
 65142  1  0  0  0  0
 70143  1  0  0  0  0
 70144  1  0  0  0  0
 71145  1  0  0  0  0
 71146  1  0  0  0  0
 71147  1  0  0  0  0
 72148  1  0  0  0  0
 73149  1  0  0  0  0
 76150  1  0  0  0  0
 77151  1  0  0  0  0
 80152  1  0  0  0  0
 80153  1  0  0  0  0
 81154  1  0  0  0  0
 81155  1  0  0  0  0
 81156  1  0  0  0  0
 86157  1  0  0  0  0
 86158  1  0  0  0  0
 87159  1  0  0  0  0
 87160  1  0  0  0  0
 87161  1  0  0  0  0
 88162  1  0  0  0  0
 89163  1  0  0  0  0
 90164  1  0  0  0  0
M  END
