
  xtb     03032211083D
 energy: -257.917604511811 gnorm: 0.000720228067 xtb: 6.4.1 (unknown)
123139  0     0  0            999 V2000
    4.2924    0.8589   10.4393 C   0  0  0  0  0  0  0  0  0  0  0  0
    2.9697    0.4529   10.5113 C   0  0  0  0  0  0  0  0  0  0  0  0
    2.0995    0.4710   11.7124 C   0  0  0  0  0  0  0  0  0  0  0  0
    2.4300    0.7529   12.8333 O   0  0  0  0  0  0  0  0  0  0  0  0
    0.7179    0.0651   11.2466 C   0  0  0  0  0  0  0  0  0  0  0  0
    0.8439   -0.2342    9.7608 C   0  0  0  0  0  0  0  0  0  0  0  0
   -0.0643   -0.5602    9.0404 O   0  0  0  0  0  0  0  0  0  0  0  0
    2.2614   -0.0067    9.3924 C   0  0  0  0  0  0  0  0  0  0  0  0
    2.8621   -0.0948    8.1198 C   0  0  0  0  0  0  0  0  0  0  0  0
    4.1991    0.3435    8.0536 C   0  0  0  0  0  0  0  0  0  0  0  0
    4.8836    0.8007    9.1862 C   0  0  0  0  0  0  0  0  0  0  0  0
    6.2807    1.1655    8.8452 C   0  0  0  0  0  0  0  0  0  0  0  0
    7.1150    1.5889    9.5998 O   0  0  0  0  0  0  0  0  0  0  0  0
    6.4466    0.8920    7.3659 C   0  0  0  0  0  0  0  0  0  0  0  0
    5.1222    0.3194    6.8927 C   0  0  0  0  0  0  0  0  0  0  0  0
    4.9020   -0.0987    5.7856 O   0  0  0  0  0  0  0  0  0  0  0  0
    2.1431   -0.5832    6.9695 C   0  0  0  0  0  0  0  0  0  0  0  0
    2.1083    0.3214    5.5086 S   0  0  0  0  0  0  0  0  0  0  0  0
    1.0951   -0.8269    4.7283 C   0  0  0  0  0  0  0  0  0  0  0  0
    0.7812   -1.8874    5.5807 C   0  0  0  0  0  0  0  0  0  0  0  0
    1.3769   -1.7451    6.8666 C   0  0  0  0  0  0  0  0  0  0  0  0
    1.2041   -2.7565    7.8334 C   0  0  0  0  0  0  0  0  0  0  0  0
    0.4019   -3.8287    7.5562 C   0  0  0  0  0  0  0  0  0  0  0  0
    0.1443   -4.8549    8.3984 O   0  0  0  0  0  0  0  0  0  0  0  0
    0.7013   -4.8170    9.6886 C   0  0  0  0  0  0  0  0  0  0  0  0
   -0.2664   -3.9309    6.2828 C   0  0  0  0  0  0  0  0  0  0  0  0
   -1.0506   -5.0246    6.1574 O   0  0  0  0  0  0  0  0  0  0  0  0
   -1.7043   -5.2413    4.9312 C   0  0  0  0  0  0  0  0  0  0  0  0
   -0.0744   -2.9768    5.3217 C   0  0  0  0  0  0  0  0  0  0  0  0
    0.7154   -0.6682    3.3484 C   0  0  0  0  0  0  0  0  0  0  0  0
    0.1703    0.5217    2.8282 C   0  0  0  0  0  0  0  0  0  0  0  0
   -0.1690    1.7722    3.5488 C   0  0  0  0  0  0  0  0  0  0  0  0
    0.0960    2.0682    4.6848 O   0  0  0  0  0  0  0  0  0  0  0  0
   -0.9363    2.6453    2.5730 C   0  0  0  0  0  0  0  0  0  0  0  0
   -0.7716    1.9866    1.2241 C   0  0  0  0  0  0  0  0  0  0  0  0
   -1.0269    2.4676    0.1505 O   0  0  0  0  0  0  0  0  0  0  0  0
   -0.2145    0.6391    1.4888 C   0  0  0  0  0  0  0  0  0  0  0  0
   -0.0835   -0.4062    0.5752 C   0  0  0  0  0  0  0  0  0  0  0  0
    0.4784   -1.5776    1.0784 C   0  0  0  0  0  0  0  0  0  0  0  0
    0.8798   -1.7101    2.4116 C   0  0  0  0  0  0  0  0  0  0  0  0
    1.5928   -2.9997    2.5858 C   0  0  0  0  0  0  0  0  0  0  0  0
    2.0531   -3.4645    3.5956 O   0  0  0  0  0  0  0  0  0  0  0  0
    1.6751   -3.6404    1.2099 C   0  0  0  0  0  0  0  0  0  0  0  0
    0.7727   -2.8187    0.3226 C   0  0  0  0  0  0  0  0  0  0  0  0
    0.3564   -3.1200   -0.7659 O   0  0  0  0  0  0  0  0  0  0  0  0
   -0.4841   -0.2689   -0.8290 C   0  0  0  0  0  0  0  0  0  0  0  0
   -1.7944    0.0345   -1.2012 C   0  0  0  0  0  0  0  0  0  0  0  0
   -2.9620    0.2759   -0.3196 C   0  0  0  0  0  0  0  0  0  0  0  0
   -3.0235    0.1051    0.8710 O   0  0  0  0  0  0  0  0  0  0  0  0
   -4.0706    0.7791   -1.2186 C   0  0  0  0  0  0  0  0  0  0  0  0
   -3.6354    0.4274   -2.6246 C   0  0  0  0  0  0  0  0  0  0  0  0
   -4.3361    0.3332   -3.5971 O   0  0  0  0  0  0  0  0  0  0  0  0
   -2.1757    0.1627   -2.5402 C   0  0  0  0  0  0  0  0  0  0  0  0
   -1.2627    0.0455   -3.5865 C   0  0  0  0  0  0  0  0  0  0  0  0
    0.0501   -0.2401   -3.2141 C   0  0  0  0  0  0  0  0  0  0  0  0
    0.4245   -0.4178   -1.8783 C   0  0  0  0  0  0  0  0  0  0  0  0
    1.8639   -0.7659   -1.8007 C   0  0  0  0  0  0  0  0  0  0  0  0
    2.5392   -0.8619   -0.8082 O   0  0  0  0  0  0  0  0  0  0  0  0
    2.3241   -0.9828   -3.2262 C   0  0  0  0  0  0  0  0  0  0  0  0
    1.2379   -0.3868   -4.0939 C   0  0  0  0  0  0  0  0  0  0  0  0
    1.3337   -0.0579   -5.2469 O   0  0  0  0  0  0  0  0  0  0  0  0
   -1.6541    0.2214   -4.9899 C   0  0  0  0  0  0  0  0  0  0  0  0
   -2.2913    1.3804   -5.4408 C   0  0  0  0  0  0  0  0  0  0  0  0
   -2.6652    2.5952   -4.6712 C   0  0  0  0  0  0  0  0  0  0  0  0
   -2.6327    2.7468   -3.4777 O   0  0  0  0  0  0  0  0  0  0  0  0
   -3.1368    3.6180   -5.6834 C   0  0  0  0  0  0  0  0  0  0  0  0
   -3.3380    2.8506   -6.9705 C   0  0  0  0  0  0  0  0  0  0  0  0
   -3.9470    3.2171   -7.9413 O   0  0  0  0  0  0  0  0  0  0  0  0
   -2.6591    1.5452   -6.7806 C   0  0  0  0  0  0  0  0  0  0  0  0
   -2.3867    0.5831   -7.7507 C   0  0  0  0  0  0  0  0  0  0  0  0
   -1.7438   -0.5686   -7.3010 C   0  0  0  0  0  0  0  0  0  0  0  0
   -1.4010   -0.7545   -5.9577 C   0  0  0  0  0  0  0  0  0  0  0  0
   -0.7789   -2.0923   -5.7827 C   0  0  0  0  0  0  0  0  0  0  0  0
   -0.2595   -2.5348   -4.7914 O   0  0  0  0  0  0  0  0  0  0  0  0
   -0.8988   -2.8022   -7.1151 C   0  0  0  0  0  0  0  0  0  0  0  0
   -1.3234   -1.7418   -8.1056 C   0  0  0  0  0  0  0  0  0  0  0  0
   -1.3014   -1.8279   -9.3058 O   0  0  0  0  0  0  0  0  0  0  0  0
   -2.7486    0.7743   -9.1605 C   0  0  0  0  0  0  0  0  0  0  0  0
   -2.2751    1.8573   -9.9041 C   0  0  0  0  0  0  0  0  0  0  0  0
   -1.3879    2.9609   -9.4608 C   0  0  0  0  0  0  0  0  0  0  0  0
   -0.9140    3.1173   -8.3640 O   0  0  0  0  0  0  0  0  0  0  0  0
   -1.2010    3.8785  -10.6510 C   0  0  0  0  0  0  0  0  0  0  0  0
   -1.9759    3.2533  -11.7949 C   0  0  0  0  0  0  0  0  0  0  0  0
   -2.0545    3.6653  -12.9199 O   0  0  0  0  0  0  0  0  0  0  0  0
   -2.6177    2.0290  -11.2514 C   0  0  0  0  0  0  0  0  0  0  0  0
   -3.4446    1.1397  -11.9205 C   0  0  0  0  0  0  0  0  0  0  0  0
   -3.9178    0.0647  -11.1838 C   0  0  0  0  0  0  0  0  0  0  0  0
   -3.5814   -0.1193   -9.8368 C   0  0  0  0  0  0  0  0  0  0  0  0
   -4.2264   -1.3495   -9.3146 C   0  0  0  0  0  0  0  0  0  0  0  0
   -4.1617   -1.7839   -8.1928 O   0  0  0  0  0  0  0  0  0  0  0  0
   -4.9791   -1.9734  -10.4713 C   0  0  0  0  0  0  0  0  0  0  0  0
   -4.8088   -1.0302  -11.6465 C   0  0  0  0  0  0  0  0  0  0  0  0
   -5.2984   -1.1442  -12.7368 O   0  0  0  0  0  0  0  0  0  0  0  0
    4.8290    1.2097   11.3064 H   0  0  0  0  0  0  0  0  0  0  0  0
   -0.0009    0.8694   11.4176 H   0  0  0  0  0  0  0  0  0  0  0  0
    0.3481   -0.8029   11.7961 H   0  0  0  0  0  0  0  0  0  0  0  0
    7.2700    0.2009    7.1755 H   0  0  0  0  0  0  0  0  0  0  0  0
    6.6798    1.8111    6.8236 H   0  0  0  0  0  0  0  0  0  0  0  0
    1.7121   -2.6667    8.7796 H   0  0  0  0  0  0  0  0  0  0  0  0
    0.3347   -5.7087   10.1942 H   0  0  0  0  0  0  0  0  0  0  0  0
    0.3745   -3.9272   10.2367 H   0  0  0  0  0  0  0  0  0  0  0  0
    1.7956   -4.8425    9.6562 H   0  0  0  0  0  0  0  0  0  0  0  0
   -0.9874   -5.3299    4.1084 H   0  0  0  0  0  0  0  0  0  0  0  0
   -2.2417   -6.1811    5.0465 H   0  0  0  0  0  0  0  0  0  0  0  0
   -2.4168   -4.4407    4.7074 H   0  0  0  0  0  0  0  0  0  0  0  0
   -0.5675   -3.0366    4.3655 H   0  0  0  0  0  0  0  0  0  0  0  0
   -0.6034    3.6838    2.5864 H   0  0  0  0  0  0  0  0  0  0  0  0
   -1.9958    2.6407    2.8438 H   0  0  0  0  0  0  0  0  0  0  0  0
    1.4240   -4.7015    1.2189 H   0  0  0  0  0  0  0  0  0  0  0  0
    2.7013   -3.5528    0.8418 H   0  0  0  0  0  0  0  0  0  0  0  0
   -5.0581    0.4014   -0.9543 H   0  0  0  0  0  0  0  0  0  0  0  0
   -4.0933    1.8710   -1.1445 H   0  0  0  0  0  0  0  0  0  0  0  0
    3.3181   -0.5854   -3.4307 H   0  0  0  0  0  0  0  0  0  0  0  0
    2.3471   -2.0610   -3.4136 H   0  0  0  0  0  0  0  0  0  0  0  0
   -4.0279    4.1566   -5.3597 H   0  0  0  0  0  0  0  0  0  0  0  0
   -2.3443    4.3561   -5.8384 H   0  0  0  0  0  0  0  0  0  0  0  0
   -1.6851   -3.5602   -7.0492 H   0  0  0  0  0  0  0  0  0  0  0  0
    0.0211   -3.3121   -7.4050 H   0  0  0  0  0  0  0  0  0  0  0  0
   -0.1446    3.9990  -10.9002 H   0  0  0  0  0  0  0  0  0  0  0  0
   -1.5849    4.8766  -10.4265 H   0  0  0  0  0  0  0  0  0  0  0  0
   -3.7051    1.2766  -12.9586 H   0  0  0  0  0  0  0  0  0  0  0  0
   -4.5594   -2.9544  -10.7077 H   0  0  0  0  0  0  0  0  0  0  0  0
   -6.0314   -2.1334  -10.2285 H   0  0  0  0  0  0  0  0  0  0  0  0
  1  2  2  0  0  0  0
  2  3  1  0  0  0  0
  3  4  2  0  0  0  0
  3  5  1  0  0  0  0
  5  6  1  0  0  0  0
  6  7  2  0  0  0  0
  6  8  1  0  0  0  0
  8  9  2  0  0  0  0
  9 10  1  0  0  0  0
 10 11  2  0  0  0  0
 11 12  1  0  0  0  0
 12 13  2  0  0  0  0
 12 14  1  0  0  0  0
 14 15  1  0  0  0  0
 15 16  2  0  0  0  0
  9 17  1  0  0  0  0
 17 18  1  0  0  0  0
 18 19  1  0  0  0  0
 19 20  2  0  0  0  0
 20 21  1  0  0  0  0
 21 22  1  0  0  0  0
 22 23  2  0  0  0  0
 23 24  1  0  0  0  0
 24 25  1  0  0  0  0
 23 26  1  0  0  0  0
 26 27  1  0  0  0  0
 27 28  1  0  0  0  0
 26 29  2  0  0  0  0
 19 30  1  0  0  0  0
 30 31  2  0  0  0  0
 31 32  1  0  0  0  0
 32 33  2  0  0  0  0
 32 34  1  0  0  0  0
 34 35  1  0  0  0  0
 35 36  2  0  0  0  0
 35 37  1  0  0  0  0
 37 38  2  0  0  0  0
 38 39  1  0  0  0  0
 39 40  2  0  0  0  0
 40 41  1  0  0  0  0
 41 42  2  0  0  0  0
 41 43  1  0  0  0  0
 43 44  1  0  0  0  0
 44 45  2  0  0  0  0
 38 46  1  0  0  0  0
 46 47  2  0  0  0  0
 47 48  1  0  0  0  0
 48 49  2  0  0  0  0
 48 50  1  0  0  0  0
 50 51  1  0  0  0  0
 51 52  2  0  0  0  0
 51 53  1  0  0  0  0
 53 54  2  0  0  0  0
 54 55  1  0  0  0  0
 55 56  2  0  0  0  0
 56 57  1  0  0  0  0
 57 58  2  0  0  0  0
 57 59  1  0  0  0  0
 59 60  1  0  0  0  0
 60 61  2  0  0  0  0
 54 62  1  0  0  0  0
 62 63  2  0  0  0  0
 63 64  1  0  0  0  0
 64 65  2  0  0  0  0
 64 66  1  0  0  0  0
 66 67  1  0  0  0  0
 67 68  2  0  0  0  0
 67 69  1  0  0  0  0
 69 70  2  0  0  0  0
 70 71  1  0  0  0  0
 71 72  2  0  0  0  0
 72 73  1  0  0  0  0
 73 74  2  0  0  0  0
 73 75  1  0  0  0  0
 75 76  1  0  0  0  0
 76 77  2  0  0  0  0
 70 78  1  0  0  0  0
 78 79  2  0  0  0  0
 79 80  1  0  0  0  0
 80 81  2  0  0  0  0
 80 82  1  0  0  0  0
 82 83  1  0  0  0  0
 83 84  2  0  0  0  0
 83 85  1  0  0  0  0
 85 86  2  0  0  0  0
 86 87  1  0  0  0  0
 87 88  2  0  0  0  0
 88 89  1  0  0  0  0
 89 90  2  0  0  0  0
 89 91  1  0  0  0  0
 91 92  1  0  0  0  0
 92 93  2  0  0  0  0
 11  1  1  0  0  0  0
 21 17  2  0  0  0  0
 40 30  1  0  0  0  0
 56 46  1  0  0  0  0
 72 62  1  0  0  0  0
 88 78  1  0  0  0  0
  8  2  1  0  0  0  0
 15 10  1  0  0  0  0
 29 20  1  0  0  0  0
 37 31  1  0  0  0  0
 44 39  1  0  0  0  0
 53 47  1  0  0  0  0
 60 55  1  0  0  0  0
 69 63  1  0  0  0  0
 76 71  1  0  0  0  0
 85 79  1  0  0  0  0
 92 87  1  0  0  0  0
  1 94  1  0  0  0  0
  5 95  1  0  0  0  0
  5 96  1  0  0  0  0
 14 97  1  0  0  0  0
 14 98  1  0  0  0  0
 22 99  1  0  0  0  0
 25100  1  0  0  0  0
 25101  1  0  0  0  0
 25102  1  0  0  0  0
 28103  1  0  0  0  0
 28104  1  0  0  0  0
 28105  1  0  0  0  0
 29106  1  0  0  0  0
 34107  1  0  0  0  0
 34108  1  0  0  0  0
 43109  1  0  0  0  0
 43110  1  0  0  0  0
 50111  1  0  0  0  0
 50112  1  0  0  0  0
 59113  1  0  0  0  0
 59114  1  0  0  0  0
 66115  1  0  0  0  0
 66116  1  0  0  0  0
 75117  1  0  0  0  0
 75118  1  0  0  0  0
 82119  1  0  0  0  0
 82120  1  0  0  0  0
 86121  1  0  0  0  0
 91122  1  0  0  0  0
 91123  1  0  0  0  0
M  END
