
  xtb     03022207173D
 energy: -365.133865281546 gnorm: 0.000258340213 xtb: 6.4.1 (unknown)
191211  0     0  0            999 V2000
   -4.2066   -5.0939  -15.3852 C   0  0  0  0  0  0  0  0  0  0  0  0
   -2.5513   -5.0964  -14.9720 S   0  0  0  0  0  0  0  0  0  0  0  0
   -2.8562   -4.5048  -13.3589 C   0  0  0  0  0  0  0  0  0  0  0  0
   -4.2351   -4.3118  -13.1846 C   0  0  0  0  0  0  0  0  0  0  0  0
   -4.9956   -4.6557  -14.3486 C   0  0  0  0  0  0  0  0  0  0  0  0
   -6.4080   -4.5362  -14.3455 C   0  0  0  0  0  0  0  0  0  0  0  0
   -7.0481   -4.0883  -13.2290 C   0  0  0  0  0  0  0  0  0  0  0  0
   -8.3887   -3.9386  -13.0886 O   0  0  0  0  0  0  0  0  0  0  0  0
   -9.2116   -4.2795  -14.1757 C   0  0  0  0  0  0  0  0  0  0  0  0
   -6.2853   -3.7128  -12.0635 C   0  0  0  0  0  0  0  0  0  0  0  0
   -7.0360   -3.2644  -11.0286 O   0  0  0  0  0  0  0  0  0  0  0  0
   -6.3856   -2.9034   -9.8341 C   0  0  0  0  0  0  0  0  0  0  0  0
   -4.9223   -3.8174  -12.0555 C   0  0  0  0  0  0  0  0  0  0  0  0
   -1.8064   -4.3540  -12.4197 C   0  0  0  0  0  0  0  0  0  0  0  0
   -2.1645   -4.2318  -10.7271 S   0  0  0  0  0  0  0  0  0  0  0  0
   -0.4961   -4.1507  -10.2563 C   0  0  0  0  0  0  0  0  0  0  0  0
    0.3250   -4.2376  -11.3859 C   0  0  0  0  0  0  0  0  0  0  0  0
   -0.4131   -4.3380  -12.6058 C   0  0  0  0  0  0  0  0  0  0  0  0
    0.2863   -4.3772  -13.8308 C   0  0  0  0  0  0  0  0  0  0  0  0
    1.6528   -4.3693  -13.8529 C   0  0  0  0  0  0  0  0  0  0  0  0
    2.4196   -4.4007  -14.9708 O   0  0  0  0  0  0  0  0  0  0  0  0
    1.7753   -4.4526  -16.2198 C   0  0  0  0  0  0  0  0  0  0  0  0
    2.3941   -4.3286  -12.6227 C   0  0  0  0  0  0  0  0  0  0  0  0
    3.7399   -4.3590  -12.7761 O   0  0  0  0  0  0  0  0  0  0  0  0
    4.5423   -4.3086  -11.6229 C   0  0  0  0  0  0  0  0  0  0  0  0
    1.7350   -4.2545  -11.4273 C   0  0  0  0  0  0  0  0  0  0  0  0
   -0.2287   -3.9711   -8.8760 C   0  0  0  0  0  0  0  0  0  0  0  0
    0.9318   -3.7262   -8.1890 C   0  0  0  0  0  0  0  0  0  0  0  0
    0.7496   -3.5429   -6.7989 C   0  0  0  0  0  0  0  0  0  0  0  0
    1.7272   -3.2983   -5.8165 C   0  0  0  0  0  0  0  0  0  0  0  0
    3.1415   -3.1900   -6.1347 C   0  0  0  0  0  0  0  0  0  0  0  0
    3.7276   -2.0570   -7.3197 S   0  0  0  0  0  0  0  0  0  0  0  0
    5.3850   -2.4567   -7.0020 C   0  0  0  0  0  0  0  0  0  0  0  0
    6.4972   -1.7743   -7.7201 C   0  0  0  0  0  0  0  0  0  0  0  0
    6.4343   -2.0118   -9.2281 C   0  0  0  0  0  0  0  0  0  0  0  0
    5.4586   -3.4266   -6.0490 C   0  0  0  0  0  0  0  0  0  0  0  0
    6.9288   -4.0965   -5.4696 Cl  0  0  0  0  0  0  0  0  0  0  0  0
    4.1924   -3.8417   -5.5526 C   0  0  0  0  0  0  0  0  0  0  0  0
    4.0290   -5.0918   -4.3914 Cl  0  0  0  0  0  0  0  0  0  0  0  0
    1.2817   -3.1240   -4.5112 C   0  0  0  0  0  0  0  0  0  0  0  0
   -0.0827   -3.2046   -4.1406 C   0  0  0  0  0  0  0  0  0  0  0  0
   -1.0522   -3.5237   -5.1099 C   0  0  0  0  0  0  0  0  0  0  0  0
   -2.4477   -3.7006   -4.7519 C   0  0  0  0  0  0  0  0  0  0  0  0
   -3.7213   -2.9148   -5.6386 S   0  0  0  0  0  0  0  0  0  0  0  0
   -4.9532   -3.6235   -4.6513 C   0  0  0  0  0  0  0  0  0  0  0  0
   -6.3909   -3.2984   -4.8603 C   0  0  0  0  0  0  0  0  0  0  0  0
   -6.7704   -2.0043   -4.1367 C   0  0  0  0  0  0  0  0  0  0  0  0
   -4.3952   -4.4157   -3.6930 C   0  0  0  0  0  0  0  0  0  0  0  0
   -2.9765   -4.4676   -3.7497 C   0  0  0  0  0  0  0  0  0  0  0  0
   -2.0531   -5.4719   -2.7076 Cl  0  0  0  0  0  0  0  0  0  0  0  0
   -5.3012   -5.2883   -2.5259 Cl  0  0  0  0  0  0  0  0  0  0  0  0
   -0.6102   -3.6581   -6.4164 C   0  0  0  0  0  0  0  0  0  0  0  0
   -1.6153   -4.0082   -7.7883 S   0  0  0  0  0  0  0  0  0  0  0  0
   -0.2832   -2.8704   -2.7811 C   0  0  0  0  0  0  0  0  0  0  0  0
    0.8703   -2.5707   -2.1179 C   0  0  0  0  0  0  0  0  0  0  0  0
    2.2785   -2.6851   -3.1533 S   0  0  0  0  0  0  0  0  0  0  0  0
    1.0161   -2.1901   -0.7537 C   0  0  0  0  0  0  0  0  0  0  0  0
    2.1730   -1.9384   -0.0777 C   0  0  0  0  0  0  0  0  0  0  0  0
    1.9695   -1.5624    1.2715 C   0  0  0  0  0  0  0  0  0  0  0  0
    2.9381   -1.1892    2.2201 C   0  0  0  0  0  0  0  0  0  0  0  0
    4.3542   -1.3304    1.9365 C   0  0  0  0  0  0  0  0  0  0  0  0
    5.4781   -0.0323    2.2100 S   0  0  0  0  0  0  0  0  0  0  0  0
    6.8211   -0.9761    1.6656 C   0  0  0  0  0  0  0  0  0  0  0  0
    8.1906   -0.3980    1.5859 C   0  0  0  0  0  0  0  0  0  0  0  0
    8.4206    0.2756    0.2308 C   0  0  0  0  0  0  0  0  0  0  0  0
    6.4076   -2.2211    1.2942 C   0  0  0  0  0  0  0  0  0  0  0  0
    7.4596   -3.4404    0.7018 Cl  0  0  0  0  0  0  0  0  0  0  0  0
    5.0117   -2.4285    1.4501 C   0  0  0  0  0  0  0  0  0  0  0  0
    4.2668   -3.9426    1.1348 Cl  0  0  0  0  0  0  0  0  0  0  0  0
    2.4714   -0.6779    3.4238 C   0  0  0  0  0  0  0  0  0  0  0  0
    1.0941   -0.5962    3.7468 C   0  0  0  0  0  0  0  0  0  0  0  0
    0.1287   -1.0670    2.8368 C   0  0  0  0  0  0  0  0  0  0  0  0
   -1.2900   -1.0680    3.1510 C   0  0  0  0  0  0  0  0  0  0  0  0
   -2.1090    0.3554    3.7292 S   0  0  0  0  0  0  0  0  0  0  0  0
   -3.6425   -0.4496    3.7920 C   0  0  0  0  0  0  0  0  0  0  0  0
   -4.8745    0.2679    4.2205 C   0  0  0  0  0  0  0  0  0  0  0  0
   -5.2476    1.3775    3.2369 C   0  0  0  0  0  0  0  0  0  0  0  0
   -3.5096   -1.7427    3.3862 C   0  0  0  0  0  0  0  0  0  0  0  0
   -2.1810   -2.0984    3.0263 C   0  0  0  0  0  0  0  0  0  0  0  0
   -1.7583   -3.6964    2.5746 Cl  0  0  0  0  0  0  0  0  0  0  0  0
   -4.8051   -2.8657    3.3138 Cl  0  0  0  0  0  0  0  0  0  0  0  0
    0.5933   -1.5161    1.6066 C   0  0  0  0  0  0  0  0  0  0  0  0
   -0.3999   -1.9820    0.2557 S   0  0  0  0  0  0  0  0  0  0  0  0
    0.8874   -0.0250    5.0247 C   0  0  0  0  0  0  0  0  0  0  0  0
    2.0439    0.3321    5.6564 C   0  0  0  0  0  0  0  0  0  0  0  0
    3.4636   -0.0704    4.7171 S   0  0  0  0  0  0  0  0  0  0  0  0
    2.1683    1.0302    6.8955 C   0  0  0  0  0  0  0  0  0  0  0  0
    1.1727    1.6772    7.5702 C   0  0  0  0  0  0  0  0  0  0  0  0
    1.6237    2.3621    8.7219 C   0  0  0  0  0  0  0  0  0  0  0  0
    0.8635    3.1197    9.6333 C   0  0  0  0  0  0  0  0  0  0  0  0
   -0.5537    3.3575    9.4186 C   0  0  0  0  0  0  0  0  0  0  0  0
   -1.1214    3.9624    7.8875 S   0  0  0  0  0  0  0  0  0  0  0  0
   -2.7642    4.0249    8.4269 C   0  0  0  0  0  0  0  0  0  0  0  0
   -3.8590    4.4233    7.5001 C   0  0  0  0  0  0  0  0  0  0  0  0
   -4.2421    3.2577    6.5849 C   0  0  0  0  0  0  0  0  0  0  0  0
   -2.8528    3.5960    9.7168 C   0  0  0  0  0  0  0  0  0  0  0  0
   -4.3221    3.5122   10.6009 Cl  0  0  0  0  0  0  0  0  0  0  0  0
   -1.6040    3.2220   10.2838 C   0  0  0  0  0  0  0  0  0  0  0  0
   -1.4860    2.5743   11.8661 Cl  0  0  0  0  0  0  0  0  0  0  0  0
    1.5432    3.6672   10.7111 C   0  0  0  0  0  0  0  0  0  0  0  0
    2.9346    3.4984   10.9216 C   0  0  0  0  0  0  0  0  0  0  0  0
    3.6948    2.7536   10.0021 C   0  0  0  0  0  0  0  0  0  0  0  0
    5.1267    2.5759   10.1769 C   0  0  0  0  0  0  0  0  0  0  0  0
    5.7784    1.9301   11.6550 S   0  0  0  0  0  0  0  0  0  0  0  0
    7.4044    2.0113   11.0681 C   0  0  0  0  0  0  0  0  0  0  0  0
    8.5554    1.6271   11.9304 C   0  0  0  0  0  0  0  0  0  0  0  0
    8.9524    2.7810   12.8544 C   0  0  0  0  0  0  0  0  0  0  0  0
    7.4246    2.5207    9.8047 C   0  0  0  0  0  0  0  0  0  0  0  0
    6.1368    2.8361    9.2932 C   0  0  0  0  0  0  0  0  0  0  0  0
    5.9139    3.5545    7.7534 Cl  0  0  0  0  0  0  0  0  0  0  0  0
    8.8587    2.7646    8.8948 Cl  0  0  0  0  0  0  0  0  0  0  0  0
    3.0172    2.2016    8.9220 C   0  0  0  0  0  0  0  0  0  0  0  0
    3.7221    1.2153    7.6745 S   0  0  0  0  0  0  0  0  0  0  0  0
    3.3845    4.2023   12.0615 C   0  0  0  0  0  0  0  0  0  0  0  0
    2.4016    4.8916   12.7199 C   0  0  0  0  0  0  0  0  0  0  0  0
    0.8498    4.6975   11.9264 S   0  0  0  0  0  0  0  0  0  0  0  0
    2.5613    5.6832   13.8882 C   0  0  0  0  0  0  0  0  0  0  0  0
    4.1672    5.9405   14.5100 S   0  0  0  0  0  0  0  0  0  0  0  0
    3.5959    6.9060   15.7952 C   0  0  0  0  0  0  0  0  0  0  0  0
    2.2274    7.0399   15.7783 C   0  0  0  0  0  0  0  0  0  0  0  0
    1.6221    6.3375   14.6856 C   0  0  0  0  0  0  0  0  0  0  0  0
    0.2173    6.3661   14.5498 C   0  0  0  0  0  0  0  0  0  0  0  0
   -0.5458    7.0641   15.4421 C   0  0  0  0  0  0  0  0  0  0  0  0
   -1.8956    7.1517   15.4090 O   0  0  0  0  0  0  0  0  0  0  0  0
   -2.5849    6.4663   14.3908 C   0  0  0  0  0  0  0  0  0  0  0  0
    0.0686    7.7868   16.5323 C   0  0  0  0  0  0  0  0  0  0  0  0
   -0.8138    8.4401   17.3276 O   0  0  0  0  0  0  0  0  0  0  0  0
   -0.3112    9.1731   18.4164 C   0  0  0  0  0  0  0  0  0  0  0  0
    1.4219    7.7668   16.6910 C   0  0  0  0  0  0  0  0  0  0  0  0
   -4.5090   -5.4119  -16.3625 H   0  0  0  0  0  0  0  0  0  0  0  0
   -6.9423   -4.8110  -15.2401 H   0  0  0  0  0  0  0  0  0  0  0  0
   -9.1048   -5.3357  -14.4443 H   0  0  0  0  0  0  0  0  0  0  0  0
  -10.2314   -4.0926  -13.8436 H   0  0  0  0  0  0  0  0  0  0  0  0
   -8.9960   -3.6599  -15.0525 H   0  0  0  0  0  0  0  0  0  0  0  0
   -5.7058   -2.0585   -9.9836 H   0  0  0  0  0  0  0  0  0  0  0  0
   -5.8257   -3.7430   -9.4095 H   0  0  0  0  0  0  0  0  0  0  0  0
   -7.1787   -2.6105   -9.1482 H   0  0  0  0  0  0  0  0  0  0  0  0
   -4.3667   -3.5091  -11.1890 H   0  0  0  0  0  0  0  0  0  0  0  0
   -0.2697   -4.3998  -14.7504 H   0  0  0  0  0  0  0  0  0  0  0  0
    1.1533   -3.5674  -16.3883 H   0  0  0  0  0  0  0  0  0  0  0  0
    2.5731   -4.4798  -16.9600 H   0  0  0  0  0  0  0  0  0  0  0  0
    1.1574   -5.3512  -16.3163 H   0  0  0  0  0  0  0  0  0  0  0  0
    5.5708   -4.3228  -11.9795 H   0  0  0  0  0  0  0  0  0  0  0  0
    4.3702   -5.1746  -10.9750 H   0  0  0  0  0  0  0  0  0  0  0  0
    4.3674   -3.3898  -11.0542 H   0  0  0  0  0  0  0  0  0  0  0  0
    2.2817   -4.2247  -10.5031 H   0  0  0  0  0  0  0  0  0  0  0  0
    1.8970   -3.6477   -8.6491 H   0  0  0  0  0  0  0  0  0  0  0  0
    7.4407   -2.1507   -7.3221 H   0  0  0  0  0  0  0  0  0  0  0  0
    6.4462   -0.6999   -7.5246 H   0  0  0  0  0  0  0  0  0  0  0  0
    6.4949   -3.0752   -9.4469 H   0  0  0  0  0  0  0  0  0  0  0  0
    5.5013   -1.6225   -9.6292 H   0  0  0  0  0  0  0  0  0  0  0  0
    7.2611   -1.5076   -9.7207 H   0  0  0  0  0  0  0  0  0  0  0  0
   -6.5846   -3.1883   -5.9288 H   0  0  0  0  0  0  0  0  0  0  0  0
   -6.9950   -4.1224   -4.4763 H   0  0  0  0  0  0  0  0  0  0  0  0
   -6.5913   -2.1042   -3.0692 H   0  0  0  0  0  0  0  0  0  0  0  0
   -6.1765   -1.1747   -4.5129 H   0  0  0  0  0  0  0  0  0  0  0  0
   -7.8223   -1.7822   -4.2942 H   0  0  0  0  0  0  0  0  0  0  0  0
   -1.2473   -2.8288   -2.3077 H   0  0  0  0  0  0  0  0  0  0  0  0
    3.1385   -1.9959   -0.5465 H   0  0  0  0  0  0  0  0  0  0  0  0
    8.3203    0.3342    2.3842 H   0  0  0  0  0  0  0  0  0  0  0  0
    8.9187   -1.2000    1.7224 H   0  0  0  0  0  0  0  0  0  0  0  0
    7.7037    1.0798    0.0833 H   0  0  0  0  0  0  0  0  0  0  0  0
    8.3037   -0.4466   -0.5731 H   0  0  0  0  0  0  0  0  0  0  0  0
    9.4245    0.6890    0.1850 H   0  0  0  0  0  0  0  0  0  0  0  0
   -4.7161    0.7038    5.2093 H   0  0  0  0  0  0  0  0  0  0  0  0
   -5.6863   -0.4578    4.2880 H   0  0  0  0  0  0  0  0  0  0  0  0
   -4.4448    2.1080    3.1706 H   0  0  0  0  0  0  0  0  0  0  0  0
   -6.1528    1.8797    3.5672 H   0  0  0  0  0  0  0  0  0  0  0  0
   -5.4218    0.9622    2.2475 H   0  0  0  0  0  0  0  0  0  0  0  0
   -0.0838    0.1209    5.4581 H   0  0  0  0  0  0  0  0  0  0  0  0
    0.1510    1.6761    7.2409 H   0  0  0  0  0  0  0  0  0  0  0  0
   -3.5323    5.2685    6.8918 H   0  0  0  0  0  0  0  0  0  0  0  0
   -4.7246    4.7289    8.0901 H   0  0  0  0  0  0  0  0  0  0  0  0
   -5.0418    3.5570    5.9129 H   0  0  0  0  0  0  0  0  0  0  0  0
   -3.3843    2.9468    5.9923 H   0  0  0  0  0  0  0  0  0  0  0  0
   -4.5826    2.4140    7.1808 H   0  0  0  0  0  0  0  0  0  0  0  0
    8.2852    0.7573   12.5316 H   0  0  0  0  0  0  0  0  0  0  0  0
    9.3990    1.3629   11.2903 H   0  0  0  0  0  0  0  0  0  0  0  0
    8.1199    3.0508   13.5000 H   0  0  0  0  0  0  0  0  0  0  0  0
    9.7958    2.4898   13.4747 H   0  0  0  0  0  0  0  0  0  0  0  0
    9.2347    3.6521   12.2686 H   0  0  0  0  0  0  0  0  0  0  0  0
    4.4072    4.2082   12.3918 H   0  0  0  0  0  0  0  0  0  0  0  0
    4.2917    7.3239   16.4950 H   0  0  0  0  0  0  0  0  0  0  0  0
   -0.2434    5.8264   13.7420 H   0  0  0  0  0  0  0  0  0  0  0  0
   -3.6403    6.6699   14.5629 H   0  0  0  0  0  0  0  0  0  0  0  0
   -2.4090    5.3873   14.4423 H   0  0  0  0  0  0  0  0  0  0  0  0
   -2.3007    6.8297   13.3980 H   0  0  0  0  0  0  0  0  0  0  0  0
   -1.1811    9.6090   18.9047 H   0  0  0  0  0  0  0  0  0  0  0  0
    0.2178    8.5275   19.1252 H   0  0  0  0  0  0  0  0  0  0  0  0
    0.3593    9.9734   18.0861 H   0  0  0  0  0  0  0  0  0  0  0  0
    1.9105    8.2887   17.4973 H   0  0  0  0  0  0  0  0  0  0  0  0
  1  2  1  0  0  0  0
  2  3  1  0  0  0  0
  3  4  2  0  0  0  0
  4  5  1  0  0  0  0
  5  6  1  0  0  0  0
  6  7  2  0  0  0  0
  7  8  1  0  0  0  0
  8  9  1  0  0  0  0
  7 10  1  0  0  0  0
 10 11  1  0  0  0  0
 11 12  1  0  0  0  0
 10 13  2  0  0  0  0
  3 14  1  0  0  0  0
 14 15  1  0  0  0  0
 15 16  1  0  0  0  0
 16 17  2  0  0  0  0
 17 18  1  0  0  0  0
 18 19  1  0  0  0  0
 19 20  2  0  0  0  0
 20 21  1  0  0  0  0
 21 22  1  0  0  0  0
 20 23  1  0  0  0  0
 23 24  1  0  0  0  0
 24 25  1  0  0  0  0
 23 26  2  0  0  0  0
 16 27  1  0  0  0  0
 27 28  2  0  0  0  0
 28 29  1  0  0  0  0
 29 30  2  0  0  0  0
 30 31  1  0  0  0  0
 31 32  1  0  0  0  0
 32 33  1  0  0  0  0
 33 34  1  0  0  0  0
 34 35  1  0  0  0  0
 33 36  2  0  0  0  0
 36 37  1  0  0  0  0
 36 38  1  0  0  0  0
 38 39  1  0  0  0  0
 30 40  1  0  0  0  0
 40 41  2  0  0  0  0
 41 42  1  0  0  0  0
 42 43  1  0  0  0  0
 43 44  1  0  0  0  0
 44 45  1  0  0  0  0
 45 46  1  0  0  0  0
 46 47  1  0  0  0  0
 45 48  2  0  0  0  0
 48 49  1  0  0  0  0
 49 50  1  0  0  0  0
 48 51  1  0  0  0  0
 42 52  2  0  0  0  0
 52 53  1  0  0  0  0
 41 54  1  0  0  0  0
 54 55  2  0  0  0  0
 55 56  1  0  0  0  0
 55 57  1  0  0  0  0
 57 58  2  0  0  0  0
 58 59  1  0  0  0  0
 59 60  2  0  0  0  0
 60 61  1  0  0  0  0
 61 62  1  0  0  0  0
 62 63  1  0  0  0  0
 63 64  1  0  0  0  0
 64 65  1  0  0  0  0
 63 66  2  0  0  0  0
 66 67  1  0  0  0  0
 66 68  1  0  0  0  0
 68 69  1  0  0  0  0
 60 70  1  0  0  0  0
 70 71  2  0  0  0  0
 71 72  1  0  0  0  0
 72 73  1  0  0  0  0
 73 74  1  0  0  0  0
 74 75  1  0  0  0  0
 75 76  1  0  0  0  0
 76 77  1  0  0  0  0
 75 78  2  0  0  0  0
 78 79  1  0  0  0  0
 79 80  1  0  0  0  0
 78 81  1  0  0  0  0
 72 82  2  0  0  0  0
 82 83  1  0  0  0  0
 71 84  1  0  0  0  0
 84 85  2  0  0  0  0
 85 86  1  0  0  0  0
 85 87  1  0  0  0  0
 87 88  2  0  0  0  0
 88 89  1  0  0  0  0
 89 90  2  0  0  0  0
 90 91  1  0  0  0  0
 91 92  1  0  0  0  0
 92 93  1  0  0  0  0
 93 94  1  0  0  0  0
 94 95  1  0  0  0  0
 93 96  2  0  0  0  0
 96 97  1  0  0  0  0
 96 98  1  0  0  0  0
 98 99  1  0  0  0  0
 90100  1  0  0  0  0
100101  2  0  0  0  0
101102  1  0  0  0  0
102103  1  0  0  0  0
103104  1  0  0  0  0
104105  1  0  0  0  0
105106  1  0  0  0  0
106107  1  0  0  0  0
105108  2  0  0  0  0
108109  1  0  0  0  0
109110  1  0  0  0  0
108111  1  0  0  0  0
102112  2  0  0  0  0
112113  1  0  0  0  0
101114  1  0  0  0  0
114115  2  0  0  0  0
115116  1  0  0  0  0
115117  1  0  0  0  0
117118  1  0  0  0  0
118119  1  0  0  0  0
119120  2  0  0  0  0
120121  1  0  0  0  0
121122  1  0  0  0  0
122123  2  0  0  0  0
123124  1  0  0  0  0
124125  1  0  0  0  0
123126  1  0  0  0  0
126127  1  0  0  0  0
127128  1  0  0  0  0
126129  2  0  0  0  0
  5  1  2  0  0  0  0
 18 14  2  0  0  0  0
 53 27  1  0  0  0  0
 83 57  1  0  0  0  0
113 87  1  0  0  0  0
121117  2  0  0  0  0
 13  4  1  0  0  0  0
 26 17  1  0  0  0  0
 52 29  1  0  0  0  0
 82 59  1  0  0  0  0
112 89  1  0  0  0  0
129120  1  0  0  0  0
 38 31  2  0  0  0  0
 56 40  1  0  0  0  0
 68 61  2  0  0  0  0
 86 70  1  0  0  0  0
 98 91  2  0  0  0  0
116100  1  0  0  0  0
 49 43  2  0  0  0  0
 79 73  2  0  0  0  0
109103  2  0  0  0  0
  1130  1  0  0  0  0
  6131  1  0  0  0  0
  9132  1  0  0  0  0
  9133  1  0  0  0  0
  9134  1  0  0  0  0
 12135  1  0  0  0  0
 12136  1  0  0  0  0
 12137  1  0  0  0  0
 13138  1  0  0  0  0
 19139  1  0  0  0  0
 22140  1  0  0  0  0
 22141  1  0  0  0  0
 22142  1  0  0  0  0
 25143  1  0  0  0  0
 25144  1  0  0  0  0
 25145  1  0  0  0  0
 26146  1  0  0  0  0
 28147  1  0  0  0  0
 34148  1  0  0  0  0
 34149  1  0  0  0  0
 35150  1  0  0  0  0
 35151  1  0  0  0  0
 35152  1  0  0  0  0
 46153  1  0  0  0  0
 46154  1  0  0  0  0
 47155  1  0  0  0  0
 47156  1  0  0  0  0
 47157  1  0  0  0  0
 54158  1  0  0  0  0
 58159  1  0  0  0  0
 64160  1  0  0  0  0
 64161  1  0  0  0  0
 65162  1  0  0  0  0
 65163  1  0  0  0  0
 65164  1  0  0  0  0
 76165  1  0  0  0  0
 76166  1  0  0  0  0
 77167  1  0  0  0  0
 77168  1  0  0  0  0
 77169  1  0  0  0  0
 84170  1  0  0  0  0
 88171  1  0  0  0  0
 94172  1  0  0  0  0
 94173  1  0  0  0  0
 95174  1  0  0  0  0
 95175  1  0  0  0  0
 95176  1  0  0  0  0
106177  1  0  0  0  0
106178  1  0  0  0  0
107179  1  0  0  0  0
107180  1  0  0  0  0
107181  1  0  0  0  0
114182  1  0  0  0  0
119183  1  0  0  0  0
122184  1  0  0  0  0
125185  1  0  0  0  0
125186  1  0  0  0  0
125187  1  0  0  0  0
128188  1  0  0  0  0
128189  1  0  0  0  0
128190  1  0  0  0  0
129191  1  0  0  0  0
M  END
