
  xtb     03022214343D
 energy: -217.812068254956 gnorm: 0.003599707934 xtb: 6.4.1 (unknown)
 98109  0     0  0            999 V2000
    6.2335   -2.1317   -0.4217 C   0  0  0  0  0  0  0  0  0  0  0  0
    5.6774   -2.3122   -2.0309 S   0  0  0  0  0  0  0  0  0  0  0  0
    4.1629   -1.5312   -1.6638 C   0  0  0  0  0  0  0  0  0  0  0  0
    4.1361   -1.1642   -0.3354 C   0  0  0  0  0  0  0  0  0  0  0  0
    5.3200   -1.4941    0.3620 C   0  0  0  0  0  0  0  0  0  0  0  0
    5.6227   -1.1256    2.0565 S   0  0  0  0  0  0  0  0  0  0  0  0
    4.8098    0.4118    2.3295 C   0  0  0  0  0  0  0  0  0  0  0  0
    5.0081    1.0027    3.3569 O   0  0  0  0  0  0  0  0  0  0  0  0
    3.7711    0.9490    1.3682 C   0  0  0  0  0  0  0  0  0  0  0  0
    3.3840    2.0801    1.4072 O   0  0  0  0  0  0  0  0  0  0  0  0
    2.8344   -0.2236    0.3722 S   0  0  0  0  0  0  0  0  0  0  0  0
    3.2424   -1.2309   -2.7221 C   0  0  0  0  0  0  0  0  0  0  0  0
    1.8905   -1.2487   -2.6842 C   0  0  0  0  0  0  0  0  0  0  0  0
    1.0474   -1.8177   -1.6945 C   0  0  0  0  0  0  0  0  0  0  0  0
    1.6289   -2.8969   -0.4826 S   0  0  0  0  0  0  0  0  0  0  0  0
    0.0456   -3.2374    0.1412 C   0  0  0  0  0  0  0  0  0  0  0  0
   -0.9273   -2.5513   -0.6143 C   0  0  0  0  0  0  0  0  0  0  0  0
   -0.3516   -1.7409   -1.6380 C   0  0  0  0  0  0  0  0  0  0  0  0
   -1.1876   -0.9862   -2.4802 C   0  0  0  0  0  0  0  0  0  0  0  0
   -2.5471   -1.0430   -2.3471 C   0  0  0  0  0  0  0  0  0  0  0  0
   -3.3101   -0.2731   -3.1924 O   0  0  0  0  0  0  0  0  0  0  0  0
   -4.2652   -0.9644   -3.9905 C   0  0  0  0  0  0  0  0  0  0  0  0
   -3.1320   -1.8461   -1.3140 C   0  0  0  0  0  0  0  0  0  0  0  0
   -4.4838   -1.8048   -1.2335 O   0  0  0  0  0  0  0  0  0  0  0  0
   -5.1355   -2.6304   -0.2975 C   0  0  0  0  0  0  0  0  0  0  0  0
   -2.3267   -2.5782   -0.4755 C   0  0  0  0  0  0  0  0  0  0  0  0
   -0.0853   -4.0401    1.2980 C   0  0  0  0  0  0  0  0  0  0  0  0
   -1.6442   -4.5186    1.9121 S   0  0  0  0  0  0  0  0  0  0  0  0
   -0.9657   -5.1953    3.3650 C   0  0  0  0  0  0  0  0  0  0  0  0
    0.4105   -5.1696    3.2945 C   0  0  0  0  0  0  0  0  0  0  0  0
    0.9129   -4.5140    2.1541 C   0  0  0  0  0  0  0  0  0  0  0  0
    2.6145   -4.2063    1.8501 S   0  0  0  0  0  0  0  0  0  0  0  0
    3.6097   -5.0130    3.0741 C   0  0  0  0  0  0  0  0  0  0  0  0
    4.7955   -4.8956    2.9419 O   0  0  0  0  0  0  0  0  0  0  0  0
    3.0549   -5.8049    4.2359 C   0  0  0  0  0  0  0  0  0  0  0  0
    3.8017   -6.3896    4.9686 O   0  0  0  0  0  0  0  0  0  0  0  0
    1.3330   -5.8577    4.6282 S   0  0  0  0  0  0  0  0  0  0  0  0
   -1.7893   -5.6488    4.4564 C   0  0  0  0  0  0  0  0  0  0  0  0
   -2.8752   -4.9926    4.9074 C   0  0  0  0  0  0  0  0  0  0  0  0
   -3.2515   -3.6831    4.4390 C   0  0  0  0  0  0  0  0  0  0  0  0
   -2.0613   -2.4543    4.1559 S   0  0  0  0  0  0  0  0  0  0  0  0
   -3.2064   -1.4429    3.3230 C   0  0  0  0  0  0  0  0  0  0  0  0
   -4.4874   -1.9715    3.4394 C   0  0  0  0  0  0  0  0  0  0  0  0
   -4.5048   -3.2301    4.0736 C   0  0  0  0  0  0  0  0  0  0  0  0
   -5.8828   -4.3147    4.2320 S   0  0  0  0  0  0  0  0  0  0  0  0
   -7.3151   -3.4994    3.5950 C   0  0  0  0  0  0  0  0  0  0  0  0
   -8.3114   -4.1553    3.4739 O   0  0  0  0  0  0  0  0  0  0  0  0
   -7.3511   -2.0234    3.2563 C   0  0  0  0  0  0  0  0  0  0  0  0
   -8.4064   -1.4682    3.1379 O   0  0  0  0  0  0  0  0  0  0  0  0
   -5.9011   -1.0644    2.9172 S   0  0  0  0  0  0  0  0  0  0  0  0
   -2.6515   -0.4254    2.5076 C   0  0  0  0  0  0  0  0  0  0  0  0
   -3.2429    0.2039    1.4648 C   0  0  0  0  0  0  0  0  0  0  0  0
   -2.5110    0.9704    0.5260 C   0  0  0  0  0  0  0  0  0  0  0  0
   -0.7880    1.1635    0.6113 S   0  0  0  0  0  0  0  0  0  0  0  0
   -0.7483    2.0947   -0.8567 C   0  0  0  0  0  0  0  0  0  0  0  0
   -2.0247    2.2041   -1.3988 C   0  0  0  0  0  0  0  0  0  0  0  0
   -3.0100    1.5828   -0.6175 C   0  0  0  0  0  0  0  0  0  0  0  0
   -4.7377    1.5800   -0.9247 S   0  0  0  0  0  0  0  0  0  0  0  0
   -4.9583    1.8317   -2.6545 C   0  0  0  0  0  0  0  0  0  0  0  0
   -6.0674    1.7169   -3.0973 O   0  0  0  0  0  0  0  0  0  0  0  0
   -3.8330    2.2441   -3.5798 C   0  0  0  0  0  0  0  0  0  0  0  0
   -4.0086    2.2609   -4.7636 O   0  0  0  0  0  0  0  0  0  0  0  0
   -2.3078    2.9259   -2.9739 S   0  0  0  0  0  0  0  0  0  0  0  0
    0.5077    2.6203   -1.2558 C   0  0  0  0  0  0  0  0  0  0  0  0
    0.7076    3.6245   -2.1415 C   0  0  0  0  0  0  0  0  0  0  0  0
    1.9649    4.2048   -2.4685 C   0  0  0  0  0  0  0  0  0  0  0  0
    1.9674    5.7748   -3.2174 S   0  0  0  0  0  0  0  0  0  0  0  0
    3.6959    5.8800   -3.1818 C   0  0  0  0  0  0  0  0  0  0  0  0
    4.2355    4.7306   -2.6311 C   0  0  0  0  0  0  0  0  0  0  0  0
    3.2695    3.7852   -2.2435 C   0  0  0  0  0  0  0  0  0  0  0  0
    3.6309    2.1795   -1.6396 S   0  0  0  0  0  0  0  0  0  0  0  0
    5.2484    2.2068   -0.9694 C   0  0  0  0  0  0  0  0  0  0  0  0
    5.5534    1.2744   -0.2594 O   0  0  0  0  0  0  0  0  0  0  0  0
    6.2944    3.2305   -1.3293 C   0  0  0  0  0  0  0  0  0  0  0  0
    7.4171    3.0985   -0.9289 O   0  0  0  0  0  0  0  0  0  0  0  0
    5.9801    4.5566   -2.4550 S   0  0  0  0  0  0  0  0  0  0  0  0
    4.4136    7.0237   -3.6647 C   0  0  0  0  0  0  0  0  0  0  0  0
    3.8421    8.0992   -4.2019 C   0  0  0  0  0  0  0  0  0  0  0  0
    7.1979   -2.4973   -0.1330 H   0  0  0  0  0  0  0  0  0  0  0  0
    3.7134   -0.9458   -3.6541 H   0  0  0  0  0  0  0  0  0  0  0  0
    1.3690   -0.8569   -3.5469 H   0  0  0  0  0  0  0  0  0  0  0  0
   -0.7706   -0.3604   -3.2531 H   0  0  0  0  0  0  0  0  0  0  0  0
   -3.7934   -1.8076   -4.5013 H   0  0  0  0  0  0  0  0  0  0  0  0
   -4.6136   -0.2417   -4.7264 H   0  0  0  0  0  0  0  0  0  0  0  0
   -5.1074   -1.3159   -3.3930 H   0  0  0  0  0  0  0  0  0  0  0  0
   -6.1963   -2.4068   -0.3993 H   0  0  0  0  0  0  0  0  0  0  0  0
   -4.8080   -2.4084    0.7215 H   0  0  0  0  0  0  0  0  0  0  0  0
   -4.9602   -3.6891   -0.5127 H   0  0  0  0  0  0  0  0  0  0  0  0
   -2.7672   -3.1861    0.2939 H   0  0  0  0  0  0  0  0  0  0  0  0
   -1.4906   -6.5763    4.9259 H   0  0  0  0  0  0  0  0  0  0  0  0
   -3.5128   -5.4485    5.6517 H   0  0  0  0  0  0  0  0  0  0  0  0
   -1.5917   -0.2603    2.6607 H   0  0  0  0  0  0  0  0  0  0  0  0
   -4.2985    0.0959    1.2639 H   0  0  0  0  0  0  0  0  0  0  0  0
    1.3447    2.2076   -0.7121 H   0  0  0  0  0  0  0  0  0  0  0  0
   -0.1428    4.1104   -2.5985 H   0  0  0  0  0  0  0  0  0  0  0  0
    5.4888    6.9594   -3.5629 H   0  0  0  0  0  0  0  0  0  0  0  0
    4.4269    8.9320   -4.5476 H   0  0  0  0  0  0  0  0  0  0  0  0
    2.7725    8.1723   -4.3113 H   0  0  0  0  0  0  0  0  0  0  0  0
  1  2  1  0  0  0  0
  2  3  1  0  0  0  0
  3  4  2  0  0  0  0
  4  5  1  0  0  0  0
  5  6  1  0  0  0  0
  6  7  1  0  0  0  0
  7  8  2  0  0  0  0
  7  9  1  0  0  0  0
  9 10  2  0  0  0  0
  9 11  1  0  0  0  0
  3 12  1  0  0  0  0
 12 13  2  0  0  0  0
 13 14  1  0  0  0  0
 14 15  1  0  0  0  0
 15 16  1  0  0  0  0
 16 17  2  0  0  0  0
 17 18  1  0  0  0  0
 18 19  1  0  0  0  0
 19 20  2  0  0  0  0
 20 21  1  0  0  0  0
 21 22  1  0  0  0  0
 20 23  1  0  0  0  0
 23 24  1  0  0  0  0
 24 25  1  0  0  0  0
 23 26  2  0  0  0  0
 16 27  1  0  0  0  0
 27 28  1  0  0  0  0
 28 29  1  0  0  0  0
 29 30  2  0  0  0  0
 30 31  1  0  0  0  0
 31 32  1  0  0  0  0
 32 33  1  0  0  0  0
 33 34  2  0  0  0  0
 33 35  1  0  0  0  0
 35 36  2  0  0  0  0
 35 37  1  0  0  0  0
 29 38  1  0  0  0  0
 38 39  2  0  0  0  0
 39 40  1  0  0  0  0
 40 41  1  0  0  0  0
 41 42  1  0  0  0  0
 42 43  2  0  0  0  0
 43 44  1  0  0  0  0
 44 45  1  0  0  0  0
 45 46  1  0  0  0  0
 46 47  2  0  0  0  0
 46 48  1  0  0  0  0
 48 49  2  0  0  0  0
 48 50  1  0  0  0  0
 42 51  1  0  0  0  0
 51 52  2  0  0  0  0
 52 53  1  0  0  0  0
 53 54  1  0  0  0  0
 54 55  1  0  0  0  0
 55 56  2  0  0  0  0
 56 57  1  0  0  0  0
 57 58  1  0  0  0  0
 58 59  1  0  0  0  0
 59 60  2  0  0  0  0
 59 61  1  0  0  0  0
 61 62  2  0  0  0  0
 61 63  1  0  0  0  0
 55 64  1  0  0  0  0
 64 65  2  0  0  0  0
 65 66  1  0  0  0  0
 66 67  1  0  0  0  0
 67 68  1  0  0  0  0
 68 69  2  0  0  0  0
 69 70  1  0  0  0  0
 70 71  1  0  0  0  0
 71 72  1  0  0  0  0
 72 73  2  0  0  0  0
 72 74  1  0  0  0  0
 74 75  2  0  0  0  0
 74 76  1  0  0  0  0
 68 77  1  0  0  0  0
 77 78  2  0  0  0  0
  5  1  2  0  0  0  0
 18 14  2  0  0  0  0
 31 27  2  0  0  0  0
 44 40  2  0  0  0  0
 57 53  2  0  0  0  0
 70 66  2  0  0  0  0
 11  4  1  0  0  0  0
 26 17  1  0  0  0  0
 37 30  1  0  0  0  0
 50 43  1  0  0  0  0
 63 56  1  0  0  0  0
 76 69  1  0  0  0  0
  1 79  1  0  0  0  0
 12 80  1  0  0  0  0
 13 81  1  0  0  0  0
 19 82  1  0  0  0  0
 22 83  1  0  0  0  0
 22 84  1  0  0  0  0
 22 85  1  0  0  0  0
 25 86  1  0  0  0  0
 25 87  1  0  0  0  0
 25 88  1  0  0  0  0
 26 89  1  0  0  0  0
 38 90  1  0  0  0  0
 39 91  1  0  0  0  0
 51 92  1  0  0  0  0
 52 93  1  0  0  0  0
 64 94  1  0  0  0  0
 65 95  1  0  0  0  0
 77 96  1  0  0  0  0
 78 97  1  0  0  0  0
 78 98  1  0  0  0  0
M  END
