164

C          1.65600       -3.73850       12.22900
S          0.17840       -3.96730       11.39470
C          0.80070       -3.27850        9.93830
C          2.10750       -2.85860       10.12110
C          2.60260       -3.13630       11.43620
C          3.93740       -2.78750       11.77000
C          4.73250       -2.18900       10.84020
O          6.02710       -1.81340       11.02880
C          6.60480       -2.04130       12.28790
C          4.22290       -1.88770        9.52180
O          5.12600       -1.28000        8.70120
C          4.71830       -0.96750        7.39480
C          2.94300       -2.20400        9.18340
C         -0.03140       -3.09460        8.76310
C         -1.26600       -2.50370        8.90940
C         -2.05740       -2.18030        7.80820
C         -1.57020       -2.33840        6.53060
O         -2.27990       -2.05590        5.41150
C         -3.53040       -1.41080        5.51530
C         -4.00420       -1.11540        4.10060
C         -0.26710       -2.89040        6.32970
C          0.42820       -3.41580        7.45020
C          1.52960       -4.29790        7.22110
O          2.03100       -4.91880        8.31980
C          3.12030       -5.80860        8.21270
C          2.69800       -7.20470        7.76310
C          1.98350       -4.49920        5.93720
C          1.42380       -3.79960        4.87010
C          0.32780       -2.98220        5.03530
C         -0.11640       -2.16920        3.92030
S         -0.27330       -2.82190        2.32620
C         -0.65630       -1.28930        1.63620
C         -0.67730       -0.30730        2.61040
C         -0.34680       -0.80270        3.90860
C         -0.26880        0.10160        4.99660
C         -0.56920        1.41720        4.81000
O         -0.54720        2.37430        5.78180
C         -0.20780        1.97970        7.08510
C         -0.94920        1.90740        3.50600
O         -1.22580        3.24220        3.46980
C         -1.56180        3.80670        2.22950
C         -0.99530        1.06320        2.43820
C         -0.97200       -1.12090        0.22520
C         -2.03460       -1.81670       -0.30270
C         -2.51000       -1.55230       -1.58560
C         -1.93890       -0.56390       -2.35280
O         -2.39150       -0.22360       -3.59390
C         -3.75930       -0.37850       -3.90930
C         -4.66330        0.48830       -3.03900
C         -0.79290        0.14040       -1.87550
C         -0.27770       -0.18070       -0.58990
C          0.94390        0.42890       -0.16560
O          1.52280       -0.10210        0.94780
C          2.72960        0.42590        1.45040
C          2.53110        1.70140        2.26460
C          1.48970        1.44430       -0.91250
C          0.91930        1.81290       -2.13200
C         -0.15720        1.14280       -2.65370
C         -0.61670        1.53290       -4.00590
C         -1.47000        2.59980       -4.11530
C         -1.91650        3.05290       -5.35740
C         -1.48420        2.45440       -6.51560
O         -1.84040        2.87630       -7.76270
C         -2.98290        3.68130       -7.94490
C         -4.27930        2.92930       -7.65920
C         -0.57650        1.35280       -6.45550
C         -0.14410        0.89090       -5.18170
C          0.75490       -0.21760       -5.11620
O          1.16010       -0.58470       -3.86710
C          1.79100       -1.82540       -3.64410
C          0.82420       -2.99980       -3.75740
C          1.19100       -0.81460       -6.27330
C          0.77350       -0.33820       -7.51730
C         -0.10080        0.71130       -7.63070
C         -0.45270        1.18390       -8.98920
C          0.42630        2.02500       -9.62220
C          0.16820        2.55470      -10.89070
C         -1.00170        2.25030      -11.53910
O         -1.39160        2.75100      -12.75000
C         -0.50910        3.57100      -13.48400
C          0.59470        2.77800      -14.17910
C         -1.93130        1.35570      -10.93150
C         -1.64030        0.79670       -9.66240
C         -2.57220       -0.13160       -9.10660
O         -2.21850       -0.69600       -7.92290
C         -2.94650       -1.79650       -7.42670
C         -2.11460       -2.42120       -6.31680
C         -3.74280       -0.41920       -9.76970
C         -4.02390        0.16860      -11.00940
C         -3.13520        1.02610      -11.58810
H          1.74610       -4.05950       13.24720
H          4.29010       -3.01080       12.76390
H          6.63190       -3.10900       12.53160
H          6.06980       -1.50510       13.07910
H          7.62280       -1.66110       12.21930
H          3.89580       -0.24380        7.39050
H          5.58850       -0.52660        6.91100
H          4.40760       -1.86140        6.84220
H          2.54060       -1.97670        8.20990
H         -1.63030       -2.28250        9.90220
H         -3.04410       -1.78070        7.97960
H         -4.25270       -2.05970        6.03150
H         -3.42800       -0.47520        6.08260
H         -3.29390       -0.46080        3.60270
H         -4.07500       -2.04120        3.53620
H         -4.97860       -0.63600        4.12810
H          3.89550       -5.39910        7.55350
H          3.52700       -5.85420        9.22790
H          1.95250       -7.59840        8.44920
H          3.56060       -7.86560        7.76000
H          2.26590       -7.18060        6.76590
H          2.80190       -5.17100        5.73410
H          1.86290       -3.89910        3.88800
H          0.02350       -0.27920        5.96160
H         -0.28140        2.87880        7.69480
H         -0.89630        1.22000        7.47230
H          0.81500        1.59020        7.13650
H         -1.71010        4.86880        2.41860
H         -0.75930        3.67580        1.49500
H         -2.48590        3.37680        1.82750
H         -1.26170        1.40400        1.45100
H         -2.53670       -2.55520        0.30550
H         -3.35450       -2.11570       -1.95190
H         -4.06600       -1.43140       -3.85560
H         -3.82090       -0.05370       -4.95130
H         -4.35760        1.52870       -3.11820
H         -4.59660        0.18580       -1.99620
H         -5.69430        0.39400       -3.36900
H          3.45170        0.58630        0.63930
H          3.11460       -0.36490        2.10170
H          2.10990        2.49380        1.65120
H          3.48630        2.03360        2.66260
H          1.84900        1.50850        3.08860
H          2.38670        1.95220       -0.59600
H          1.37840        2.60410       -2.70650
H         -1.81770        3.09570       -3.21960
H         -2.59580        3.89100       -5.38460
H         -2.94110        3.95860       -9.00200
H         -2.92310        4.59940       -7.34540
H         -5.13180        3.57140       -7.86270
H         -4.31520        2.60920       -6.62020
H         -4.33520        2.05010       -8.29670
H          2.65250       -1.96020       -4.31090
H          2.16040       -1.74930       -2.61710
H          0.43290       -3.07910       -4.76840
H          1.33370       -3.92410       -3.49850
H         -0.00890       -2.84970       -3.07490
H          1.87080       -1.65210       -6.24530
H          1.13980       -0.82060       -8.41230
H          1.33890        2.30860       -9.11790
H          0.89990        3.21910      -11.32320
H         -0.08290        4.35430      -12.84440
H         -1.14570        4.05110      -14.23350
H          1.21760        2.26310      -13.45220
H          0.15360        2.03510      -14.83900
H          1.21550        3.44940      -14.76620
H         -3.12190       -2.52980       -8.22680
H         -3.92170       -1.46670       -7.03790
H         -1.18550       -2.80160       -6.73280
H         -1.87280       -1.66990       -5.57030
H         -2.66090       -3.23830       -5.85310
H         -4.46370       -1.10100       -9.34510
H         -4.95260       -0.07650      -11.50380
H         -3.33280        1.46870      -12.55070
