
  xtb     03022204493D
 energy: -192.965520963793 gnorm: 0.000544132849 xtb: 6.4.1 (unknown)
 88 99  0     0  0            999 V2000
    9.3471    3.1422    0.0017 C   0  0  0  0  0  0  0  0  0  0  0  0
    8.0761    2.3466    0.8536 S   0  0  0  0  0  0  0  0  0  0  0  0
    7.0061    2.3085   -0.5282 C   0  0  0  0  0  0  0  0  0  0  0  0
    7.6360    2.9290   -1.6102 C   0  0  0  0  0  0  0  0  0  0  0  0
    8.9651    3.3829   -1.2845 C   0  0  0  0  0  0  0  0  0  0  0  0
    9.4863    3.9940   -2.3859 N   0  0  0  0  0  0  0  0  0  0  0  0
    8.5253    3.9702   -3.3696 C   0  0  0  0  0  0  0  0  0  0  0  0
    8.7885    4.5328   -4.6239 N   0  0  0  0  0  4  0  0  0  0  0  0
    7.9237    4.4523   -5.4794 O   0  0  0  0  0  1  0  0  0  0  0  0
    9.8822    5.0615   -4.7716 O   0  0  0  0  0  0  0  0  0  0  0  0
    7.3783    3.3390   -2.9340 C   0  0  0  0  0  0  0  0  0  0  0  0
    5.7247    1.7318   -0.4156 C   0  0  0  0  0  0  0  0  0  0  0  0
    4.9415    1.6942    1.1362 S   0  0  0  0  0  0  0  0  0  0  0  0
    3.4949    0.9610    0.4942 C   0  0  0  0  0  0  0  0  0  0  0  0
    3.6424    0.7220   -0.8849 C   0  0  0  0  0  0  0  0  0  0  0  0
    4.9068    1.1399   -1.3898 C   0  0  0  0  0  0  0  0  0  0  0  0
    5.2476    0.8666   -2.7292 C   0  0  0  0  0  0  0  0  0  0  0  0
    4.3417    0.2668   -3.5633 C   0  0  0  0  0  0  0  0  0  0  0  0
    4.5542   -0.0395   -4.8587 O   0  0  0  0  0  0  0  0  0  0  0  0
    5.7912    0.2984   -5.4428 C   0  0  0  0  0  0  0  0  0  0  0  0
    3.0395   -0.1008   -3.0697 C   0  0  0  0  0  0  0  0  0  0  0  0
    2.2338   -0.6713   -3.9851 O   0  0  0  0  0  0  0  0  0  0  0  0
    0.9469   -1.0903   -3.5909 C   0  0  0  0  0  0  0  0  0  0  0  0
    2.7173    0.1153   -1.7543 C   0  0  0  0  0  0  0  0  0  0  0  0
    2.4200    0.7005    1.3556 C   0  0  0  0  0  0  0  0  0  0  0  0
    0.8848    0.0284    0.8371 S   0  0  0  0  0  0  0  0  0  0  0  0
    0.1707    0.0395    2.4367 C   0  0  0  0  0  0  0  0  0  0  0  0
    1.1078    0.5388    3.3542 C   0  0  0  0  0  0  0  0  0  0  0  0
    2.3417    0.9063    2.7320 C   0  0  0  0  0  0  0  0  0  0  0  0
    3.1898    1.3500    3.6942 N   0  0  0  0  0  0  0  0  0  0  0  0
    2.5436    1.2548    4.8995 C   0  0  0  0  0  0  0  0  0  0  0  0
    3.2092    1.6302    6.0791 N   0  0  0  0  0  4  0  0  0  0  0  0
    4.3520    2.0413    5.9494 O   0  0  0  0  0  1  0  0  0  0  0  0
    2.6134    1.5192    7.1314 O   0  0  0  0  0  0  0  0  0  0  0  0
    1.2648    0.7615    4.7378 C   0  0  0  0  0  0  0  0  0  0  0  0
   -1.1367   -0.4324    2.5827 C   0  0  0  0  0  0  0  0  0  0  0  0
   -1.8918   -1.2754    1.2318 S   0  0  0  0  0  0  0  0  0  0  0  0
   -3.4000   -1.5585    2.0726 C   0  0  0  0  0  0  0  0  0  0  0  0
   -3.3166   -0.9998    3.3545 C   0  0  0  0  0  0  0  0  0  0  0  0
   -2.0595   -0.3763    3.6240 C   0  0  0  0  0  0  0  0  0  0  0  0
   -2.1183    0.1568    4.8695 N   0  0  0  0  0  0  0  0  0  0  0  0
   -3.3630   -0.1120    5.3880 C   0  0  0  0  0  0  0  0  0  0  0  0
   -3.6869    0.3496    6.6752 N   0  0  0  0  0  4  0  0  0  0  0  0
   -4.7881    0.0913    7.1166 O   0  0  0  0  0  1  0  0  0  0  0  0
   -2.8200    0.9859    7.2542 O   0  0  0  0  0  0  0  0  0  0  0  0
   -4.1296   -0.8270    4.4920 C   0  0  0  0  0  0  0  0  0  0  0  0
   -4.4493   -2.2447    1.4607 C   0  0  0  0  0  0  0  0  0  0  0  0
   -5.9728   -2.5811    2.2631 S   0  0  0  0  0  0  0  0  0  0  0  0
   -6.6533   -3.4328    0.8966 C   0  0  0  0  0  0  0  0  0  0  0  0
   -5.7202   -3.4641   -0.1504 C   0  0  0  0  0  0  0  0  0  0  0  0
   -4.5047   -2.7910    0.1822 C   0  0  0  0  0  0  0  0  0  0  0  0
   -3.6532   -2.8882   -0.8670 N   0  0  0  0  0  0  0  0  0  0  0  0
   -4.2785   -3.6187   -1.8457 C   0  0  0  0  0  0  0  0  0  0  0  0
   -3.5985   -3.8802   -3.0482 N   0  0  0  0  0  4  0  0  0  0  0  0
   -4.1618   -4.5408   -3.8954 O   0  0  0  0  0  1  0  0  0  0  0  0
   -2.4729   -3.4124   -3.1441 O   0  0  0  0  0  0  0  0  0  0  0  0
   -5.5455   -3.9954   -1.4487 C   0  0  0  0  0  0  0  0  0  0  0  0
   -7.9567   -3.9594    0.9856 C   0  0  0  0  0  0  0  0  0  0  0  0
   -8.7314   -4.1586    2.5515 S   0  0  0  0  0  0  0  0  0  0  0  0
  -10.1732   -4.7975    1.8916 C   0  0  0  0  0  0  0  0  0  0  0  0
  -10.1010   -4.8601    0.5186 C   0  0  0  0  0  0  0  0  0  0  0  0
   -8.8448   -4.3820    0.0073 C   0  0  0  0  0  0  0  0  0  0  0  0
   -8.8959   -4.4425   -1.3476 N   0  0  0  0  0  0  0  0  0  0  0  0
  -10.1288   -4.9416   -1.7026 C   0  0  0  0  0  0  0  0  0  0  0  0
  -10.4363   -5.0901   -3.0707 N   0  0  0  0  0  4  0  0  0  0  0  0
  -11.5207   -5.5430   -3.3678 O   0  0  0  0  0  1  0  0  0  0  0  0
   -9.5713   -4.7409   -3.8570 O   0  0  0  0  0  0  0  0  0  0  0  0
  -10.8975   -5.2200   -0.5982 C   0  0  0  0  0  0  0  0  0  0  0  0
   10.2624    3.3752    0.5042 H   0  0  0  0  0  0  0  0  0  0  0  0
   10.3880    4.4270   -2.5022 H   0  0  0  0  0  0  0  0  0  0  0  0
    6.4781    3.2406   -3.5047 H   0  0  0  0  0  0  0  0  0  0  0  0
    6.2402    1.1032   -3.0670 H   0  0  0  0  0  0  0  0  0  0  0  0
    6.6223   -0.2110   -4.9452 H   0  0  0  0  0  0  0  0  0  0  0  0
    5.9632    1.3789   -5.4272 H   0  0  0  0  0  0  0  0  0  0  0  0
    5.7281   -0.0390   -6.4754 H   0  0  0  0  0  0  0  0  0  0  0  0
    0.3431   -0.2485   -3.2387 H   0  0  0  0  0  0  0  0  0  0  0  0
    0.4888   -1.5171   -4.4806 H   0  0  0  0  0  0  0  0  0  0  0  0
    0.9945   -1.8548   -2.8099 H   0  0  0  0  0  0  0  0  0  0  0  0
    1.7574   -0.1876   -1.3759 H   0  0  0  0  0  0  0  0  0  0  0  0
    4.1387    1.6780    3.5992 H   0  0  0  0  0  0  0  0  0  0  0  0
    0.5870    0.5714    5.5440 H   0  0  0  0  0  0  0  0  0  0  0  0
   -1.4354    0.7153    5.3571 H   0  0  0  0  0  0  0  0  0  0  0  0
   -5.1336   -1.1631    4.6494 H   0  0  0  0  0  0  0  0  0  0  0  0
   -2.7169   -2.5245   -0.9568 H   0  0  0  0  0  0  0  0  0  0  0  0
   -6.2046   -4.6056   -2.0307 H   0  0  0  0  0  0  0  0  0  0  0  0
  -10.9788   -5.0803    2.5373 H   0  0  0  0  0  0  0  0  0  0  0  0
   -8.2227   -4.1233   -2.0265 H   0  0  0  0  0  0  0  0  0  0  0  0
  -11.8910   -5.6179   -0.6019 H   0  0  0  0  0  0  0  0  0  0  0  0
  1  2  1  0  0  0  0
  2  3  1  0  0  0  0
  3  4  2  0  0  0  0
  4  5  1  0  0  0  0
  5  6  1  0  0  0  0
  6  7  1  0  0  0  0
  7  8  1  0  0  0  0
  8  9  1  0  0  0  0
  8 10  2  0  0  0  0
  7 11  2  0  0  0  0
  3 12  1  0  0  0  0
 12 13  1  0  0  0  0
 13 14  1  0  0  0  0
 14 15  2  0  0  0  0
 15 16  1  0  0  0  0
 16 17  1  0  0  0  0
 17 18  2  0  0  0  0
 18 19  1  0  0  0  0
 19 20  1  0  0  0  0
 18 21  1  0  0  0  0
 21 22  1  0  0  0  0
 22 23  1  0  0  0  0
 21 24  2  0  0  0  0
 14 25  1  0  0  0  0
 25 26  1  0  0  0  0
 26 27  1  0  0  0  0
 27 28  2  0  0  0  0
 28 29  1  0  0  0  0
 29 30  1  0  0  0  0
 30 31  1  0  0  0  0
 31 32  1  0  0  0  0
 32 33  1  0  0  0  0
 32 34  2  0  0  0  0
 31 35  2  0  0  0  0
 27 36  1  0  0  0  0
 36 37  1  0  0  0  0
 37 38  1  0  0  0  0
 38 39  2  0  0  0  0
 39 40  1  0  0  0  0
 40 41  1  0  0  0  0
 41 42  1  0  0  0  0
 42 43  1  0  0  0  0
 43 44  1  0  0  0  0
 43 45  2  0  0  0  0
 42 46  2  0  0  0  0
 38 47  1  0  0  0  0
 47 48  1  0  0  0  0
 48 49  1  0  0  0  0
 49 50  2  0  0  0  0
 50 51  1  0  0  0  0
 51 52  1  0  0  0  0
 52 53  1  0  0  0  0
 53 54  1  0  0  0  0
 54 55  1  0  0  0  0
 54 56  2  0  0  0  0
 53 57  2  0  0  0  0
 49 58  1  0  0  0  0
 58 59  1  0  0  0  0
 59 60  1  0  0  0  0
 60 61  2  0  0  0  0
 61 62  1  0  0  0  0
 62 63  1  0  0  0  0
 63 64  1  0  0  0  0
 64 65  1  0  0  0  0
 65 66  1  0  0  0  0
 65 67  2  0  0  0  0
 64 68  2  0  0  0  0
  5  1  2  0  0  0  0
 16 12  2  0  0  0  0
 29 25  2  0  0  0  0
 40 36  2  0  0  0  0
 51 47  2  0  0  0  0
 62 58  2  0  0  0  0
 11  4  1  0  0  0  0
 24 15  1  0  0  0  0
 35 28  1  0  0  0  0
 46 39  1  0  0  0  0
 57 50  1  0  0  0  0
 68 61  1  0  0  0  0
  1 69  1  0  0  0  0
  6 70  1  0  0  0  0
 11 71  1  0  0  0  0
 17 72  1  0  0  0  0
 20 73  1  0  0  0  0
 20 74  1  0  0  0  0
 20 75  1  0  0  0  0
 23 76  1  0  0  0  0
 23 77  1  0  0  0  0
 23 78  1  0  0  0  0
 24 79  1  0  0  0  0
 30 80  1  0  0  0  0
 35 81  1  0  0  0  0
 41 82  1  0  0  0  0
 46 83  1  0  0  0  0
 52 84  1  0  0  0  0
 57 85  1  0  0  0  0
 60 86  1  0  0  0  0
 63 87  1  0  0  0  0
 68 88  1  0  0  0  0
M  CHG  1   8   1
M  CHG  1   9  -1
M  CHG  1  32   1
M  CHG  1  33  -1
M  CHG  1  43   1
M  CHG  1  44  -1
M  CHG  1  54   1
M  CHG  1  55  -1
M  CHG  1  65   1
M  CHG  1  66  -1
M  END
