93

C          9.93620        0.47000       13.67110
C          9.31430        0.31630       12.47230
C          7.89540        0.16980       12.55610
C          7.35770        0.20750       13.88360
O          6.24520        0.11800       14.31030
S          8.83380        0.44700       14.99210
C          7.40930        0.02340       11.26590
O          8.44080        0.06980       10.38710
C          9.65770        0.24980       11.05640
O         10.69500        0.31840       10.47130
C          6.06040       -0.15230       10.89200
C          5.49100       -0.31060        9.66060
C          6.03640       -0.34690        8.35870
C          5.23610       -0.55370        7.24080
C          5.90310       -0.58020        6.00070
C          7.32670       -0.37440        6.07350
O          8.16790       -0.33200        5.22400
S          7.70810       -0.16130        7.85890
C          4.95220       -0.81970        5.01100
O          3.72270       -0.93220        5.58510
C          3.82270       -0.77900        6.96510
O          2.86790       -0.83860        7.68640
C          5.14960       -0.95770        3.63150
C          4.15120       -1.22470        2.73360
C          4.37820       -1.39630        1.36120
C          3.43750       -1.69490        0.38590
C          3.95030       -1.84050       -0.91950
C          5.36690       -1.65290       -1.05860
O          6.08480       -1.70420       -2.01610
S          5.97830       -1.27930        0.62860
C          2.88600       -2.14440       -1.77130
O          1.73600       -2.20010       -1.04080
C          2.00210       -1.92310        0.30060
O          1.12950       -1.88860        1.12070
C          2.95700       -2.44110       -3.13560
C          1.93440       -2.73780       -4.00470
C          0.55480       -2.50630       -3.89000
S         -0.49760       -3.54270       -4.81660
C         -1.92570       -2.71100       -4.28890
C         -1.59960       -1.67640       -3.39040
C         -0.19350       -1.52500       -3.20660
C          0.28690       -0.42590       -2.47840
C         -0.59550        0.41890       -1.84510
O         -0.25650        1.49260       -1.11620
C          1.10560        1.77130       -0.89390
C         -2.01510        0.18030       -1.92510
O         -2.77030        1.05750       -1.25850
C         -4.17270        0.99790       -1.41590
C         -2.49280       -0.86760       -2.67800
C         -3.16550       -3.08790       -4.83350
C         -4.30810       -2.34660       -5.10410
C         -5.33070       -3.07200       -5.77130
C         -5.06140       -4.45760       -6.03530
O         -5.71940       -5.31630       -6.54470
S         -3.36070       -4.74280       -5.41570
C         -6.34150       -2.18390       -6.11870
O         -6.00350       -0.94460       -5.68160
C         -4.75640       -0.96240       -5.07220
O         -4.25830        0.04800       -4.65080
C         -7.52110       -2.48570       -6.82530
C         -8.48540       -1.66710       -7.34040
C         -8.59920       -0.26010       -7.40300
C         -9.65280        0.35680       -8.05590
C         -9.61650        1.77510       -8.09430
C         -8.48100        2.36530       -7.43220
O         -8.15400        3.50620       -7.28110
S         -7.49660        0.96030       -6.77990
C        -10.72150        2.20180       -8.80330
O        -11.45190        1.13250       -9.20590
C        -10.84540       -0.05090       -8.77730
O        -11.31240       -1.12850       -9.01950
C        -11.12530        3.53310       -9.13200
C        -12.22430        3.80750       -9.84050
H         10.98630        0.59630       13.85460
H          5.39410       -0.16400       11.74500
H          4.41350       -0.43980        9.65230
H          6.17200       -0.85260        3.29340
H          3.12900       -1.32720        3.07540
H          3.97150       -2.54070       -3.49850
H          2.22840       -3.25280       -4.91240
H          1.34530       -0.23400       -2.45240
H          1.63010        1.99500       -1.82800
H          1.60190        0.93990       -0.38320
H          1.12310        2.64920       -0.25080
H         -4.56210        1.87730       -0.90670
H         -4.58520        0.09700       -0.95180
H         -4.44800        1.02680       -2.47490
H         -3.54530       -1.06930       -2.73810
H         -7.64470       -3.54900       -6.98710
H         -9.31370       -2.16330       -7.83520
H        -10.46750        4.30760       -8.76380
H        -12.50340        4.81890      -10.07690
H        -12.86430        3.01810      -10.19760
