
  xtb     03022217293D
 energy: -296.078182090261 gnorm: 0.000784943714 xtb: 6.4.1 (unknown)
153164  0     0  0            999 V2000
   -2.4205   -1.0844    6.4331 C   0  0  0  0  0  0  0  0  0  0  0  0
   -1.5518   -0.6468    7.3446 C   0  0  0  0  0  0  0  0  0  0  0  0
   -1.3507    0.8217    7.1640 C   0  0  0  0  0  0  0  0  0  0  0  0
    0.0599    1.1925    6.8347 N   0  0  0  0  0  4  0  0  0  0  0  0
    0.8564    0.3176    6.6645 O   0  0  0  0  0  1  0  0  0  0  0  0
    0.2774    2.3818    6.7826 O   0  0  0  0  0  0  0  0  0  0  0  0
   -2.2574    1.1572    5.9939 C   0  0  0  0  0  0  0  0  0  0  0  0
   -2.2684    2.5443    5.4402 C   0  0  0  0  0  0  0  0  0  0  0  0
   -3.4345    3.4337    5.7183 C   0  0  0  0  0  0  0  0  0  0  0  0
   -3.8012    4.0766    4.5891 C   0  0  0  0  0  0  0  0  0  0  0  0
   -2.9937    3.6279    3.4939 C   0  0  0  0  0  0  0  0  0  0  0  0
   -2.1266    2.6933    3.9579 C   0  0  0  0  0  0  0  0  0  0  0  0
   -1.1705    1.9725    3.2339 N   0  0  0  0  0  4  0  0  0  0  0  0
   -0.4470    1.2158    3.8550 O   0  0  0  0  0  1  0  0  0  0  0  0
   -1.1387    2.1198    2.0221 O   0  0  0  0  0  0  0  0  0  0  0  0
   -2.8808    0.0209    5.5890 C   0  0  0  0  0  0  0  0  0  0  0  0
   -3.8164   -0.2321    4.5228 C   0  0  0  0  0  0  0  0  0  0  0  0
   -4.6656    0.6494    3.9772 C   0  0  0  0  0  0  0  0  0  0  0  0
   -5.6265    0.3185    2.9470 C   0  0  0  0  0  0  0  0  0  0  0  0
   -6.8697    0.8374    2.9019 C   0  0  0  0  0  0  0  0  0  0  0  0
   -7.6660    0.1839    1.8132 C   0  0  0  0  0  0  0  0  0  0  0  0
   -8.8239   -0.5103    2.4559 N   0  0  0  0  0  4  0  0  0  0  0  0
   -9.8449    0.1215    2.5491 O   0  0  0  0  0  1  0  0  0  0  0  0
   -8.6491   -1.6355    2.8463 O   0  0  0  0  0  0  0  0  0  0  0  0
   -6.6732   -0.7637    1.2119 C   0  0  0  0  0  0  0  0  0  0  0  0
   -7.0569   -1.6477    0.0597 C   0  0  0  0  0  0  0  0  0  0  0  0
   -8.0303   -0.9838   -0.8638 C   0  0  0  0  0  0  0  0  0  0  0  0
   -9.1715   -1.6921   -0.9355 C   0  0  0  0  0  0  0  0  0  0  0  0
   -9.0545   -2.8715   -0.1225 C   0  0  0  0  0  0  0  0  0  0  0  0
   -7.8347   -2.8769    0.4639 C   0  0  0  0  0  0  0  0  0  0  0  0
   -7.3062   -3.9129    1.2564 N   0  0  0  0  0  4  0  0  0  0  0  0
   -8.0474   -4.8142    1.5867 O   0  0  0  0  0  1  0  0  0  0  0  0
   -6.1148   -3.8704    1.5207 O   0  0  0  0  0  0  0  0  0  0  0  0
   -5.4803   -0.6749    1.8579 C   0  0  0  0  0  0  0  0  0  0  0  0
   -4.2977   -1.4106    1.5203 C   0  0  0  0  0  0  0  0  0  0  0  0
   -3.0358   -0.9782    1.7384 C   0  0  0  0  0  0  0  0  0  0  0  0
   -1.8254   -1.6678    1.4778 C   0  0  0  0  0  0  0  0  0  0  0  0
   -0.3695   -0.7296    1.5718 S   0  0  0  0  0  0  0  0  0  0  0  0
    0.6120   -2.0336    1.0429 C   0  0  0  0  0  0  0  0  0  0  0  0
   -0.1427   -3.1944    0.8730 C   0  0  0  0  0  0  0  0  0  0  0  0
   -1.5335   -2.9982    1.1351 C   0  0  0  0  0  0  0  0  0  0  0  0
   -2.4023   -4.1082    1.0775 C   0  0  0  0  0  0  0  0  0  0  0  0
   -1.9205   -5.3426    0.7293 C   0  0  0  0  0  0  0  0  0  0  0  0
   -2.6586   -6.4714    0.6497 O   0  0  0  0  0  0  0  0  0  0  0  0
   -4.0355   -6.3963    0.9406 C   0  0  0  0  0  0  0  0  0  0  0  0
   -0.5242   -5.5255    0.4252 C   0  0  0  0  0  0  0  0  0  0  0  0
   -0.1873   -6.7907    0.0758 O   0  0  0  0  0  0  0  0  0  0  0  0
    1.1530   -7.0531   -0.2551 C   0  0  0  0  0  0  0  0  0  0  0  0
    0.3420   -4.4741    0.5213 C   0  0  0  0  0  0  0  0  0  0  0  0
    2.0230   -1.8001    0.9173 C   0  0  0  0  0  0  0  0  0  0  0  0
    2.7282   -1.0415    1.7833 C   0  0  0  0  0  0  0  0  0  0  0  0
    4.1586   -0.9722    1.3512 C   0  0  0  0  0  0  0  0  0  0  0  0
    4.3920    0.4364    0.9006 N   0  0  0  0  0  4  0  0  0  0  0  0
    4.0357    0.7367   -0.2132 O   0  0  0  0  0  1  0  0  0  0  0  0
    4.9296    1.1760    1.6812 O   0  0  0  0  0  0  0  0  0  0  0  0
    4.1925   -1.8934    0.1666 C   0  0  0  0  0  0  0  0  0  0  0  0
    5.4865   -2.1339   -0.5601 C   0  0  0  0  0  0  0  0  0  0  0  0
    6.6203   -2.2919    0.4071 C   0  0  0  0  0  0  0  0  0  0  0  0
    7.5633   -1.3587    0.1861 C   0  0  0  0  0  0  0  0  0  0  0  0
    7.1763   -0.5452   -0.9336 C   0  0  0  0  0  0  0  0  0  0  0  0
    5.9778   -0.9747   -1.3927 C   0  0  0  0  0  0  0  0  0  0  0  0
    5.3322   -0.5086   -2.5484 N   0  0  0  0  0  4  0  0  0  0  0  0
    4.5048   -1.2347   -3.0737 O   0  0  0  0  0  1  0  0  0  0  0  0
    5.6502    0.5818   -2.9828 O   0  0  0  0  0  0  0  0  0  0  0  0
    2.9317   -2.3011   -0.1357 C   0  0  0  0  0  0  0  0  0  0  0  0
    2.5729   -2.8289   -1.4243 C   0  0  0  0  0  0  0  0  0  0  0  0
    1.3725   -2.8039   -2.0163 C   0  0  0  0  0  0  0  0  0  0  0  0
    1.3900   -2.8606   -3.4797 C   0  0  0  0  0  0  0  0  0  0  0  0
    1.3585   -3.9112   -4.3081 C   0  0  0  0  0  0  0  0  0  0  0  0
    1.8268   -3.5004   -5.6651 C   0  0  0  0  0  0  0  0  0  0  0  0
    0.8384   -3.6433   -6.7584 N   0  0  0  0  0  4  0  0  0  0  0  0
    1.2597   -3.4773   -7.8801 O   0  0  0  0  0  1  0  0  0  0  0  0
   -0.3065   -3.8713   -6.4673 O   0  0  0  0  0  0  0  0  0  0  0  0
    2.1215   -2.0264   -5.4893 C   0  0  0  0  0  0  0  0  0  0  0  0
    2.8080   -1.2367   -6.5571 C   0  0  0  0  0  0  0  0  0  0  0  0
    2.2642    0.1236   -6.8509 C   0  0  0  0  0  0  0  0  0  0  0  0
    3.2297    1.0521   -6.7151 C   0  0  0  0  0  0  0  0  0  0  0  0
    4.4456    0.4232   -6.2810 C   0  0  0  0  0  0  0  0  0  0  0  0
    4.2297   -0.9099   -6.1776 C   0  0  0  0  0  0  0  0  0  0  0  0
    5.1479   -1.8820   -5.7494 N   0  0  0  0  0  4  0  0  0  0  0  0
    4.7987   -3.0512   -5.7942 O   0  0  0  0  0  1  0  0  0  0  0  0
    6.2417   -1.5125   -5.3670 O   0  0  0  0  0  0  0  0  0  0  0  0
    1.8160   -1.6522   -4.2266 C   0  0  0  0  0  0  0  0  0  0  0  0
    1.9185   -0.3301   -3.6556 C   0  0  0  0  0  0  0  0  0  0  0  0
    1.1672    0.0689   -2.6186 C   0  0  0  0  0  0  0  0  0  0  0  0
    1.2397    1.3014   -1.8852 C   0  0  0  0  0  0  0  0  0  0  0  0
    0.4274    1.5749   -0.8385 C   0  0  0  0  0  0  0  0  0  0  0  0
    0.8148    2.8569   -0.1992 C   0  0  0  0  0  0  0  0  0  0  0  0
    1.3476    2.6894    1.1700 N   0  0  0  0  0  4  0  0  0  0  0  0
    1.8084    1.6219    1.4787 O   0  0  0  0  0  1  0  0  0  0  0  0
    1.3575    3.6801    1.8628 O   0  0  0  0  0  0  0  0  0  0  0  0
    1.9693    3.3118   -1.0629 C   0  0  0  0  0  0  0  0  0  0  0  0
    2.7190    4.5700   -0.7589 C   0  0  0  0  0  0  0  0  0  0  0  0
    4.2062    4.4353   -0.7753 C   0  0  0  0  0  0  0  0  0  0  0  0
    4.7487    5.3689   -1.5811 C   0  0  0  0  0  0  0  0  0  0  0  0
    3.7067    6.1488   -2.1808 C   0  0  0  0  0  0  0  0  0  0  0  0
    2.5105    5.6897   -1.7370 C   0  0  0  0  0  0  0  0  0  0  0  0
    1.2366    6.1501   -2.0968 N   0  0  0  0  0  4  0  0  0  0  0  0
    0.2743    5.6518   -1.5324 O   0  0  0  0  0  1  0  0  0  0  0  0
    1.1586    7.0084   -2.9579 O   0  0  0  0  0  0  0  0  0  0  0  0
    2.1902    2.4171   -2.0436 C   0  0  0  0  0  0  0  0  0  0  0  0
    3.1929    2.5649   -3.0979 C   0  0  0  0  0  0  0  0  0  0  0  0
    3.0652    3.4112   -4.1054 C   0  0  0  0  0  0  0  0  0  0  0  0
   -2.7702   -2.0920    6.3070 H   0  0  0  0  0  0  0  0  0  0  0  0
   -1.0336   -1.2145    8.0928 H   0  0  0  0  0  0  0  0  0  0  0  0
   -1.6193    1.4047    8.0522 H   0  0  0  0  0  0  0  0  0  0  0  0
   -1.3883    3.0564    5.8788 H   0  0  0  0  0  0  0  0  0  0  0  0
   -3.8628    3.5446    6.6969 H   0  0  0  0  0  0  0  0  0  0  0  0
   -4.5793    4.8118    4.4978 H   0  0  0  0  0  0  0  0  0  0  0  0
   -3.0639    3.9769    2.4802 H   0  0  0  0  0  0  0  0  0  0  0  0
   -3.8354   -1.2590    4.1839 H   0  0  0  0  0  0  0  0  0  0  0  0
   -4.7489    1.6488    4.3802 H   0  0  0  0  0  0  0  0  0  0  0  0
   -7.2988    1.5580    3.5728 H   0  0  0  0  0  0  0  0  0  0  0  0
   -8.0932    0.9004    1.1052 H   0  0  0  0  0  0  0  0  0  0  0  0
   -6.1427   -1.9368   -0.4686 H   0  0  0  0  0  0  0  0  0  0  0  0
   -7.8092   -0.0559   -1.3584 H   0  0  0  0  0  0  0  0  0  0  0  0
  -10.0437   -1.4476   -1.5130 H   0  0  0  0  0  0  0  0  0  0  0  0
   -9.8059   -3.6318   -0.0126 H   0  0  0  0  0  0  0  0  0  0  0  0
   -4.4667   -2.3587    1.0402 H   0  0  0  0  0  0  0  0  0  0  0  0
   -2.8982    0.0295    2.1071 H   0  0  0  0  0  0  0  0  0  0  0  0
   -3.4363   -3.9912    1.3477 H   0  0  0  0  0  0  0  0  0  0  0  0
   -4.2165   -6.0640    1.9663 H   0  0  0  0  0  0  0  0  0  0  0  0
   -4.4189   -7.4067    0.8133 H   0  0  0  0  0  0  0  0  0  0  0  0
   -4.5532   -5.7207    0.2539 H   0  0  0  0  0  0  0  0  0  0  0  0
    1.8176   -6.8879    0.5995 H   0  0  0  0  0  0  0  0  0  0  0  0
    1.1859   -8.1033   -0.5395 H   0  0  0  0  0  0  0  0  0  0  0  0
    1.4869   -6.4355   -1.0960 H   0  0  0  0  0  0  0  0  0  0  0  0
    1.3969   -4.5917    0.3407 H   0  0  0  0  0  0  0  0  0  0  0  0
    2.3518   -0.5140    2.6379 H   0  0  0  0  0  0  0  0  0  0  0  0
    4.8755   -1.1706    2.1505 H   0  0  0  0  0  0  0  0  0  0  0  0
    5.3787   -3.0202   -1.1929 H   0  0  0  0  0  0  0  0  0  0  0  0
    6.6139   -3.0400    1.1781 H   0  0  0  0  0  0  0  0  0  0  0  0
    8.4796   -1.2291    0.7313 H   0  0  0  0  0  0  0  0  0  0  0  0
    7.7613    0.2494   -1.3592 H   0  0  0  0  0  0  0  0  0  0  0  0
    3.4159   -3.0466   -2.0665 H   0  0  0  0  0  0  0  0  0  0  0  0
    0.4497   -2.6210   -1.4909 H   0  0  0  0  0  0  0  0  0  0  0  0
    1.0978   -4.9239   -4.0669 H   0  0  0  0  0  0  0  0  0  0  0  0
    2.7389   -4.0326   -5.9611 H   0  0  0  0  0  0  0  0  0  0  0  0
    2.7887   -1.8322   -7.4814 H   0  0  0  0  0  0  0  0  0  0  0  0
    1.2439    0.2839   -7.1446 H   0  0  0  0  0  0  0  0  0  0  0  0
    3.1271    2.1073   -6.8860 H   0  0  0  0  0  0  0  0  0  0  0  0
    5.3690    0.9281   -6.0621 H   0  0  0  0  0  0  0  0  0  0  0  0
    2.6249    0.3460   -4.1102 H   0  0  0  0  0  0  0  0  0  0  0  0
    0.4104   -0.6002   -2.2334 H   0  0  0  0  0  0  0  0  0  0  0  0
   -0.3728    0.9714   -0.4579 H   0  0  0  0  0  0  0  0  0  0  0  0
    0.0192    3.6070   -0.1621 H   0  0  0  0  0  0  0  0  0  0  0  0
    2.4041    4.9102    0.2398 H   0  0  0  0  0  0  0  0  0  0  0  0
    4.7195    3.6867   -0.2017 H   0  0  0  0  0  0  0  0  0  0  0  0
    5.7949    5.5218   -1.7696 H   0  0  0  0  0  0  0  0  0  0  0  0
    3.8510    6.9624   -2.8683 H   0  0  0  0  0  0  0  0  0  0  0  0
    4.0832    1.9586   -2.9941 H   0  0  0  0  0  0  0  0  0  0  0  0
    2.1853    4.0210   -4.2336 H   0  0  0  0  0  0  0  0  0  0  0  0
    3.8385    3.5243   -4.8449 H   0  0  0  0  0  0  0  0  0  0  0  0
  1  2  2  0  0  0  0
  2  3  1  0  0  0  0
  3  4  1  0  0  0  0
  4  5  1  0  0  0  0
  4  6  2  0  0  0  0
  3  7  1  0  0  0  0
  7  8  1  0  0  0  0
  8  9  1  0  0  0  0
  9 10  2  0  0  0  0
 10 11  1  0  0  0  0
 11 12  2  0  0  0  0
 12 13  1  0  0  0  0
 13 14  1  0  0  0  0
 13 15  2  0  0  0  0
  7 16  2  0  0  0  0
 16 17  1  0  0  0  0
 17 18  2  0  0  0  0
 18 19  1  0  0  0  0
 19 20  2  0  0  0  0
 20 21  1  0  0  0  0
 21 22  1  0  0  0  0
 22 23  1  0  0  0  0
 22 24  2  0  0  0  0
 21 25  1  0  0  0  0
 25 26  1  0  0  0  0
 26 27  1  0  0  0  0
 27 28  2  0  0  0  0
 28 29  1  0  0  0  0
 29 30  2  0  0  0  0
 30 31  1  0  0  0  0
 31 32  1  0  0  0  0
 31 33  2  0  0  0  0
 25 34  2  0  0  0  0
 34 35  1  0  0  0  0
 35 36  2  0  0  0  0
 36 37  1  0  0  0  0
 37 38  1  0  0  0  0
 38 39  1  0  0  0  0
 39 40  2  0  0  0  0
 40 41  1  0  0  0  0
 41 42  1  0  0  0  0
 42 43  2  0  0  0  0
 43 44  1  0  0  0  0
 44 45  1  0  0  0  0
 43 46  1  0  0  0  0
 46 47  1  0  0  0  0
 47 48  1  0  0  0  0
 46 49  2  0  0  0  0
 39 50  1  0  0  0  0
 50 51  2  0  0  0  0
 51 52  1  0  0  0  0
 52 53  1  0  0  0  0
 53 54  1  0  0  0  0
 53 55  2  0  0  0  0
 52 56  1  0  0  0  0
 56 57  1  0  0  0  0
 57 58  1  0  0  0  0
 58 59  2  0  0  0  0
 59 60  1  0  0  0  0
 60 61  2  0  0  0  0
 61 62  1  0  0  0  0
 62 63  1  0  0  0  0
 62 64  2  0  0  0  0
 56 65  2  0  0  0  0
 65 66  1  0  0  0  0
 66 67  2  0  0  0  0
 67 68  1  0  0  0  0
 68 69  2  0  0  0  0
 69 70  1  0  0  0  0
 70 71  1  0  0  0  0
 71 72  1  0  0  0  0
 71 73  2  0  0  0  0
 70 74  1  0  0  0  0
 74 75  1  0  0  0  0
 75 76  1  0  0  0  0
 76 77  2  0  0  0  0
 77 78  1  0  0  0  0
 78 79  2  0  0  0  0
 79 80  1  0  0  0  0
 80 81  1  0  0  0  0
 80 82  2  0  0  0  0
 74 83  2  0  0  0  0
 83 84  1  0  0  0  0
 84 85  2  0  0  0  0
 85 86  1  0  0  0  0
 86 87  2  0  0  0  0
 87 88  1  0  0  0  0
 88 89  1  0  0  0  0
 89 90  1  0  0  0  0
 89 91  2  0  0  0  0
 88 92  1  0  0  0  0
 92 93  1  0  0  0  0
 93 94  1  0  0  0  0
 94 95  2  0  0  0  0
 95 96  1  0  0  0  0
 96 97  2  0  0  0  0
 97 98  1  0  0  0  0
 98 99  1  0  0  0  0
 98100  2  0  0  0  0
 92101  2  0  0  0  0
101102  1  0  0  0  0
102103  2  0  0  0  0
 16  1  1  0  0  0  0
 34 19  1  0  0  0  0
 41 37  2  0  0  0  0
 65 50  1  0  0  0  0
 83 68  1  0  0  0  0
101 86  1  0  0  0  0
 12  8  1  0  0  0  0
 30 26  1  0  0  0  0
 49 40  1  0  0  0  0
 61 57  1  0  0  0  0
 79 75  1  0  0  0  0
 97 93  1  0  0  0  0
  1104  1  0  0  0  0
  2105  1  0  0  0  0
  3106  1  0  0  0  0
  8107  1  0  0  0  0
  9108  1  0  0  0  0
 10109  1  0  0  0  0
 11110  1  0  0  0  0
 17111  1  0  0  0  0
 18112  1  0  0  0  0
 20113  1  0  0  0  0
 21114  1  0  0  0  0
 26115  1  0  0  0  0
 27116  1  0  0  0  0
 28117  1  0  0  0  0
 29118  1  0  0  0  0
 35119  1  0  0  0  0
 36120  1  0  0  0  0
 42121  1  0  0  0  0
 45122  1  0  0  0  0
 45123  1  0  0  0  0
 45124  1  0  0  0  0
 48125  1  0  0  0  0
 48126  1  0  0  0  0
 48127  1  0  0  0  0
 49128  1  0  0  0  0
 51129  1  0  0  0  0
 52130  1  0  0  0  0
 57131  1  0  0  0  0
 58132  1  0  0  0  0
 59133  1  0  0  0  0
 60134  1  0  0  0  0
 66135  1  0  0  0  0
 67136  1  0  0  0  0
 69137  1  0  0  0  0
 70138  1  0  0  0  0
 75139  1  0  0  0  0
 76140  1  0  0  0  0
 77141  1  0  0  0  0
 78142  1  0  0  0  0
 84143  1  0  0  0  0
 85144  1  0  0  0  0
 87145  1  0  0  0  0
 88146  1  0  0  0  0
 93147  1  0  0  0  0
 94148  1  0  0  0  0
 95149  1  0  0  0  0
 96150  1  0  0  0  0
102151  1  0  0  0  0
103152  1  0  0  0  0
103153  1  0  0  0  0
M  CHG  1   4   1
M  CHG  1   5  -1
M  CHG  1  13   1
M  CHG  1  14  -1
M  CHG  1  22   1
M  CHG  1  23  -1
M  CHG  1  31   1
M  CHG  1  32  -1
M  CHG  1  53   1
M  CHG  1  54  -1
M  CHG  1  62   1
M  CHG  1  63  -1
M  CHG  1  71   1
M  CHG  1  72  -1
M  CHG  1  80   1
M  CHG  1  81  -1
M  CHG  1  89   1
M  CHG  1  90  -1
M  CHG  1  98   1
M  CHG  1  99  -1
M  END
