128

C          0.96050       -0.56520       -2.46140
S          0.57150       -0.89160       -0.83290
C          0.56550        0.80140       -0.41550
C          0.91540        1.57390       -1.52470
C          1.10870        0.78130       -2.70150
C          1.42380        1.40610       -3.93360
C          1.59370        2.75770       -3.98200
O          1.87810        3.47980       -5.09390
C          1.97210        2.79530       -6.31880
C          1.50580        3.54410       -2.77340
O          1.78110        4.86190       -2.95100
C          1.78690        5.70130       -1.82450
C          1.17630        2.96180       -1.58230
C          0.22510        1.17770        0.90860
S          0.60570        0.10680        2.21670
C         -0.09620        1.16050        3.41780
C         -0.61020        2.31460        2.80890
C         -0.46590        2.29640        1.38790
C         -1.12380        3.27090        0.60600
C         -1.85110        4.25400        1.21240
O         -2.54550        5.22760        0.56740
C         -2.56410        5.21150       -0.83770
C         -1.94000        4.31230        2.64780
O         -2.70110        5.34030        3.09570
C         -2.88040        5.48990        4.48080
C         -1.32660        3.36390        3.42310
C         -0.24640        0.60740        4.70830
C         -0.40580        1.11630        6.00640
C         -0.64210        0.08040        6.97960
N         -0.80760        0.37630        8.28200
C         -0.65230        1.62800        8.61080
C         -0.34040        2.64990        7.67460
C         -0.02350        4.02910        8.17420
C         -0.39480        5.12940        7.19050
N         -0.26370        2.39970        6.38680
C         -0.69040       -1.21270        6.45010
S         -0.31280       -1.13250        4.76170
C         -0.90820       -2.42320        7.15060
C         -1.19650       -3.62870        6.58760
C         -1.60360       -3.78010        5.23180
C         -2.47590       -2.94200        4.52210
C         -2.52780       -3.22040        3.12190
N         -3.25350       -2.44460        2.29820
C         -3.90430       -1.45550        2.85030
C         -3.90850       -1.21170        4.24790
C         -4.69850       -0.08030        4.82880
C         -3.96240        1.24530        4.62360
N         -3.20170       -1.94940        5.06720
C         -1.73010       -4.31840        2.74580
S         -0.99710       -5.01250        4.16890
C         -1.36500       -4.75020        1.46540
C         -1.70320       -4.05380        0.33320
C         -1.19190       -4.32290       -0.93860
C         -0.31770       -5.33890       -1.37740
C          0.09970       -5.17420       -2.73220
N          0.94560       -6.04480       -3.31080
C          1.34780       -7.03670       -2.56100
C          0.94320       -7.21030       -1.21160
C          1.44980       -8.37530       -0.41500
C          1.00170       -8.33510        1.03940
N          0.12020       -6.36630       -0.63340
C         -0.43220       -4.02780       -3.35330
S         -1.50700       -3.21760       -2.24540
C         -0.09390       -3.53380       -4.61620
C         -0.52550       -2.33150       -5.10840
C         -0.09680       -1.78090       -6.32430
C          0.79160       -2.29940       -7.28290
C          1.01280       -1.40570       -8.38050
N          1.83940       -1.74110       -9.39550
C          2.40590       -2.91200       -9.30590
C          2.19250       -3.80700       -8.22270
C          2.89700       -5.12650       -8.16460
C          4.35680       -4.93920       -7.74660
N          1.39600       -3.49690       -7.22730
C          0.30560       -0.20770       -8.28180
S         -0.63160       -0.20070       -6.81960
C          0.32470        0.86520       -9.21980
C         -0.37940        1.99450       -9.11520
H          1.06360       -1.37160       -3.15970
H          1.52620        0.78490       -4.80780
H          2.16790        3.55760       -7.07050
H          1.03900        2.27820       -6.56200
H          2.79410        2.07200       -6.31400
H          2.53220        5.38300       -1.08840
H          2.04500        6.69140       -2.19650
H          0.80380        5.74190       -1.34210
H          1.14070        3.53260       -0.66960
H         -1.07980        3.18390       -0.46580
H         -3.17710        6.06100       -1.13360
H         -3.00870        4.28890       -1.22460
H         -1.55940        5.32700       -1.25930
H         -3.30200        4.58640        4.93270
H         -3.57960        6.31630        4.59970
H         -1.93630        5.73680        4.97290
H         -1.38180        3.37810        4.49870
H         -0.76950        1.86560        9.66020
H         -0.52610        4.18840        9.13080
H          1.05510        4.06320        8.36170
H         -0.03070        6.09160        7.54270
H          0.04560        4.91610        6.22030
H         -1.47610        5.18410        7.08890
H         -0.78230       -2.35270        8.22250
H         -1.10740       -4.52540        7.18590
H         -4.47410       -0.82600        2.17950
H         -5.67780       -0.03250        4.34730
H         -4.83190       -0.26220        5.89570
H         -3.77490        1.42910        3.56730
H         -3.00580        1.22690        5.14050
H         -4.55620        2.06620        5.01920
H         -0.71640       -5.60980        1.38160
H         -2.34230       -3.18810        0.43340
H          2.02340       -7.74380       -3.02500
H          1.09420       -9.29510       -0.89020
H          2.54220       -8.38660       -0.47370
H          1.38080       -9.20220        1.57460
H         -0.08310       -8.33070        1.09770
H          1.37200       -7.43480        1.52260
H          0.59310       -4.13150       -5.19850
H         -1.21390       -1.73660       -4.51960
H          3.06380       -3.18730      -10.12010
H          2.85670       -5.60470       -9.14600
H          2.38730       -5.75940       -7.43750
H          4.40780       -4.48680       -6.75900
H          4.86320       -5.90070       -7.71410
H          4.88050       -4.29490       -8.44980
H          0.97860        0.69020      -10.06380
H         -0.32070        2.76610       -9.86110
H         -1.04060        2.17060       -8.28230
