78

C          7.57500        4.91820        7.55340
C          6.40040        4.29540        7.24180
C          6.31090        4.23750        5.81480
C          7.49160        4.85990        5.25710
O          7.83110        5.03490        4.10350
N          8.21350        5.24870        6.38940
C          5.13130        3.60370        5.49530
O          4.46830        3.26100        6.62430
C          5.19590        3.65950        7.76000
O          4.79830        3.46090        8.86590
C          4.64360        3.32240        4.20130
C          3.50420        2.67250        3.75260
C          3.52280        2.64930        2.33020
C          4.74900        3.32790        1.90280
O          5.20720        3.55310        0.80190
N          5.35970        3.70470        3.08640
C          2.39230        1.94540        1.92310
O          1.69170        1.55020        3.03060
C          2.31440        1.97270        4.20640
O          1.85620        1.74640        5.28260
C          1.81360        1.51630        0.71840
S          0.46820        0.43420        0.90590
C          0.24140        0.33000       -0.81310
C          1.20670        1.08880       -1.51610
C          2.09690        1.77730       -0.64230
C          3.09710        2.60400       -1.16510
C          3.25300        2.72040       -2.52910
O          4.17010        3.47580       -3.14360
C          5.04000        4.27010       -2.36010
C          2.40050        1.97480       -3.41550
O          2.68090        2.13130       -4.72100
C          1.92070        1.43280       -5.67980
C          1.39930        1.18140       -2.90490
C         -0.82090       -0.46020       -1.27870
C         -1.56210       -1.39020       -0.54600
C         -2.50180       -1.99720       -1.40560
C         -2.37580       -1.39550       -2.72140
O         -2.99340       -1.59210       -3.74610
N         -1.33230       -0.48850       -2.56670
C         -3.17260       -2.96650       -0.67800
O         -2.70040       -2.98380        0.59330
C         -1.69400       -2.02630        0.74960
O         -1.12250       -1.84770        1.78700
C         -4.17020       -3.84110       -1.14060
C         -4.86060       -4.87870       -0.52050
C         -5.72960       -5.44240       -1.48560
C         -5.57390       -4.71800       -2.74330
O         -6.13210       -4.88270       -3.80620
N         -4.61300       -3.76500       -2.45150
C         -6.39810       -6.49380       -0.89080
O         -6.00610       -6.61720        0.39540
C         -5.03950       -5.63850        0.70980
O         -4.55430       -5.56460        1.79490
C         -7.34660       -7.35470       -1.49190
C         -8.03930       -8.44440       -0.99370
C         -8.86710       -8.95320       -2.04960
C         -8.65370       -8.11850       -3.24070
O         -9.12620       -8.16950       -4.34440
N         -7.71690       -7.17660       -2.80660
C         -9.53290      -10.02290       -1.54590
O         -9.20610      -10.24530       -0.26520
C         -8.25870       -9.28590        0.16650
O         -7.82300       -9.29750        1.27750
H          8.00280        5.14970        8.51000
H          9.10420        5.71890        6.33560
H          6.25260        4.19360        3.12270
H          3.76170        3.11880       -0.49460
H          5.70230        4.76040       -3.07050
H          4.48310        5.02250       -1.79630
H          5.62380        3.66760       -1.66190
H          0.86780        1.73040       -5.65070
H          2.34380        1.70810       -6.64390
H          2.00160        0.34970       -5.54630
H          0.79050        0.59940       -3.57440
H         -1.07100        0.15360       -3.29740
H         -4.26020       -3.09110       -3.12820
H         -7.34190       -6.44170       -3.40570
H        -10.24830      -10.69260       -1.98800
