
  xtb     03022202313D
 energy: -365.139646637371 gnorm: 0.000242735590 xtb: 6.4.1 (unknown)
191211  0     0  0            999 V2000
   -1.4500  -13.8712    9.2824 C   0  0  0  0  0  0  0  0  0  0  0  0
   -1.8400  -12.8345   10.0524 C   0  0  0  0  0  0  0  0  0  0  0  0
   -2.1454  -11.6675    9.2942 C   0  0  0  0  0  0  0  0  0  0  0  0
   -2.5264  -10.3999    9.7646 C   0  0  0  0  0  0  0  0  0  0  0  0
   -2.7539  -10.1471   11.1788 C   0  0  0  0  0  0  0  0  0  0  0  0
   -3.8764  -11.1136   12.0909 S   0  0  0  0  0  0  0  0  0  0  0  0
   -3.6238  -10.1911   13.5334 C   0  0  0  0  0  0  0  0  0  0  0  0
   -4.3005  -10.5505   14.8099 C   0  0  0  0  0  0  0  0  0  0  0  0
   -3.5244  -11.6417   15.5513 C   0  0  0  0  0  0  0  0  0  0  0  0
   -2.7118   -9.2044   13.3078 C   0  0  0  0  0  0  0  0  0  0  0  0
   -2.1966   -8.0862   14.5038 Cl  0  0  0  0  0  0  0  0  0  0  0  0
   -2.2201   -9.1722   11.9747 C   0  0  0  0  0  0  0  0  0  0  0  0
   -1.0127   -8.0637   11.4722 Cl  0  0  0  0  0  0  0  0  0  0  0  0
   -2.6863   -9.3998    8.8162 C   0  0  0  0  0  0  0  0  0  0  0  0
   -2.4978   -9.6105    7.4279 C   0  0  0  0  0  0  0  0  0  0  0  0
   -2.1583  -10.8897    6.9536 C   0  0  0  0  0  0  0  0  0  0  0  0
   -2.0360  -11.1602    5.5312 C   0  0  0  0  0  0  0  0  0  0  0  0
   -1.0229  -10.1992    4.4930 S   0  0  0  0  0  0  0  0  0  0  0  0
   -1.4457  -11.1199    3.0912 C   0  0  0  0  0  0  0  0  0  0  0  0
   -0.9478  -10.7557    1.7359 C   0  0  0  0  0  0  0  0  0  0  0  0
   -1.9550   -9.8528    1.0180 C   0  0  0  0  0  0  0  0  0  0  0  0
   -2.3241  -12.1077    3.4224 C   0  0  0  0  0  0  0  0  0  0  0  0
   -2.6584  -12.1366    4.8022 C   0  0  0  0  0  0  0  0  0  0  0  0
   -3.8111  -13.2334    5.4382 Cl  0  0  0  0  0  0  0  0  0  0  0  0
   -2.9775  -13.2207    2.2918 Cl  0  0  0  0  0  0  0  0  0  0  0  0
   -1.9708  -11.8850    7.9071 C   0  0  0  0  0  0  0  0  0  0  0  0
   -1.4343  -13.5107    7.5923 S   0  0  0  0  0  0  0  0  0  0  0  0
   -2.7353   -8.4348    6.6814 C   0  0  0  0  0  0  0  0  0  0  0  0
   -3.1003   -7.3536    7.4376 C   0  0  0  0  0  0  0  0  0  0  0  0
   -3.1910   -7.7663    9.1400 S   0  0  0  0  0  0  0  0  0  0  0  0
   -3.3174   -6.0391    6.9475 C   0  0  0  0  0  0  0  0  0  0  0  0
   -2.8063   -5.6811    5.3275 S   0  0  0  0  0  0  0  0  0  0  0  0
   -3.2999   -4.0215    5.4424 C   0  0  0  0  0  0  0  0  0  0  0  0
   -3.8625   -3.7616    6.6943 C   0  0  0  0  0  0  0  0  0  0  0  0
   -3.8592   -4.9039    7.5535 C   0  0  0  0  0  0  0  0  0  0  0  0
   -4.3772   -4.7915    8.8614 C   0  0  0  0  0  0  0  0  0  0  0  0
   -4.8652   -3.5956    9.3081 C   0  0  0  0  0  0  0  0  0  0  0  0
   -5.3723   -3.3698   10.5414 O   0  0  0  0  0  0  0  0  0  0  0  0
   -5.3779   -4.4314   11.4655 C   0  0  0  0  0  0  0  0  0  0  0  0
   -4.8643   -2.4427    8.4430 C   0  0  0  0  0  0  0  0  0  0  0  0
   -5.3755   -1.3218    9.0020 O   0  0  0  0  0  0  0  0  0  0  0  0
   -5.4248   -0.1503    8.2235 C   0  0  0  0  0  0  0  0  0  0  0  0
   -4.3743   -2.5360    7.1708 C   0  0  0  0  0  0  0  0  0  0  0  0
   -3.0385   -3.1683    4.3387 C   0  0  0  0  0  0  0  0  0  0  0  0
   -2.2065   -3.4539    3.2886 C   0  0  0  0  0  0  0  0  0  0  0  0
   -2.0970   -2.4148    2.3389 C   0  0  0  0  0  0  0  0  0  0  0  0
   -1.2972   -2.3732    1.1812 C   0  0  0  0  0  0  0  0  0  0  0  0
   -0.4466   -3.4932    0.8128 C   0  0  0  0  0  0  0  0  0  0  0  0
   -1.0806   -5.1045    0.6401 S   0  0  0  0  0  0  0  0  0  0  0  0
    0.4690   -5.7575    0.2255 C   0  0  0  0  0  0  0  0  0  0  0  0
    0.6380   -7.1999   -0.1003 C   0  0  0  0  0  0  0  0  0  0  0  0
    0.0778   -7.5241   -1.4865 C   0  0  0  0  0  0  0  0  0  0  0  0
    1.4088   -4.7717    0.2192 C   0  0  0  0  0  0  0  0  0  0  0  0
    3.0663   -5.0282   -0.1438 Cl  0  0  0  0  0  0  0  0  0  0  0  0
    0.8969   -3.4901    0.5581 C   0  0  0  0  0  0  0  0  0  0  0  0
    1.9124   -2.1195    0.7221 Cl  0  0  0  0  0  0  0  0  0  0  0  0
   -1.3348   -1.2047    0.4322 C   0  0  0  0  0  0  0  0  0  0  0  0
   -2.1211   -0.0803    0.7911 C   0  0  0  0  0  0  0  0  0  0  0  0
   -2.9397   -0.1320    1.9340 C   0  0  0  0  0  0  0  0  0  0  0  0
   -3.8066    0.9762    2.2937 C   0  0  0  0  0  0  0  0  0  0  0  0
   -3.8223    1.6322    3.9049 S   0  0  0  0  0  0  0  0  0  0  0  0
   -5.0370    2.7978    3.5043 C   0  0  0  0  0  0  0  0  0  0  0  0
   -5.5094    3.7953    4.5035 C   0  0  0  0  0  0  0  0  0  0  0  0
   -4.5991    5.0257    4.5208 C   0  0  0  0  0  0  0  0  0  0  0  0
   -5.3961    2.6762    2.1955 C   0  0  0  0  0  0  0  0  0  0  0  0
   -4.7068    1.6414    1.5073 C   0  0  0  0  0  0  0  0  0  0  0  0
   -5.0568    1.2339   -0.1232 Cl  0  0  0  0  0  0  0  0  0  0  0  0
   -6.5769    3.6599    1.4324 Cl  0  0  0  0  0  0  0  0  0  0  0  0
   -2.8864   -1.2934    2.6899 C   0  0  0  0  0  0  0  0  0  0  0  0
   -3.7549   -1.5749    4.1712 S   0  0  0  0  0  0  0  0  0  0  0  0
   -1.9222    1.0063   -0.0926 C   0  0  0  0  0  0  0  0  0  0  0  0
   -1.0672    0.7256   -1.1177 C   0  0  0  0  0  0  0  0  0  0  0  0
   -0.4571   -0.9141   -1.0419 S   0  0  0  0  0  0  0  0  0  0  0  0
   -0.6254    1.6021   -2.1487 C   0  0  0  0  0  0  0  0  0  0  0  0
    0.2843    1.3402   -3.1307 C   0  0  0  0  0  0  0  0  0  0  0  0
    0.5356    2.4447   -3.9777 C   0  0  0  0  0  0  0  0  0  0  0  0
    1.4529    2.5305   -5.0419 C   0  0  0  0  0  0  0  0  0  0  0  0
    2.1724    1.3600   -5.5105 C   0  0  0  0  0  0  0  0  0  0  0  0
    3.8950    1.3820   -5.7431 S   0  0  0  0  0  0  0  0  0  0  0  0
    3.9211   -0.2603   -6.2908 C   0  0  0  0  0  0  0  0  0  0  0  0
    5.1924   -0.8997   -6.7280 C   0  0  0  0  0  0  0  0  0  0  0  0
    5.6631   -0.3236   -8.0649 C   0  0  0  0  0  0  0  0  0  0  0  0
    2.6607   -0.7777   -6.2955 C   0  0  0  0  0  0  0  0  0  0  0  0
    2.2804   -2.3775   -6.7869 Cl  0  0  0  0  0  0  0  0  0  0  0  0
    1.6669    0.1350   -5.8499 C   0  0  0  0  0  0  0  0  0  0  0  0
   -0.0039   -0.2596   -5.8376 Cl  0  0  0  0  0  0  0  0  0  0  0  0
    1.6334    3.7794   -5.6156 C   0  0  0  0  0  0  0  0  0  0  0  0
    0.9003    4.9273   -5.2241 C   0  0  0  0  0  0  0  0  0  0  0  0
   -0.0700    4.8244   -4.2096 C   0  0  0  0  0  0  0  0  0  0  0  0
   -0.8696    5.9658   -3.7975 C   0  0  0  0  0  0  0  0  0  0  0  0
   -0.1331    7.4695   -3.3205 S   0  0  0  0  0  0  0  0  0  0  0  0
   -1.6623    8.2001   -2.9623 C   0  0  0  0  0  0  0  0  0  0  0  0
   -1.7511    9.6141   -2.5043 C   0  0  0  0  0  0  0  0  0  0  0  0
   -1.5460   10.5864   -3.6679 C   0  0  0  0  0  0  0  0  0  0  0  0
   -2.6730    7.3224   -3.2140 C   0  0  0  0  0  0  0  0  0  0  0  0
   -2.2289    6.0548   -3.6804 C   0  0  0  0  0  0  0  0  0  0  0  0
   -3.3202    4.8099   -4.1247 Cl  0  0  0  0  0  0  0  0  0  0  0  0
   -4.3355    7.6859   -2.9925 Cl  0  0  0  0  0  0  0  0  0  0  0  0
   -0.2143    3.5848   -3.5984 C   0  0  0  0  0  0  0  0  0  0  0  0
   -1.2333    3.2431   -2.2296 S   0  0  0  0  0  0  0  0  0  0  0  0
    1.2618    6.0707   -5.9723 C   0  0  0  0  0  0  0  0  0  0  0  0
    2.2353    5.8382   -6.9058 C   0  0  0  0  0  0  0  0  0  0  0  0
    2.7418    4.1528   -6.9027 S   0  0  0  0  0  0  0  0  0  0  0  0
    2.8846    6.7389   -7.7876 C   0  0  0  0  0  0  0  0  0  0  0  0
    4.4470    6.3091   -8.4034 S   0  0  0  0  0  0  0  0  0  0  0  0
    4.6383    7.8029   -9.2686 C   0  0  0  0  0  0  0  0  0  0  0  0
    3.4917    8.5971   -9.1011 C   0  0  0  0  0  0  0  0  0  0  0  0
    2.5001    7.9916   -8.2706 C   0  0  0  0  0  0  0  0  0  0  0  0
    1.2679    8.6469   -8.0606 C   0  0  0  0  0  0  0  0  0  0  0  0
    1.0367    9.8751   -8.6130 C   0  0  0  0  0  0  0  0  0  0  0  0
   -0.1025   10.5959   -8.4746 O   0  0  0  0  0  0  0  0  0  0  0  0
   -1.1481   10.0490   -7.7098 C   0  0  0  0  0  0  0  0  0  0  0  0
    2.0416   10.4969   -9.4327 C   0  0  0  0  0  0  0  0  0  0  0  0
    1.6897   11.7098   -9.9263 O   0  0  0  0  0  0  0  0  0  0  0  0
    2.6134   12.3934  -10.7369 C   0  0  0  0  0  0  0  0  0  0  0  0
    3.2250    9.8578   -9.6771 C   0  0  0  0  0  0  0  0  0  0  0  0
    5.8520    8.0854   -9.9434 C   0  0  0  0  0  0  0  0  0  0  0  0
    6.3001    9.7231  -10.3451 S   0  0  0  0  0  0  0  0  0  0  0  0
    7.8158    9.2510  -10.9716 C   0  0  0  0  0  0  0  0  0  0  0  0
    8.0028    7.8914  -10.8976 C   0  0  0  0  0  0  0  0  0  0  0  0
    6.8851    7.2129  -10.3131 C   0  0  0  0  0  0  0  0  0  0  0  0
    6.9310    5.8065  -10.2056 C   0  0  0  0  0  0  0  0  0  0  0  0
    8.0377    5.1167  -10.6150 C   0  0  0  0  0  0  0  0  0  0  0  0
    8.1851    3.7715  -10.5458 O   0  0  0  0  0  0  0  0  0  0  0  0
    7.1376    3.0109   -9.9949 C   0  0  0  0  0  0  0  0  0  0  0  0
    9.1735    5.8083  -11.1753 C   0  0  0  0  0  0  0  0  0  0  0  0
   10.2008    4.9957  -11.5275 O   0  0  0  0  0  0  0  0  0  0  0  0
   11.3503    5.5831  -12.0832 C   0  0  0  0  0  0  0  0  0  0  0  0
    9.1428    7.1628  -11.3203 C   0  0  0  0  0  0  0  0  0  0  0  0
   -1.1618  -14.8546    9.5984 H   0  0  0  0  0  0  0  0  0  0  0  0
   -1.9023  -12.8784   11.1241 H   0  0  0  0  0  0  0  0  0  0  0  0
   -4.3641   -9.6581   15.4351 H   0  0  0  0  0  0  0  0  0  0  0  0
   -5.3111  -10.9039   14.5984 H   0  0  0  0  0  0  0  0  0  0  0  0
   -2.5181  -11.2994   15.7792 H   0  0  0  0  0  0  0  0  0  0  0  0
   -4.0269  -11.8906   16.4820 H   0  0  0  0  0  0  0  0  0  0  0  0
   -3.4574  -12.5386   14.9399 H   0  0  0  0  0  0  0  0  0  0  0  0
   -0.8046  -11.6700    1.1564 H   0  0  0  0  0  0  0  0  0  0  0  0
    0.0119  -10.2444    1.8261 H   0  0  0  0  0  0  0  0  0  0  0  0
   -1.6042   -9.6213    0.0163 H   0  0  0  0  0  0  0  0  0  0  0  0
   -2.0939   -8.9238    1.5666 H   0  0  0  0  0  0  0  0  0  0  0  0
   -2.9160  -10.3544    0.9402 H   0  0  0  0  0  0  0  0  0  0  0  0
   -2.6427   -8.3766    5.6125 H   0  0  0  0  0  0  0  0  0  0  0  0
   -4.3799   -5.6600    9.4962 H   0  0  0  0  0  0  0  0  0  0  0  0
   -5.7972   -4.0200   12.3819 H   0  0  0  0  0  0  0  0  0  0  0  0
   -4.3656   -4.7993   11.6601 H   0  0  0  0  0  0  0  0  0  0  0  0
   -6.0026   -5.2613   11.1199 H   0  0  0  0  0  0  0  0  0  0  0  0
   -5.8738    0.6069    8.8637 H   0  0  0  0  0  0  0  0  0  0  0  0
   -4.4241    0.1742    7.9204 H   0  0  0  0  0  0  0  0  0  0  0  0
   -6.0433   -0.2877    7.3307 H   0  0  0  0  0  0  0  0  0  0  0  0
   -4.3659   -1.6797    6.5200 H   0  0  0  0  0  0  0  0  0  0  0  0
   -1.6684   -4.3820    3.2222 H   0  0  0  0  0  0  0  0  0  0  0  0
    1.7025   -7.4381   -0.0680 H   0  0  0  0  0  0  0  0  0  0  0  0
    0.1219   -7.8016    0.6498 H   0  0  0  0  0  0  0  0  0  0  0  0
    0.2295   -8.5757   -1.7156 H   0  0  0  0  0  0  0  0  0  0  0  0
    0.5804   -6.9290   -2.2446 H   0  0  0  0  0  0  0  0  0  0  0  0
   -0.9868   -7.3048   -1.5237 H   0  0  0  0  0  0  0  0  0  0  0  0
   -5.5212    3.3372    5.4941 H   0  0  0  0  0  0  0  0  0  0  0  0
   -6.5256    4.0969    4.2432 H   0  0  0  0  0  0  0  0  0  0  0  0
   -4.5907    5.5010    3.5434 H   0  0  0  0  0  0  0  0  0  0  0  0
   -4.9550    5.7435    5.2547 H   0  0  0  0  0  0  0  0  0  0  0  0
   -3.5821    4.7383    4.7766 H   0  0  0  0  0  0  0  0  0  0  0  0
   -2.3719    1.9744    0.0331 H   0  0  0  0  0  0  0  0  0  0  0  0
    0.7804    0.3906   -3.2178 H   0  0  0  0  0  0  0  0  0  0  0  0
    5.0268   -1.9739   -6.8237 H   0  0  0  0  0  0  0  0  0  0  0  0
    5.9627   -0.7317   -5.9724 H   0  0  0  0  0  0  0  0  0  0  0  0
    6.5950   -0.7939   -8.3669 H   0  0  0  0  0  0  0  0  0  0  0  0
    4.9172   -0.5007   -8.8355 H   0  0  0  0  0  0  0  0  0  0  0  0
    5.8222    0.7486   -7.9766 H   0  0  0  0  0  0  0  0  0  0  0  0
   -0.9907    9.7981   -1.7427 H   0  0  0  0  0  0  0  0  0  0  0  0
   -2.7354    9.7731   -2.0610 H   0  0  0  0  0  0  0  0  0  0  0  0
   -2.3006   10.4225   -4.4336 H   0  0  0  0  0  0  0  0  0  0  0  0
   -0.5610   10.4441   -4.1069 H   0  0  0  0  0  0  0  0  0  0  0  0
   -1.6241   11.6116   -3.3167 H   0  0  0  0  0  0  0  0  0  0  0  0
    0.8533    7.0431   -5.7778 H   0  0  0  0  0  0  0  0  0  0  0  0
    0.5084    8.1478   -7.4861 H   0  0  0  0  0  0  0  0  0  0  0  0
   -1.5180    9.1143   -8.1438 H   0  0  0  0  0  0  0  0  0  0  0  0
   -1.9427   10.7929   -7.7242 H   0  0  0  0  0  0  0  0  0  0  0  0
   -0.8376    9.8693   -6.6753 H   0  0  0  0  0  0  0  0  0  0  0  0
    2.1372   13.3391  -10.9901 H   0  0  0  0  0  0  0  0  0  0  0  0
    3.5495   12.5871  -10.2032 H   0  0  0  0  0  0  0  0  0  0  0  0
    2.8302   11.8387  -11.6557 H   0  0  0  0  0  0  0  0  0  0  0  0
    3.9571   10.3020  -10.3270 H   0  0  0  0  0  0  0  0  0  0  0  0
    8.4829    9.9940  -11.3595 H   0  0  0  0  0  0  0  0  0  0  0  0
    6.0814    5.2791   -9.8112 H   0  0  0  0  0  0  0  0  0  0  0  0
    6.2214    3.0986  -10.5877 H   0  0  0  0  0  0  0  0  0  0  0  0
    6.9266    3.3061   -8.9618 H   0  0  0  0  0  0  0  0  0  0  0  0
    7.4828    1.9786  -10.0158 H   0  0  0  0  0  0  0  0  0  0  0  0
   12.0374    4.7612  -12.2764 H   0  0  0  0  0  0  0  0  0  0  0  0
   11.1246    6.0963  -13.0239 H   0  0  0  0  0  0  0  0  0  0  0  0
   11.8157    6.2901  -11.3885 H   0  0  0  0  0  0  0  0  0  0  0  0
    9.9652    7.7112  -11.7496 H   0  0  0  0  0  0  0  0  0  0  0  0
  1  2  2  0  0  0  0
  2  3  1  0  0  0  0
  3  4  2  0  0  0  0
  4  5  1  0  0  0  0
  5  6  1  0  0  0  0
  6  7  1  0  0  0  0
  7  8  1  0  0  0  0
  8  9  1  0  0  0  0
  7 10  2  0  0  0  0
 10 11  1  0  0  0  0
 10 12  1  0  0  0  0
 12 13  1  0  0  0  0
  4 14  1  0  0  0  0
 14 15  2  0  0  0  0
 15 16  1  0  0  0  0
 16 17  1  0  0  0  0
 17 18  1  0  0  0  0
 18 19  1  0  0  0  0
 19 20  1  0  0  0  0
 20 21  1  0  0  0  0
 19 22  2  0  0  0  0
 22 23  1  0  0  0  0
 23 24  1  0  0  0  0
 22 25  1  0  0  0  0
 16 26  2  0  0  0  0
 26 27  1  0  0  0  0
 15 28  1  0  0  0  0
 28 29  2  0  0  0  0
 29 30  1  0  0  0  0
 29 31  1  0  0  0  0
 31 32  1  0  0  0  0
 32 33  1  0  0  0  0
 33 34  2  0  0  0  0
 34 35  1  0  0  0  0
 35 36  1  0  0  0  0
 36 37  2  0  0  0  0
 37 38  1  0  0  0  0
 38 39  1  0  0  0  0
 37 40  1  0  0  0  0
 40 41  1  0  0  0  0
 41 42  1  0  0  0  0
 40 43  2  0  0  0  0
 33 44  1  0  0  0  0
 44 45  2  0  0  0  0
 45 46  1  0  0  0  0
 46 47  2  0  0  0  0
 47 48  1  0  0  0  0
 48 49  1  0  0  0  0
 49 50  1  0  0  0  0
 50 51  1  0  0  0  0
 51 52  1  0  0  0  0
 50 53  2  0  0  0  0
 53 54  1  0  0  0  0
 53 55  1  0  0  0  0
 55 56  1  0  0  0  0
 47 57  1  0  0  0  0
 57 58  2  0  0  0  0
 58 59  1  0  0  0  0
 59 60  1  0  0  0  0
 60 61  1  0  0  0  0
 61 62  1  0  0  0  0
 62 63  1  0  0  0  0
 63 64  1  0  0  0  0
 62 65  2  0  0  0  0
 65 66  1  0  0  0  0
 66 67  1  0  0  0  0
 65 68  1  0  0  0  0
 59 69  2  0  0  0  0
 69 70  1  0  0  0  0
 58 71  1  0  0  0  0
 71 72  2  0  0  0  0
 72 73  1  0  0  0  0
 72 74  1  0  0  0  0
 74 75  2  0  0  0  0
 75 76  1  0  0  0  0
 76 77  2  0  0  0  0
 77 78  1  0  0  0  0
 78 79  1  0  0  0  0
 79 80  1  0  0  0  0
 80 81  1  0  0  0  0
 81 82  1  0  0  0  0
 80 83  2  0  0  0  0
 83 84  1  0  0  0  0
 83 85  1  0  0  0  0
 85 86  1  0  0  0  0
 77 87  1  0  0  0  0
 87 88  2  0  0  0  0
 88 89  1  0  0  0  0
 89 90  1  0  0  0  0
 90 91  1  0  0  0  0
 91 92  1  0  0  0  0
 92 93  1  0  0  0  0
 93 94  1  0  0  0  0
 92 95  2  0  0  0  0
 95 96  1  0  0  0  0
 96 97  1  0  0  0  0
 95 98  1  0  0  0  0
 89 99  2  0  0  0  0
 99100  1  0  0  0  0
 88101  1  0  0  0  0
101102  2  0  0  0  0
102103  1  0  0  0  0
102104  1  0  0  0  0
104105  1  0  0  0  0
105106  1  0  0  0  0
106107  2  0  0  0  0
107108  1  0  0  0  0
108109  1  0  0  0  0
109110  2  0  0  0  0
110111  1  0  0  0  0
111112  1  0  0  0  0
110113  1  0  0  0  0
113114  1  0  0  0  0
114115  1  0  0  0  0
113116  2  0  0  0  0
106117  1  0  0  0  0
117118  1  0  0  0  0
118119  1  0  0  0  0
119120  2  0  0  0  0
120121  1  0  0  0  0
121122  1  0  0  0  0
122123  2  0  0  0  0
123124  1  0  0  0  0
124125  1  0  0  0  0
123126  1  0  0  0  0
126127  1  0  0  0  0
127128  1  0  0  0  0
126129  2  0  0  0  0
 27  1  1  0  0  0  0
 35 31  2  0  0  0  0
 70 44  1  0  0  0  0
100 74  1  0  0  0  0
108104  2  0  0  0  0
121117  2  0  0  0  0
 26  3  1  0  0  0  0
 43 34  1  0  0  0  0
 69 46  1  0  0  0  0
 99 76  1  0  0  0  0
116107  1  0  0  0  0
129120  1  0  0  0  0
 12  5  2  0  0  0  0
 30 14  1  0  0  0  0
 55 48  2  0  0  0  0
 73 57  1  0  0  0  0
 85 78  2  0  0  0  0
103 87  1  0  0  0  0
 23 17  2  0  0  0  0
 66 60  2  0  0  0  0
 96 90  2  0  0  0  0
  1130  1  0  0  0  0
  2131  1  0  0  0  0
  8132  1  0  0  0  0
  8133  1  0  0  0  0
  9134  1  0  0  0  0
  9135  1  0  0  0  0
  9136  1  0  0  0  0
 20137  1  0  0  0  0
 20138  1  0  0  0  0
 21139  1  0  0  0  0
 21140  1  0  0  0  0
 21141  1  0  0  0  0
 28142  1  0  0  0  0
 36143  1  0  0  0  0
 39144  1  0  0  0  0
 39145  1  0  0  0  0
 39146  1  0  0  0  0
 42147  1  0  0  0  0
 42148  1  0  0  0  0
 42149  1  0  0  0  0
 43150  1  0  0  0  0
 45151  1  0  0  0  0
 51152  1  0  0  0  0
 51153  1  0  0  0  0
 52154  1  0  0  0  0
 52155  1  0  0  0  0
 52156  1  0  0  0  0
 63157  1  0  0  0  0
 63158  1  0  0  0  0
 64159  1  0  0  0  0
 64160  1  0  0  0  0
 64161  1  0  0  0  0
 71162  1  0  0  0  0
 75163  1  0  0  0  0
 81164  1  0  0  0  0
 81165  1  0  0  0  0
 82166  1  0  0  0  0
 82167  1  0  0  0  0
 82168  1  0  0  0  0
 93169  1  0  0  0  0
 93170  1  0  0  0  0
 94171  1  0  0  0  0
 94172  1  0  0  0  0
 94173  1  0  0  0  0
101174  1  0  0  0  0
109175  1  0  0  0  0
112176  1  0  0  0  0
112177  1  0  0  0  0
112178  1  0  0  0  0
115179  1  0  0  0  0
115180  1  0  0  0  0
115181  1  0  0  0  0
116182  1  0  0  0  0
119183  1  0  0  0  0
122184  1  0  0  0  0
125185  1  0  0  0  0
125186  1  0  0  0  0
125187  1  0  0  0  0
128188  1  0  0  0  0
128189  1  0  0  0  0
128190  1  0  0  0  0
129191  1  0  0  0  0
M  END
