84

C          4.69910        4.80120       -8.05940
C          4.89020        3.91080       -7.04710
C          6.11450        3.07580       -6.86870
C          3.78250        3.86580       -6.17340
C          2.76210        4.71520       -6.52080
S          3.17710        5.59540       -7.96780
C          1.52960        4.89540       -5.82770
C          0.45690        5.71950       -6.10520
C          0.37030        6.63670       -7.27830
C         -0.57090        5.60510       -5.15360
C         -0.31500        4.70850       -4.14370
S          1.24680        3.97110       -4.37480
C         -1.10750        4.33880       -3.01800
C         -2.18950        4.97920       -2.44150
C         -2.77810        6.27020       -2.90750
C         -2.68580        4.29410       -1.32150
C         -2.00900        3.13590       -1.01350
S         -0.71370        2.87850       -2.14980
C         -2.22430        2.19830        0.03480
C         -2.96470        2.30630        1.20020
C         -3.72890        3.51470        1.62940
C         -2.90340        1.14540        1.97900
C         -2.13400        0.12790        1.45110
S         -1.45500        0.63430       -0.06980
C         -1.91000       -1.14300        2.03340
S         -2.60290       -1.47140        3.59710
C         -1.94870       -3.07670        3.65230
C         -1.26020       -3.36280        2.47410
C         -1.21220       -2.26090        1.56760
C         -0.51780       -2.40550        0.34650
C          0.06190       -3.59920        0.02030
O          0.75890       -3.84560       -1.11630
C          0.91060       -2.79850       -2.04360
C         -0.06400       -4.73430        0.89850
O          0.49970       -5.87730        0.42600
C          0.36060       -7.04930        1.18850
C         -0.71340       -4.61000        2.09180
C         -2.13860       -3.90150        4.79670
S         -3.65380       -3.90690        5.64930
C         -3.11210       -5.09350        6.75490
C         -1.81310       -5.47310        6.51320
C         -1.23940       -4.77730        5.40060
C          0.12760       -4.97200        5.09240
C          0.86170       -5.87860        5.79920
O          2.17500       -6.15900        5.58900
C          2.85660       -5.44040        4.59220
C          0.26300       -6.63400        6.87570
O          1.11100       -7.51280        7.47040
C          0.62980       -8.26880        8.55230
C         -1.03510       -6.41870        7.22940
H          5.36520        5.04440       -8.86340
H          6.54760        3.24900       -5.88460
H          5.86250        2.01850       -6.94300
H          6.85600        3.31360       -7.62710
H          3.73320        3.22700       -5.30900
H          0.46550        6.08130       -8.21100
H          1.17210        7.37430       -7.25160
H         -0.58420        7.15670       -7.27550
H         -1.48900        6.15500       -5.23710
H         -3.37570        6.11960       -3.80690
H         -3.42490        6.68090       -2.13580
H         -1.99470        6.99210       -3.13090
H         -3.53930        4.64310       -0.77190
H         -3.12820        4.41420        1.50600
H         -4.63980        3.62350        1.04040
H         -4.00980        3.41930        2.67530
H         -3.41210        1.04210        2.92200
H         -0.45820       -1.56480       -0.32170
H         -0.05650       -2.45460       -2.42390
H          1.44690       -1.94950       -1.60770
H          1.49460       -3.21470       -2.86260
H         -0.69230       -7.31470        1.32940
H          0.83920       -6.95610        2.16990
H          0.85820       -7.83220        0.61880
H         -0.84560       -5.45030        2.75220
H         -3.77300       -5.44530        7.52120
H          0.56880       -4.37830        4.30980
H          2.86740       -4.36660        4.80630
H          2.41730       -5.60190        3.60150
H          3.87630       -5.82140        4.59990
H         -0.21030       -8.90590        8.25580
H          0.32030       -7.62750        9.38430
H          1.46290       -8.89400        8.86900
H         -1.49800       -6.94270        8.04940
