136

C          7.58350        3.78730        3.88660
S          6.78210        2.70150        4.95360
C          5.43650        2.46590        3.88230
C          5.64170        3.22760        2.72680
C          6.86250        3.97760        2.73330
N          7.17340        4.76420        1.67500
C          6.32930        4.79330        0.67740
C          6.72860        5.65660       -0.48080
C          7.40140        4.81800       -1.57250
O          7.62750        5.65450       -2.68630
C          5.11550        4.02730        0.67320
C          4.11490        4.04820       -0.45050
N          3.66910        2.69670       -0.75100
N          4.79360        3.27140        1.69670
C          4.30410        1.66560        4.08900
S          3.08150        1.66380        2.85210
C          2.05930        0.58490        3.76440
C          2.69100        0.18310        4.95040
C          3.94950        0.81680        5.14790
C          4.69840        0.53460        6.30690
C          4.23920       -0.38450        7.21260
O          4.86640       -0.73040        8.36320
C          6.08680       -0.10240        8.67110
C          3.01600       -1.09720        6.96300
O          2.70830       -2.03420        7.89760
C          1.57490       -2.83850        7.68590
C          2.26800       -0.81520        5.85300
C          0.78400        0.24560        3.26790
S          0.52500        0.09920        1.55660
C         -1.15780       -0.32890        1.74720
C         -1.50880       -0.31970        3.11140
C         -0.41720        0.02510        3.95890
C         -0.63220        0.20160        5.34150
C         -1.85360       -0.08550        5.88390
O         -2.17580        0.03660        7.19840
C         -1.21320        0.57120        8.07210
C         -2.92110       -0.55420        5.04490
O         -4.05610       -0.86260        5.71840
C         -5.16630       -1.30260        4.97550
C         -2.75540       -0.63240        3.68600
C         -1.87980       -0.63060        0.58120
S         -0.96800       -0.92130       -0.88600
C         -2.37770       -1.09910       -1.88530
C         -3.52870       -0.99500       -1.08650
C         -3.25470       -0.69410        0.28730
N         -4.27560       -0.39070        1.10340
C         -5.50160       -0.50990        0.64880
C         -6.56330        0.05670        1.55500
C         -7.54940       -0.96210        2.14130
O         -6.86080       -2.14920        2.48090
C         -5.75380       -1.05460       -0.64730
C         -7.11040       -1.49910       -1.10960
N         -7.35850       -2.84430       -0.59890
N         -4.77540       -1.23700       -1.49320
C         -2.28980       -1.32580       -3.26110
S         -0.82260       -1.93870       -3.98790
C         -1.50780       -1.94630       -5.57930
C         -2.82130       -1.46940       -5.54890
C         -3.27330       -1.10780       -4.24570
N         -4.46820       -0.52570       -4.08760
C         -5.22460       -0.37490       -5.14860
C         -6.52330        0.34090       -4.90310
C         -7.76700       -0.51320       -5.16300
O         -7.67030       -1.70210       -4.41350
C         -4.79040       -0.79370       -6.44450
C         -5.60850       -0.61890       -7.70390
N         -4.85490       -0.74080       -8.93540
N         -3.59750       -1.30830       -6.62970
C         -0.79320       -2.39050       -6.69530
S         -1.44600       -2.43860       -8.29780
C          0.00600       -3.07710       -8.96150
C          0.97340       -3.25140       -7.99940
C          0.52300       -2.85660       -6.69780
N          1.31130       -2.93260       -5.61680
C          2.52400       -3.39480       -5.79780
C          3.37320       -3.49430       -4.56630
C          3.07280       -4.79520       -3.81500
O          3.49150       -5.89170       -4.60150
C          2.98030       -3.80960       -7.09490
C          4.36920       -4.36410       -7.29860
N          4.64610       -4.82840       -8.64240
N          2.22860       -3.73570       -8.16180
H          8.52130        4.21660        4.17060
H          7.44200        6.40280       -0.13130
H          5.86850        6.16930       -0.91140
H          6.75650        3.97140       -1.85010
H          8.34800        4.41690       -1.18510
H          8.08830        5.15470       -3.36740
H          4.54800        4.47040       -1.35910
H          3.29190        4.71510       -0.12860
H          2.82780        2.71950       -1.31670
H          3.45090        2.21580        0.11600
H          5.63540        1.04230        6.45710
H          6.84900       -0.31240        7.91380
H          5.96710        0.98130        8.77060
H          6.39980       -0.52180        9.62560
H          1.65770       -3.41300        6.75760
H          0.65340       -2.24660        7.65830
H          1.53740       -3.52160        8.53260
H          1.36710       -1.36160        5.63090
H          0.17470        0.58200        5.94400
H         -1.68920        0.60250        9.05070
H         -0.92060        1.58400        7.77680
H         -0.31720       -0.05700        8.12660
H         -5.51540       -0.52670        4.29030
H         -4.93920       -2.20370        4.39890
H         -5.94140       -1.52100        5.70880
H         -3.56350       -0.90490        3.02920
H         -7.13580        0.80990        1.00810
H         -6.03140        0.55220        2.36890
H         -8.34780       -1.18390        1.41960
H         -8.01940       -0.52200        3.03180
H         -7.44530       -2.72270        2.98660
H         -7.87050       -0.76020       -0.79740
H         -7.09390       -1.55920       -2.20080
H         -7.15250       -2.89700        0.39300
H         -8.32390       -3.11110       -0.75260
H         -6.51430        0.63320       -3.85250
H         -6.58420        1.23570       -5.52730
H         -8.65490        0.06250       -4.85800
H         -7.86200       -0.74020       -6.23220
H         -8.42400       -2.26850       -4.60600
H         -6.09750        0.36070       -7.69290
H         -6.38960       -1.38720       -7.72380
H         -4.39040       -1.64370       -8.95200
H         -4.11540       -0.04490       -8.95170
H          0.07040       -3.28820      -10.00900
H          3.11900       -2.66420       -3.90620
H          4.43240       -3.46160       -4.81470
H          1.99410       -4.84930       -3.61540
H          3.60920       -4.78850       -2.85550
H          3.27750       -6.70940       -4.14140
H          5.10040       -3.58420       -7.05400
H          4.51570       -5.19500       -6.60220
H          3.99630       -5.57230       -8.87810
H          4.46400       -4.07510       -9.29940
