
  xtb     03022211133D
 energy: -272.918427717733 gnorm: 0.000243853081 xtb: 6.4.1 (unknown)
188204  0     0  0            999 V2000
   -0.7815    4.7861    5.6027 C   0  0  0  0  0  0  0  0  0  0  0  0
   -0.5495    4.0395    4.4552 C   0  0  0  0  0  0  0  0  0  0  0  0
   -1.2508    2.9711    3.9428 N   0  0  0  0  0  0  0  0  0  0  0  0
   -2.3792    2.3779    4.6098 C   0  0  0  0  0  0  0  0  0  0  0  0
   -3.6974    3.0887    4.2772 C   0  0  0  0  0  0  0  0  0  0  0  0
   -4.8938    2.3110    4.8089 C   0  0  0  0  0  0  0  0  0  0  0  0
   -0.6385    2.5589    2.7788 C   0  0  0  0  0  0  0  0  0  0  0  0
    0.5048    3.3657    2.5551 C   0  0  0  0  0  0  0  0  0  0  0  0
    0.5510    4.3262    3.6178 C   0  0  0  0  0  0  0  0  0  0  0  0
    1.4208    5.3629    3.9278 C   0  0  0  0  0  0  0  0  0  0  0  0
    1.1830    6.0999    5.0702 C   0  0  0  0  0  0  0  0  0  0  0  0
    0.0968    5.8119    5.8944 C   0  0  0  0  0  0  0  0  0  0  0  0
    1.3500    3.1365    1.4799 C   0  0  0  0  0  0  0  0  0  0  0  0
    1.0796    2.0623    0.6563 C   0  0  0  0  0  0  0  0  0  0  0  0
   -0.0501    1.2822    0.8571 C   0  0  0  0  0  0  0  0  0  0  0  0
   -0.9625    1.5236    1.8855 C   0  0  0  0  0  0  0  0  0  0  0  0
   -2.2242    0.8013    1.9314 C   0  0  0  0  0  0  0  0  0  0  0  0
   -2.4338   -0.4577    1.5208 C   0  0  0  0  0  0  0  0  0  0  0  0
   -3.7503   -1.0791    1.5230 C   0  0  0  0  0  0  0  0  0  0  0  0
   -3.9874   -2.4491    1.7248 C   0  0  0  0  0  0  0  0  0  0  0  0
   -3.1001   -3.5077    1.9011 N   0  0  0  0  0  0  0  0  0  0  0  0
   -1.8862   -3.6421    1.1262 C   0  0  0  0  0  0  0  0  0  0  0  0
   -2.1521   -3.4255   -0.3689 C   0  0  0  0  0  0  0  0  0  0  0  0
   -0.9176   -3.7261   -1.2068 C   0  0  0  0  0  0  0  0  0  0  0  0
   -3.8445   -4.6393    2.2133 C   0  0  0  0  0  0  0  0  0  0  0  0
   -5.2202   -4.3280    2.1604 C   0  0  0  0  0  0  0  0  0  0  0  0
   -5.3104   -2.9243    1.8753 C   0  0  0  0  0  0  0  0  0  0  0  0
   -6.4079   -2.0873    1.7474 C   0  0  0  0  0  0  0  0  0  0  0  0
   -6.1779   -0.7553    1.4682 C   0  0  0  0  0  0  0  0  0  0  0  0
   -4.8831   -0.2732    1.3703 C   0  0  0  0  0  0  0  0  0  0  0  0
   -6.1940   -5.2970    2.3493 C   0  0  0  0  0  0  0  0  0  0  0  0
   -5.7800   -6.5926    2.5849 C   0  0  0  0  0  0  0  0  0  0  0  0
   -4.4310   -6.8848    2.7142 C   0  0  0  0  0  0  0  0  0  0  0  0
   -3.4228   -5.9223    2.5936 C   0  0  0  0  0  0  0  0  0  0  0  0
   -2.1075   -6.3349    3.0643 C   0  0  0  0  0  0  0  0  0  0  0  0
   -1.1651   -5.5872    3.6515 C   0  0  0  0  0  0  0  0  0  0  0  0
   -0.0964   -6.1836    4.4661 C   0  0  0  0  0  0  0  0  0  0  0  0
    1.2632   -5.8409    4.4557 C   0  0  0  0  0  0  0  0  0  0  0  0
    1.9855   -5.0390    3.5948 N   0  0  0  0  0  0  0  0  0  0  0  0
    1.5145   -4.6004    2.3087 C   0  0  0  0  0  0  0  0  0  0  0  0
    1.3438   -5.7730    1.3330 C   0  0  0  0  0  0  0  0  0  0  0  0
    2.6482   -6.5087    1.0551 C   0  0  0  0  0  0  0  0  0  0  0  0
    3.2930   -4.9843    4.0297 C   0  0  0  0  0  0  0  0  0  0  0  0
    3.4191   -5.7558    5.2088 C   0  0  0  0  0  0  0  0  0  0  0  0
    2.1337   -6.3391    5.4549 C   0  0  0  0  0  0  0  0  0  0  0  0
    1.6923   -7.2305    6.4226 C   0  0  0  0  0  0  0  0  0  0  0  0
    0.3742   -7.6318    6.3827 C   0  0  0  0  0  0  0  0  0  0  0  0
   -0.4926   -7.1073    5.4323 C   0  0  0  0  0  0  0  0  0  0  0  0
    4.6180   -5.8166    5.9059 C   0  0  0  0  0  0  0  0  0  0  0  0
    5.6847   -5.0796    5.4369 C   0  0  0  0  0  0  0  0  0  0  0  0
    5.5619   -4.3172    4.2809 C   0  0  0  0  0  0  0  0  0  0  0  0
    4.3876   -4.2628    3.5388 C   0  0  0  0  0  0  0  0  0  0  0  0
    4.3912   -3.4812    2.2955 C   0  0  0  0  0  0  0  0  0  0  0  0
    4.5264   -2.1487    2.2516 C   0  0  0  0  0  0  0  0  0  0  0  0
    4.6081   -1.3817    1.0505 C   0  0  0  0  0  0  0  0  0  0  0  0
    4.7859   -2.1473   -0.5007 S   0  0  0  0  0  0  0  0  0  0  0  0
    4.8007   -0.6376   -1.3437 C   0  0  0  0  0  0  0  0  0  0  0  0
    4.6854    0.4211   -0.4569 C   0  0  0  0  0  0  0  0  0  0  0  0
    4.5782    0.0015    0.9062 C   0  0  0  0  0  0  0  0  0  0  0  0
    4.4704    0.9774    1.9245 C   0  0  0  0  0  0  0  0  0  0  0  0
    4.4881    2.3021    1.6029 C   0  0  0  0  0  0  0  0  0  0  0  0
    4.4094    3.3286    2.4887 O   0  0  0  0  0  0  0  0  0  0  0  0
    4.2096    3.0209    3.8448 C   0  0  0  0  0  0  0  0  0  0  0  0
    4.5919    2.7227    0.2244 C   0  0  0  0  0  0  0  0  0  0  0  0
    4.5657    4.0716    0.0551 O   0  0  0  0  0  0  0  0  0  0  0  0
    4.6325    4.5738   -1.2551 C   0  0  0  0  0  0  0  0  0  0  0  0
    4.6858    1.8025   -0.7752 C   0  0  0  0  0  0  0  0  0  0  0  0
    5.0800   -0.5737   -2.7742 C   0  0  0  0  0  0  0  0  0  0  0  0
    4.2690    0.0652   -3.7223 C   0  0  0  0  0  0  0  0  0  0  0  0
    3.0065    0.6119   -3.6048 N   0  0  0  0  0  0  0  0  0  0  0  0
    2.0508    0.2343   -2.5926 C   0  0  0  0  0  0  0  0  0  0  0  0
    1.1656   -0.9350   -3.0417 C   0  0  0  0  0  0  0  0  0  0  0  0
    1.9583   -2.2214   -3.2332 C   0  0  0  0  0  0  0  0  0  0  0  0
    2.6522    1.1511   -4.8293 C   0  0  0  0  0  0  0  0  0  0  0  0
    3.7067    0.9505   -5.7499 C   0  0  0  0  0  0  0  0  0  0  0  0
    4.7357    0.2427   -5.0464 C   0  0  0  0  0  0  0  0  0  0  0  0
    5.9574   -0.2725   -5.4565 C   0  0  0  0  0  0  0  0  0  0  0  0
    6.7098   -0.9809   -4.5423 C   0  0  0  0  0  0  0  0  0  0  0  0
    6.2775   -1.1191   -3.2303 C   0  0  0  0  0  0  0  0  0  0  0  0
    3.6085    1.3817   -7.0660 C   0  0  0  0  0  0  0  0  0  0  0  0
    2.4457    2.0069   -7.4626 C   0  0  0  0  0  0  0  0  0  0  0  0
    1.4091    2.2063   -6.5581 C   0  0  0  0  0  0  0  0  0  0  0  0
    1.4799    1.8043   -5.2288 C   0  0  0  0  0  0  0  0  0  0  0  0
    0.3383    2.0855   -4.3471 C   0  0  0  0  0  0  0  0  0  0  0  0
   -0.8983    1.6782   -4.6343 C   0  0  0  0  0  0  0  0  0  0  0  0
   -2.0654    1.8894   -3.7782 C   0  0  0  0  0  0  0  0  0  0  0  0
   -3.3506    2.2124   -4.2403 C   0  0  0  0  0  0  0  0  0  0  0  0
   -3.7998    2.5499   -5.4991 N   0  0  0  0  0  0  0  0  0  0  0  0
   -3.0116    2.5366   -6.7024 C   0  0  0  0  0  0  0  0  0  0  0  0
   -3.0722    1.1804   -7.4149 C   0  0  0  0  0  0  0  0  0  0  0  0
   -2.1337    1.1408   -8.6131 C   0  0  0  0  0  0  0  0  0  0  0  0
   -5.1567    2.7953   -5.4381 C   0  0  0  0  0  0  0  0  0  0  0  0
   -5.5940    2.6264   -4.1034 C   0  0  0  0  0  0  0  0  0  0  0  0
   -4.4358    2.2845   -3.3335 C   0  0  0  0  0  0  0  0  0  0  0  0
   -4.2608    2.0632   -1.9747 C   0  0  0  0  0  0  0  0  0  0  0  0
   -2.9899    1.7878   -1.5170 C   0  0  0  0  0  0  0  0  0  0  0  0
   -1.9265    1.7033   -2.4051 C   0  0  0  0  0  0  0  0  0  0  0  0
   -6.9288    2.7858   -3.7560 C   0  0  0  0  0  0  0  0  0  0  0  0
   -7.8299    3.0988   -4.7505 C   0  0  0  0  0  0  0  0  0  0  0  0
   -7.4010    3.2701   -6.0624 C   0  0  0  0  0  0  0  0  0  0  0  0
   -6.0697    3.1442   -6.4391 C   0  0  0  0  0  0  0  0  0  0  0  0
   -5.7253    3.4058   -7.8495 C   0  0  0  0  0  0  0  0  0  0  0  0
   -6.1473    2.6554   -8.8530 C   0  0  0  0  0  0  0  0  0  0  0  0
   -1.6191    4.5835    6.2532 H   0  0  0  0  0  0  0  0  0  0  0  0
   -2.2042    2.4264    5.6897 H   0  0  0  0  0  0  0  0  0  0  0  0
   -2.4376    1.3227    4.3310 H   0  0  0  0  0  0  0  0  0  0  0  0
   -3.7837    3.2052    3.1942 H   0  0  0  0  0  0  0  0  0  0  0  0
   -3.6815    4.0922    4.7070 H   0  0  0  0  0  0  0  0  0  0  0  0
   -4.8194    2.1853    5.8868 H   0  0  0  0  0  0  0  0  0  0  0  0
   -4.9444    1.3241    4.3522 H   0  0  0  0  0  0  0  0  0  0  0  0
   -5.8185    2.8380    4.5885 H   0  0  0  0  0  0  0  0  0  0  0  0
    2.2593    5.5815    3.2842 H   0  0  0  0  0  0  0  0  0  0  0  0
    1.8424    6.9137    5.3333 H   0  0  0  0  0  0  0  0  0  0  0  0
   -0.0639    6.4068    6.7817 H   0  0  0  0  0  0  0  0  0  0  0  0
    2.1956    3.7818    1.3075 H   0  0  0  0  0  0  0  0  0  0  0  0
    1.7448    1.8371   -0.1635 H   0  0  0  0  0  0  0  0  0  0  0  0
   -0.2630    0.4816    0.1634 H   0  0  0  0  0  0  0  0  0  0  0  0
   -3.0672    1.3694    2.2934 H   0  0  0  0  0  0  0  0  0  0  0  0
   -1.5874   -1.0503    1.2134 H   0  0  0  0  0  0  0  0  0  0  0  0
   -1.1251   -2.9398    1.4810 H   0  0  0  0  0  0  0  0  0  0  0  0
   -1.5112   -4.6558    1.2723 H   0  0  0  0  0  0  0  0  0  0  0  0
   -2.9716   -4.0808   -0.6740 H   0  0  0  0  0  0  0  0  0  0  0  0
   -2.4728   -2.3965   -0.5428 H   0  0  0  0  0  0  0  0  0  0  0  0
   -0.6575   -4.7804   -1.1417 H   0  0  0  0  0  0  0  0  0  0  0  0
   -1.1040   -3.4859   -2.2504 H   0  0  0  0  0  0  0  0  0  0  0  0
   -0.0674   -3.1392   -0.8648 H   0  0  0  0  0  0  0  0  0  0  0  0
   -7.4090   -2.4733    1.8614 H   0  0  0  0  0  0  0  0  0  0  0  0
   -7.0079   -0.0766    1.3387 H   0  0  0  0  0  0  0  0  0  0  0  0
   -4.7426    0.7743    1.1520 H   0  0  0  0  0  0  0  0  0  0  0  0
   -7.2413   -5.0414    2.3031 H   0  0  0  0  0  0  0  0  0  0  0  0
   -6.5068   -7.3819    2.7059 H   0  0  0  0  0  0  0  0  0  0  0  0
   -4.1432   -7.8952    2.9685 H   0  0  0  0  0  0  0  0  0  0  0  0
   -1.9704   -7.4108    3.0839 H   0  0  0  0  0  0  0  0  0  0  0  0
   -1.2511   -4.5089    3.6815 H   0  0  0  0  0  0  0  0  0  0  0  0
    0.5570   -4.0931    2.4361 H   0  0  0  0  0  0  0  0  0  0  0  0
    2.2329   -3.8801    1.9134 H   0  0  0  0  0  0  0  0  0  0  0  0
    0.9393   -5.3835    0.3979 H   0  0  0  0  0  0  0  0  0  0  0  0
    0.6174   -6.4727    1.7519 H   0  0  0  0  0  0  0  0  0  0  0  0
    3.3539   -5.8630    0.5377 H   0  0  0  0  0  0  0  0  0  0  0  0
    3.1049   -6.8511    1.9810 H   0  0  0  0  0  0  0  0  0  0  0  0
    2.4624   -7.3765    0.4268 H   0  0  0  0  0  0  0  0  0  0  0  0
    2.3694   -7.5992    7.1776 H   0  0  0  0  0  0  0  0  0  0  0  0
   -0.0026   -8.3368    7.1085 H   0  0  0  0  0  0  0  0  0  0  0  0
   -1.5348   -7.3902    5.4655 H   0  0  0  0  0  0  0  0  0  0  0  0
    4.7008   -6.4147    6.8004 H   0  0  0  0  0  0  0  0  0  0  0  0
    6.6268   -5.0912    5.9644 H   0  0  0  0  0  0  0  0  0  0  0  0
    6.4136   -3.7557    3.9241 H   0  0  0  0  0  0  0  0  0  0  0  0
    4.3611   -4.0388    1.3662 H   0  0  0  0  0  0  0  0  0  0  0  0
    4.5518   -1.5869    3.1758 H   0  0  0  0  0  0  0  0  0  0  0  0
    4.3825    0.6533    2.9478 H   0  0  0  0  0  0  0  0  0  0  0  0
    4.1422    3.9770    4.3606 H   0  0  0  0  0  0  0  0  0  0  0  0
    5.0468    2.4461    4.2548 H   0  0  0  0  0  0  0  0  0  0  0  0
    3.2768    2.4666    3.9931 H   0  0  0  0  0  0  0  0  0  0  0  0
    4.5874    5.6574   -1.1592 H   0  0  0  0  0  0  0  0  0  0  0  0
    3.7883    4.2276   -1.8614 H   0  0  0  0  0  0  0  0  0  0  0  0
    5.5686    4.2914   -1.7480 H   0  0  0  0  0  0  0  0  0  0  0  0
    4.7670    2.0881   -1.8114 H   0  0  0  0  0  0  0  0  0  0  0  0
    1.4233    1.0947   -2.3574 H   0  0  0  0  0  0  0  0  0  0  0  0
    2.5962   -0.0518   -1.6934 H   0  0  0  0  0  0  0  0  0  0  0  0
    0.6657   -0.6685   -3.9748 H   0  0  0  0  0  0  0  0  0  0  0  0
    0.3940   -1.0848   -2.2841 H   0  0  0  0  0  0  0  0  0  0  0  0
    2.4606   -2.5061   -2.3109 H   0  0  0  0  0  0  0  0  0  0  0  0
    2.7119   -2.0991   -4.0080 H   0  0  0  0  0  0  0  0  0  0  0  0
    1.2977   -3.0331   -3.5280 H   0  0  0  0  0  0  0  0  0  0  0  0
    6.2981   -0.1298   -6.4704 H   0  0  0  0  0  0  0  0  0  0  0  0
    7.6534   -1.4155   -4.8357 H   0  0  0  0  0  0  0  0  0  0  0  0
    6.9010   -1.6424   -2.5196 H   0  0  0  0  0  0  0  0  0  0  0  0
    4.4236    1.2253   -7.7556 H   0  0  0  0  0  0  0  0  0  0  0  0
    2.3338    2.3524   -8.4796 H   0  0  0  0  0  0  0  0  0  0  0  0
    0.5177    2.7213   -6.8880 H   0  0  0  0  0  0  0  0  0  0  0  0
    0.5241    2.6929   -3.4703 H   0  0  0  0  0  0  0  0  0  0  0  0
   -1.0459    1.0775   -5.5222 H   0  0  0  0  0  0  0  0  0  0  0  0
   -3.3791    3.3103   -7.3772 H   0  0  0  0  0  0  0  0  0  0  0  0
   -1.9808    2.7843   -6.4379 H   0  0  0  0  0  0  0  0  0  0  0  0
   -4.0987    1.0044   -7.7436 H   0  0  0  0  0  0  0  0  0  0  0  0
   -2.8118    0.3871   -6.7102 H   0  0  0  0  0  0  0  0  0  0  0  0
   -1.1011    1.2840   -8.3009 H   0  0  0  0  0  0  0  0  0  0  0  0
   -2.2062    0.1822   -9.1206 H   0  0  0  0  0  0  0  0  0  0  0  0
   -2.3911    1.9243   -9.3223 H   0  0  0  0  0  0  0  0  0  0  0  0
   -5.1027    2.1137   -1.3015 H   0  0  0  0  0  0  0  0  0  0  0  0
   -2.8085    1.6213   -0.4666 H   0  0  0  0  0  0  0  0  0  0  0  0
   -0.9498    1.4524   -2.0201 H   0  0  0  0  0  0  0  0  0  0  0  0
   -7.2460    2.6566   -2.7326 H   0  0  0  0  0  0  0  0  0  0  0  0
   -8.8776    3.2180   -4.5180 H   0  0  0  0  0  0  0  0  0  0  0  0
   -8.1218    3.5289   -6.8247 H   0  0  0  0  0  0  0  0  0  0  0  0
   -5.1488    4.3036   -8.0444 H   0  0  0  0  0  0  0  0  0  0  0  0
   -6.7348    1.7681   -8.6815 H   0  0  0  0  0  0  0  0  0  0  0  0
   -5.9184    2.8888   -9.8793 H   0  0  0  0  0  0  0  0  0  0  0  0
  1  2  2  0  0  0  0
  2  3  1  0  0  0  0
  3  4  1  0  0  0  0
  4  5  1  0  0  0  0
  5  6  1  0  0  0  0
  3  7  1  0  0  0  0
  7  8  2  0  0  0  0
  8  9  1  0  0  0  0
  9 10  2  0  0  0  0
 10 11  1  0  0  0  0
 11 12  2  0  0  0  0
  8 13  1  0  0  0  0
 13 14  2  0  0  0  0
 14 15  1  0  0  0  0
 15 16  2  0  0  0  0
 16 17  1  0  0  0  0
 17 18  2  0  0  0  0
 18 19  1  0  0  0  0
 19 20  2  0  0  0  0
 20 21  1  0  0  0  0
 21 22  1  0  0  0  0
 22 23  1  0  0  0  0
 23 24  1  0  0  0  0
 21 25  1  0  0  0  0
 25 26  2  0  0  0  0
 26 27  1  0  0  0  0
 27 28  2  0  0  0  0
 28 29  1  0  0  0  0
 29 30  2  0  0  0  0
 26 31  1  0  0  0  0
 31 32  2  0  0  0  0
 32 33  1  0  0  0  0
 33 34  2  0  0  0  0
 34 35  1  0  0  0  0
 35 36  2  0  0  0  0
 36 37  1  0  0  0  0
 37 38  2  0  0  0  0
 38 39  1  0  0  0  0
 39 40  1  0  0  0  0
 40 41  1  0  0  0  0
 41 42  1  0  0  0  0
 39 43  1  0  0  0  0
 43 44  2  0  0  0  0
 44 45  1  0  0  0  0
 45 46  2  0  0  0  0
 46 47  1  0  0  0  0
 47 48  2  0  0  0  0
 44 49  1  0  0  0  0
 49 50  2  0  0  0  0
 50 51  1  0  0  0  0
 51 52  2  0  0  0  0
 52 53  1  0  0  0  0
 53 54  2  0  0  0  0
 54 55  1  0  0  0  0
 55 56  1  0  0  0  0
 56 57  1  0  0  0  0
 57 58  2  0  0  0  0
 58 59  1  0  0  0  0
 59 60  1  0  0  0  0
 60 61  2  0  0  0  0
 61 62  1  0  0  0  0
 62 63  1  0  0  0  0
 61 64  1  0  0  0  0
 64 65  1  0  0  0  0
 65 66  1  0  0  0  0
 64 67  2  0  0  0  0
 57 68  1  0  0  0  0
 68 69  2  0  0  0  0
 69 70  1  0  0  0  0
 70 71  1  0  0  0  0
 71 72  1  0  0  0  0
 72 73  1  0  0  0  0
 70 74  1  0  0  0  0
 74 75  2  0  0  0  0
 75 76  1  0  0  0  0
 76 77  2  0  0  0  0
 77 78  1  0  0  0  0
 78 79  2  0  0  0  0
 75 80  1  0  0  0  0
 80 81  2  0  0  0  0
 81 82  1  0  0  0  0
 82 83  2  0  0  0  0
 83 84  1  0  0  0  0
 84 85  2  0  0  0  0
 85 86  1  0  0  0  0
 86 87  2  0  0  0  0
 87 88  1  0  0  0  0
 88 89  1  0  0  0  0
 89 90  1  0  0  0  0
 90 91  1  0  0  0  0
 88 92  1  0  0  0  0
 92 93  2  0  0  0  0
 93 94  1  0  0  0  0
 94 95  2  0  0  0  0
 95 96  1  0  0  0  0
 96 97  2  0  0  0  0
 93 98  1  0  0  0  0
 98 99  2  0  0  0  0
 99100  1  0  0  0  0
100101  2  0  0  0  0
101102  1  0  0  0  0
102103  2  0  0  0  0
 12  1  1  0  0  0  0
 30 19  1  0  0  0  0
 48 37  1  0  0  0  0
 59 55  2  0  0  0  0
 79 68  1  0  0  0  0
 97 86  1  0  0  0  0
  9  2  1  0  0  0  0
 27 20  1  0  0  0  0
 45 38  1  0  0  0  0
 67 58  1  0  0  0  0
 76 69  1  0  0  0  0
 94 87  1  0  0  0  0
 16  7  1  0  0  0  0
 34 25  1  0  0  0  0
 52 43  1  0  0  0  0
 83 74  1  0  0  0  0
101 92  1  0  0  0  0
  1104  1  0  0  0  0
  4105  1  0  0  0  0
  4106  1  0  0  0  0
  5107  1  0  0  0  0
  5108  1  0  0  0  0
  6109  1  0  0  0  0
  6110  1  0  0  0  0
  6111  1  0  0  0  0
 10112  1  0  0  0  0
 11113  1  0  0  0  0
 12114  1  0  0  0  0
 13115  1  0  0  0  0
 14116  1  0  0  0  0
 15117  1  0  0  0  0
 17118  1  0  0  0  0
 18119  1  0  0  0  0
 22120  1  0  0  0  0
 22121  1  0  0  0  0
 23122  1  0  0  0  0
 23123  1  0  0  0  0
 24124  1  0  0  0  0
 24125  1  0  0  0  0
 24126  1  0  0  0  0
 28127  1  0  0  0  0
 29128  1  0  0  0  0
 30129  1  0  0  0  0
 31130  1  0  0  0  0
 32131  1  0  0  0  0
 33132  1  0  0  0  0
 35133  1  0  0  0  0
 36134  1  0  0  0  0
 40135  1  0  0  0  0
 40136  1  0  0  0  0
 41137  1  0  0  0  0
 41138  1  0  0  0  0
 42139  1  0  0  0  0
 42140  1  0  0  0  0
 42141  1  0  0  0  0
 46142  1  0  0  0  0
 47143  1  0  0  0  0
 48144  1  0  0  0  0
 49145  1  0  0  0  0
 50146  1  0  0  0  0
 51147  1  0  0  0  0
 53148  1  0  0  0  0
 54149  1  0  0  0  0
 60150  1  0  0  0  0
 63151  1  0  0  0  0
 63152  1  0  0  0  0
 63153  1  0  0  0  0
 66154  1  0  0  0  0
 66155  1  0  0  0  0
 66156  1  0  0  0  0
 67157  1  0  0  0  0
 71158  1  0  0  0  0
 71159  1  0  0  0  0
 72160  1  0  0  0  0
 72161  1  0  0  0  0
 73162  1  0  0  0  0
 73163  1  0  0  0  0
 73164  1  0  0  0  0
 77165  1  0  0  0  0
 78166  1  0  0  0  0
 79167  1  0  0  0  0
 80168  1  0  0  0  0
 81169  1  0  0  0  0
 82170  1  0  0  0  0
 84171  1  0  0  0  0
 85172  1  0  0  0  0
 89173  1  0  0  0  0
 89174  1  0  0  0  0
 90175  1  0  0  0  0
 90176  1  0  0  0  0
 91177  1  0  0  0  0
 91178  1  0  0  0  0
 91179  1  0  0  0  0
 95180  1  0  0  0  0
 96181  1  0  0  0  0
 97182  1  0  0  0  0
 98183  1  0  0  0  0
 99184  1  0  0  0  0
100185  1  0  0  0  0
102186  1  0  0  0  0
103187  1  0  0  0  0
103188  1  0  0  0  0
M  END
