215

C         -1.48820      -15.01250        8.04200
C         -0.48410      -14.15270        7.77720
C         -0.89040      -13.06410        6.94950
C         -0.11590      -11.99700        6.47510
C          1.32370      -11.87510        6.74040
C          2.20250      -12.91520        6.45660
C          3.56610      -12.77140        6.63550
C          4.09890      -11.57660        7.10640
S          5.80820      -11.23930        7.35110
C          6.63260      -12.77680        6.79650
C          8.13390      -12.59120        6.91130
C          3.20240      -10.54920        7.40660
F          3.68660       -9.38000        7.87810
C          1.84500      -10.67940        7.23300
C         -0.77350      -11.04800        5.70700
C         -2.14740      -11.12300        5.37170
C         -2.91960      -12.19830        5.83830
C         -4.34200      -12.32510        5.49980
C         -4.77520      -12.24290        4.17970
C         -6.11220      -12.37000        3.85500
C         -7.06720      -12.58480        4.84230
S         -8.80170      -12.73990        4.58240
C         -8.97340      -12.93970        2.77570
C         -8.50010      -14.30010        2.29950
C         -6.61820      -12.65880        6.16280
C         -5.28970      -12.53760        6.49920
F         -7.51770      -12.85160        7.14780
C         -2.26770      -13.13610        6.62900
S         -2.99550      -14.56450        7.32030
C         -2.56110      -10.01200        4.58730
C         -1.55330       -9.14180        4.30390
S         -0.02250       -9.64440        5.00050
C         -1.58380       -7.91380        3.58030
C         -0.52910       -7.06880        3.40820
C         -0.84680       -5.89530        2.68470
C          0.00590       -4.82190        2.37720
C          1.38510       -4.78820        2.87590
C          1.66110       -5.05700        4.21530
C          2.95640       -5.07080        4.69160
C          4.02990       -4.81470        3.84500
S          5.72210       -4.83200        4.33380
C          5.72960       -5.87560        5.83460
C          5.35290       -7.31480        5.54370
C          3.73580       -4.49910        2.51810
F          4.74750       -4.20820        1.67250
C          2.44920       -4.48730        2.02830
C         -0.53640       -3.80850        1.60380
C         -1.88590       -3.79890        1.16940
C         -2.74680       -4.85430        1.51640
C         -4.16240       -4.83280        1.12650
C         -4.95980       -3.72650        1.41580
C         -6.28450       -3.69660        1.03370
C         -6.85990       -4.76390        0.35150
S         -8.57450       -4.65720       -0.09270
C         -8.52210       -5.05220       -1.88050
C         -7.70970       -4.03190       -2.65350
C         -6.06310       -5.87560        0.10010
C         -4.73380       -5.91690        0.46890
F         -6.57410       -6.95690       -0.52790
C         -2.19650       -5.89120        2.25410
S         -3.04390       -7.31290        2.81840
C         -2.18040       -2.65290        0.38640
C         -1.12620       -1.80000        0.25070
S          0.30730       -2.37690        1.08110
C         -1.05220       -0.56400       -0.45090
C          0.02530        0.26940       -0.49900
C         -0.18670        1.43760       -1.26690
C          0.70950        2.50580       -1.46200
C          2.08690        2.39570       -0.97200
C          2.82150        1.24120       -1.23840
C          4.09490        1.06910       -0.73720
C          4.68250        2.04550        0.06010
S          6.27670        1.91090        0.79720
C          6.60560        0.11190        0.79820
C          5.66520       -0.65510        1.70740
C          3.95850        3.22010        0.27220
F          4.50970        4.20460        1.01040
C          2.68790        3.40680       -0.22680
C          0.21820        3.60660       -2.14080
C         -1.08760        3.65050       -2.69500
C         -1.97050        2.56680       -2.52890
C         -3.32900        2.59980       -3.08050
C         -3.82230        1.53810       -3.83260
C         -5.09560        1.56790       -4.36740
C         -5.92980        2.66070       -4.16200
S         -7.56230        2.83820       -4.80250
C         -8.01880        1.15160       -5.33200
C         -8.22290        0.21000       -4.16010
C         -5.42280        3.71850       -3.40580
C         -4.15640        3.70210       -2.86810
F         -6.19820        4.80500       -3.19190
C         -1.49450        1.48460       -1.80620
S         -2.40930        0.05840       -1.37300
C         -1.32120        4.84480       -3.41190
C         -0.28060        5.73540       -3.37830
S          1.08760        5.07810       -2.48210
C         -0.17050        7.04050       -3.91810
S          1.36670        7.84860       -3.80120
C          0.77750        9.28310       -4.57460
C         -0.55350        9.11110       -4.97080
C         -1.10850        7.86260       -4.55830
C         -2.47390        7.61470       -4.81990
C         -3.22300        8.51080       -5.53230
O         -4.53690        8.37120       -5.82630
C         -5.21270        7.22400       -5.36820
C         -2.61600        9.70260       -6.06370
O         -3.43900       10.46420       -6.83050
C         -2.90410       11.61130       -7.44130
C         -1.31230        9.98900       -5.77670
C          1.62010       10.41230       -4.71060
S          3.32650       10.18850       -4.94320
C          3.64610       11.89680       -5.01660
C          2.45380       12.61350       -4.83850
C          1.31820       11.77490       -4.63290
C          0.07700       12.34900       -4.27940
C         -0.06070       13.70660       -4.22560
O         -1.20100       14.36750       -3.90040
C         -2.32510       13.61160       -3.52410
C          1.06450       14.55770       -4.50780
O          0.79290       15.88530       -4.44000
C          1.83990       16.79210       -4.68170
C          2.28900       14.01500       -4.78000
C          4.96010       12.36660       -5.26310
S          5.23680       13.92710       -5.99190
C          6.93080       13.70980       -6.02030
C          7.30390       12.49830       -5.48990
C          6.18390       11.71930       -5.05430
C          6.42170       10.46810       -4.44560
C          7.69820       10.00000       -4.30750
O          8.04000        8.82000       -3.73790
C          7.01550        7.99660       -3.23470
C          8.82230       10.77370       -4.77950
O         10.02500       10.17720       -4.58510
C         11.18030       10.86360       -4.99510
C          8.62190       11.99570       -5.34760
H         -1.45240      -15.90510        8.63570
H          0.51510      -14.26220        8.15790
H          1.81810      -13.84360        6.06160
H          4.21260      -13.59910        6.39400
H          6.29140      -13.59190        7.43510
H          6.34060      -12.95890        5.76210
H          8.46320      -11.76170        6.29000
H          8.64380      -13.49550        6.58620
H          8.41460      -12.38270        7.94100
H          1.20150       -9.85410        7.49290
H         -4.05300      -12.09860        3.39020
H         -6.40310      -12.29370        2.82010
H        -10.04410      -12.82270        2.60860
H         -8.45550      -12.11860        2.28200
H         -7.44450      -14.44700        2.51790
H         -9.06380      -15.08680        2.79540
H         -8.64930      -14.38900        1.22510
H         -5.00550      -12.58990        7.53810
H         -3.57430       -9.85230        4.26420
H          0.45430       -7.29100        3.78180
H          0.84720       -5.23660        4.90120
H          3.12600       -5.27910        5.73560
H          6.76030       -5.80590        6.18200
H          5.08190       -5.42020        6.58240
H          6.03790       -7.74400        4.81610
H          5.40260       -7.90040        6.45910
H          4.34190       -7.38280        5.14680
H          2.28960       -4.27270        0.98370
H         -4.53730       -2.89120        1.95310
H         -6.89950       -2.83840        1.25610
H         -8.13610       -6.06130       -2.00640
H         -9.56930       -5.03230       -2.18080
H         -8.10170       -3.03030       -2.48910
H         -6.66720       -4.04980       -2.33920
H         -7.75340       -4.25600       -3.71770
H         -4.15340       -6.79500        0.23230
H         -3.13590       -2.46900       -0.07140
H          0.93630        0.06220        0.03370
H          2.39340        0.47160       -1.86310
H          4.63010        0.16360       -0.97250
H          7.63200        0.04650        1.15870
H          6.57790       -0.24970       -0.22900
H          5.74860       -0.29080        2.72860
H          4.63120       -0.54420        1.38680
H          5.91870       -1.71310        1.69320
H          2.16600        4.32360       -0.00340
H         -3.19280        0.68230       -4.02240
H         -5.42790        0.73130       -4.95980
H         -8.95190        1.30180       -5.87510
H         -7.26640        0.78970       -6.03180
H         -8.52550       -0.77040       -4.52390
H         -7.30800        0.09960       -3.58160
H         -8.99990        0.59310       -3.50280
H         -3.83000        4.53400       -2.26360
H         -2.22360        5.00230       -3.96760
H         -2.93030        6.71920       -4.44240
H         -4.77910        6.30870       -5.78450
H         -5.21240        7.16220       -4.27600
H         -6.23800        7.32460       -5.71820
H         -2.55540       12.34180       -6.70280
H         -3.71930       12.04480       -8.01790
H         -2.07620       11.36030       -8.11250
H         -0.82840       10.86510       -6.17390
H         -0.73800       11.69290       -4.02570
H         -2.66740       12.95840       -4.33420
H         -2.12130       13.00270       -2.63730
H         -3.10360       14.33690       -3.29430
H          2.63920       16.69010       -3.94050
H          2.25980       16.66300       -5.68470
H          1.39510       17.78230       -4.59910
H          3.14540       14.64740       -4.93170
H          7.55630       14.48290       -6.41870
H          5.58950        9.89490       -4.07680
H          7.51570        7.11580       -2.83630
H          6.31820        7.69470       -4.02280
H          6.45970        8.49120       -2.43200
H         12.01520       10.21200       -4.74350
H         11.29080       11.81610       -4.46580
H         11.17600       11.04860       -6.07460
H          9.43900       12.60680       -5.69450
