
  xtb     03032212443D
 energy: -272.753800699532 gnorm: 0.000207407690 xtb: 6.4.1 (unknown)
157171  0     0  0            999 V2000
   12.0220   -5.2977    0.2883 C   0  0  0  0  0  0  0  0  0  0  0  0
   11.2373   -4.0124    1.0944 S   0  0  0  0  0  0  0  0  0  0  0  0
    9.6921   -4.3831    0.3714 C   0  0  0  0  0  0  0  0  0  0  0  0
    9.8256   -5.4867   -0.4822 C   0  0  0  0  0  0  0  0  0  0  0  0
   11.1612   -6.0018   -0.5192 C   0  0  0  0  0  0  0  0  0  0  0  0
   11.4741   -7.1201   -1.3321 C   0  0  0  0  0  0  0  0  0  0  0  0
   10.5025   -7.6967   -2.0939 C   0  0  0  0  0  0  0  0  0  0  0  0
   10.6657   -8.7681   -2.9109 O   0  0  0  0  0  0  0  0  0  0  0  0
   11.9433   -9.3464   -2.9980 C   0  0  0  0  0  0  0  0  0  0  0  0
    9.1649   -7.1568   -2.0891 C   0  0  0  0  0  0  0  0  0  0  0  0
    8.3049   -7.8023   -2.9175 O   0  0  0  0  0  0  0  0  0  0  0  0
    6.9832   -7.3335   -3.0062 C   0  0  0  0  0  0  0  0  0  0  0  0
    8.8464   -6.0842   -1.3046 C   0  0  0  0  0  0  0  0  0  0  0  0
    8.5285   -3.6592    0.7229 C   0  0  0  0  0  0  0  0  0  0  0  0
    6.9578   -4.3809    0.5300 S   0  0  0  0  0  0  0  0  0  0  0  0
    6.1091   -3.0112    1.1952 C   0  0  0  0  0  0  0  0  0  0  0  0
    7.0400   -2.0282    1.5734 C   0  0  0  0  0  0  0  0  0  0  0  0
    8.3928   -2.3893    1.3031 C   0  0  0  0  0  0  0  0  0  0  0  0
    9.4235   -1.4660    1.5796 C   0  0  0  0  0  0  0  0  0  0  0  0
    9.1365   -0.2531    2.1404 C   0  0  0  0  0  0  0  0  0  0  0  0
   10.0461    0.7081    2.4375 O   0  0  0  0  0  0  0  0  0  0  0  0
   11.3999    0.4526    2.1573 C   0  0  0  0  0  0  0  0  0  0  0  0
    7.7799    0.0852    2.4704 C   0  0  0  0  0  0  0  0  0  0  0  0
    7.6248    1.2995    3.0499 O   0  0  0  0  0  0  0  0  0  0  0  0
    6.3212    1.7306    3.3581 C   0  0  0  0  0  0  0  0  0  0  0  0
    6.7667   -0.7892    2.1869 C   0  0  0  0  0  0  0  0  0  0  0  0
    4.7008   -2.9638    1.1768 C   0  0  0  0  0  0  0  0  0  0  0  0
    3.8535   -1.4497    1.3024 S   0  0  0  0  0  0  0  0  0  0  0  0
    2.2989   -2.1663    1.0057 C   0  0  0  0  0  0  0  0  0  0  0  0
    2.4304   -3.5481    0.8162 C   0  0  0  0  0  0  0  0  0  0  0  0
    3.7768   -4.0010    0.9461 C   0  0  0  0  0  0  0  0  0  0  0  0
    4.0497   -5.3820    0.8658 C   0  0  0  0  0  0  0  0  0  0  0  0
    3.0516   -6.2748    0.5889 C   0  0  0  0  0  0  0  0  0  0  0  0
    3.2063   -7.6202    0.4961 O   0  0  0  0  0  0  0  0  0  0  0  0
    4.4815   -8.1615    0.7315 C   0  0  0  0  0  0  0  0  0  0  0  0
    1.7135   -5.8081    0.3585 C   0  0  0  0  0  0  0  0  0  0  0  0
    0.8224   -6.7782    0.0366 O   0  0  0  0  0  0  0  0  0  0  0  0
   -0.5143   -6.4093   -0.1974 C   0  0  0  0  0  0  0  0  0  0  0  0
    1.4220   -4.4783    0.4849 C   0  0  0  0  0  0  0  0  0  0  0  0
    1.1646   -1.3209    0.9688 C   0  0  0  0  0  0  0  0  0  0  0  0
   -0.1696   -1.6281    0.9237 C   0  0  0  0  0  0  0  0  0  0  0  0
   -1.0193   -0.5065    0.8034 C   0  0  0  0  0  0  0  0  0  0  0  0
   -2.4227   -0.5059    0.7013 C   0  0  0  0  0  0  0  0  0  0  0  0
   -3.1812   -1.7592    0.6326 C   0  0  0  0  0  0  0  0  0  0  0  0
   -2.8241   -2.7644   -0.2663 C   0  0  0  0  0  0  0  0  0  0  0  0
   -3.5537   -3.9308   -0.3434 C   0  0  0  0  0  0  0  0  0  0  0  0
   -4.6576   -4.1496    0.4783 C   0  0  0  0  0  0  0  0  0  0  0  0
   -5.4964   -5.6996    0.3166 S   0  0  0  0  0  0  0  0  0  0  0  0
   -7.2674   -5.2529    0.4497 C   0  0  0  0  0  0  0  0  0  0  0  0
   -7.6713   -4.2101   -0.5730 C   0  0  0  0  0  0  0  0  0  0  0  0
   -4.9874   -3.1501    1.3880 C   0  0  0  0  0  0  0  0  0  0  0  0
   -6.0179   -3.3107    2.2471 F   0  0  0  0  0  0  0  0  0  0  0  0
   -4.2813   -1.9664    1.4575 C   0  0  0  0  0  0  0  0  0  0  0  0
   -3.0410    0.7303    0.6283 C   0  0  0  0  0  0  0  0  0  0  0  0
   -2.3281    1.9535    0.6596 C   0  0  0  0  0  0  0  0  0  0  0  0
   -0.9259    1.9539    0.7932 C   0  0  0  0  0  0  0  0  0  0  0  0
   -0.1919    3.2154    0.9331 C   0  0  0  0  0  0  0  0  0  0  0  0
   -0.6260    4.1771    1.8476 C   0  0  0  0  0  0  0  0  0  0  0  0
    0.0473    5.3689    1.9906 C   0  0  0  0  0  0  0  0  0  0  0  0
    1.1859    5.6554    1.2360 C   0  0  0  0  0  0  0  0  0  0  0  0
    1.9607    7.2117    1.5419 S   0  0  0  0  0  0  0  0  0  0  0  0
    2.7923    7.6352   -0.0408 C   0  0  0  0  0  0  0  0  0  0  0  0
    3.0275    9.1324   -0.0795 C   0  0  0  0  0  0  0  0  0  0  0  0
    1.6289    4.6736    0.3554 C   0  0  0  0  0  0  0  0  0  0  0  0
    0.9540    3.4799    0.1925 C   0  0  0  0  0  0  0  0  0  0  0  0
    2.7491    4.8550   -0.3814 F   0  0  0  0  0  0  0  0  0  0  0  0
   -0.3037    0.7171    0.8239 C   0  0  0  0  0  0  0  0  0  0  0  0
    1.4124    0.4259    0.9380 S   0  0  0  0  0  0  0  0  0  0  0  0
   -3.1739    3.0689    0.4609 C   0  0  0  0  0  0  0  0  0  0  0  0
   -4.4958    2.7487    0.3065 C   0  0  0  0  0  0  0  0  0  0  0  0
   -4.7484    1.0074    0.4001 S   0  0  0  0  0  0  0  0  0  0  0  0
   -5.6046    3.5926    0.0494 C   0  0  0  0  0  0  0  0  0  0  0  0
   -7.0324    2.9134   -0.6616 S   0  0  0  0  0  0  0  0  0  0  0  0
   -7.8389    4.4467   -0.7913 C   0  0  0  0  0  0  0  0  0  0  0  0
   -7.0133    5.4583   -0.2662 C   0  0  0  0  0  0  0  0  0  0  0  0
   -5.7619    4.9711    0.2196 C   0  0  0  0  0  0  0  0  0  0  0  0
   -4.8645    5.8652    0.8338 C   0  0  0  0  0  0  0  0  0  0  0  0
   -5.1334    7.2063    0.9132 C   0  0  0  0  0  0  0  0  0  0  0  0
   -4.2874    8.1012    1.5089 O   0  0  0  0  0  0  0  0  0  0  0  0
   -3.0698    7.6353    2.0362 C   0  0  0  0  0  0  0  0  0  0  0  0
   -6.3501    7.7142    0.3505 C   0  0  0  0  0  0  0  0  0  0  0  0
   -6.7440    9.0155    0.3110 O   0  0  0  0  0  0  0  0  0  0  0  0
   -5.9254   10.0668    0.7699 C   0  0  0  0  0  0  0  0  0  0  0  0
   -7.2552    6.8399   -0.2035 C   0  0  0  0  0  0  0  0  0  0  0  0
   -9.1471    4.5279   -1.3246 C   0  0  0  0  0  0  0  0  0  0  0  0
  -10.1550    5.9181   -1.0241 S   0  0  0  0  0  0  0  0  0  0  0  0
  -11.4780    5.2600   -1.8742 C   0  0  0  0  0  0  0  0  0  0  0  0
  -11.1919    4.0160   -2.3911 C   0  0  0  0  0  0  0  0  0  0  0  0
   -9.8625    3.5853   -2.0809 C   0  0  0  0  0  0  0  0  0  0  0  0
   -9.4374    2.3356   -2.5691 C   0  0  0  0  0  0  0  0  0  0  0  0
  -10.2712    1.5315   -3.3027 C   0  0  0  0  0  0  0  0  0  0  0  0
   -9.8967    0.2975   -3.7583 O   0  0  0  0  0  0  0  0  0  0  0  0
   -8.6148   -0.1846   -3.4373 C   0  0  0  0  0  0  0  0  0  0  0  0
  -11.6055    1.9667   -3.6155 C   0  0  0  0  0  0  0  0  0  0  0  0
  -12.5341    1.2638   -4.3209 O   0  0  0  0  0  0  0  0  0  0  0  0
  -12.1834    0.1587   -5.1234 C   0  0  0  0  0  0  0  0  0  0  0  0
  -12.0322    3.1863   -3.1609 C   0  0  0  0  0  0  0  0  0  0  0  0
   13.0688   -5.4608    0.4469 H   0  0  0  0  0  0  0  0  0  0  0  0
   12.4882   -7.4845   -1.3262 H   0  0  0  0  0  0  0  0  0  0  0  0
   12.2781   -9.7296   -2.0283 H   0  0  0  0  0  0  0  0  0  0  0  0
   11.8453  -10.1737   -3.6989 H   0  0  0  0  0  0  0  0  0  0  0  0
   12.6819   -8.6333   -3.3792 H   0  0  0  0  0  0  0  0  0  0  0  0
    6.4696   -7.3889   -2.0403 H   0  0  0  0  0  0  0  0  0  0  0  0
    6.4850   -7.9903   -3.7172 H   0  0  0  0  0  0  0  0  0  0  0  0
    6.9444   -6.3028   -3.3735 H   0  0  0  0  0  0  0  0  0  0  0  0
    7.8529   -5.6722   -1.3217 H   0  0  0  0  0  0  0  0  0  0  0  0
   10.4360   -1.7248    1.3262 H   0  0  0  0  0  0  0  0  0  0  0  0
   11.5667    0.2991    1.0859 H   0  0  0  0  0  0  0  0  0  0  0  0
   11.9395    1.3403    2.4831 H   0  0  0  0  0  0  0  0  0  0  0  0
   11.7669   -0.4198    2.7078 H   0  0  0  0  0  0  0  0  0  0  0  0
    5.8490    1.0822    4.1033 H   0  0  0  0  0  0  0  0  0  0  0  0
    5.6894    1.7727    2.4652 H   0  0  0  0  0  0  0  0  0  0  0  0
    6.4336    2.7317    3.7706 H   0  0  0  0  0  0  0  0  0  0  0  0
    5.7519   -0.5437    2.4428 H   0  0  0  0  0  0  0  0  0  0  0  0
    5.0507   -5.7280    1.0509 H   0  0  0  0  0  0  0  0  0  0  0  0
    5.2204   -7.7799    0.0185 H   0  0  0  0  0  0  0  0  0  0  0  0
    4.8262   -7.9526    1.7495 H   0  0  0  0  0  0  0  0  0  0  0  0
    4.3738   -9.2366    0.5992 H   0  0  0  0  0  0  0  0  0  0  0  0
   -1.0388   -7.3341   -0.4310 H   0  0  0  0  0  0  0  0  0  0  0  0
   -0.5974   -5.7206   -1.0449 H   0  0  0  0  0  0  0  0  0  0  0  0
   -0.9702   -5.9511    0.6867 H   0  0  0  0  0  0  0  0  0  0  0  0
    0.4219   -4.1276    0.3118 H   0  0  0  0  0  0  0  0  0  0  0  0
   -0.5577   -2.6222    1.0263 H   0  0  0  0  0  0  0  0  0  0  0  0
   -1.9892   -2.6090   -0.9330 H   0  0  0  0  0  0  0  0  0  0  0  0
   -3.2852   -4.7008   -1.0503 H   0  0  0  0  0  0  0  0  0  0  0  0
   -7.4744   -4.9275    1.4669 H   0  0  0  0  0  0  0  0  0  0  0  0
   -7.7762   -6.1998    0.2690 H   0  0  0  0  0  0  0  0  0  0  0  0
   -7.4270   -4.5464   -1.5787 H   0  0  0  0  0  0  0  0  0  0  0  0
   -7.1594   -3.2670   -0.3899 H   0  0  0  0  0  0  0  0  0  0  0  0
   -8.7435   -4.0355   -0.5118 H   0  0  0  0  0  0  0  0  0  0  0  0
   -4.5818   -1.2252    2.1814 H   0  0  0  0  0  0  0  0  0  0  0  0
   -1.4901    3.9731    2.4619 H   0  0  0  0  0  0  0  0  0  0  0  0
   -0.2914    6.1090    2.6997 H   0  0  0  0  0  0  0  0  0  0  0  0
    2.1339    7.3185   -0.8482 H   0  0  0  0  0  0  0  0  0  0  0  0
    3.7320    7.0877   -0.0935 H   0  0  0  0  0  0  0  0  0  0  0  0
    2.0836    9.6700   -0.0214 H   0  0  0  0  0  0  0  0  0  0  0  0
    3.6519    9.4419    0.7556 H   0  0  0  0  0  0  0  0  0  0  0  0
    3.5278    9.4010   -1.0073 H   0  0  0  0  0  0  0  0  0  0  0  0
    1.3343    2.7669   -0.5217 H   0  0  0  0  0  0  0  0  0  0  0  0
   -2.7911    4.0652    0.3477 H   0  0  0  0  0  0  0  0  0  0  0  0
   -3.9667    5.4671    1.2708 H   0  0  0  0  0  0  0  0  0  0  0  0
   -3.2298    6.9223    2.8512 H   0  0  0  0  0  0  0  0  0  0  0  0
   -2.4453    7.1730    1.2648 H   0  0  0  0  0  0  0  0  0  0  0  0
   -2.5656    8.5188    2.4251 H   0  0  0  0  0  0  0  0  0  0  0  0
   -5.7403    9.9996    1.8439 H   0  0  0  0  0  0  0  0  0  0  0  0
   -4.9710   10.1006    0.2401 H   0  0  0  0  0  0  0  0  0  0  0  0
   -6.4904   10.9741    0.5556 H   0  0  0  0  0  0  0  0  0  0  0  0
   -8.1593    7.2659   -0.6025 H   0  0  0  0  0  0  0  0  0  0  0  0
  -12.3892    5.8169   -1.9558 H   0  0  0  0  0  0  0  0  0  0  0  0
   -8.4346    2.0094   -2.3622 H   0  0  0  0  0  0  0  0  0  0  0  0
   -7.8277    0.4408   -3.8698 H   0  0  0  0  0  0  0  0  0  0  0  0
   -8.4691   -0.2536   -2.3549 H   0  0  0  0  0  0  0  0  0  0  0  0
   -8.5634   -1.1809   -3.8742 H   0  0  0  0  0  0  0  0  0  0  0  0
  -11.3644    0.3969   -5.8057 H   0  0  0  0  0  0  0  0  0  0  0  0
  -13.0811   -0.0654   -5.7003 H   0  0  0  0  0  0  0  0  0  0  0  0
  -11.9114   -0.7116   -4.5226 H   0  0  0  0  0  0  0  0  0  0  0  0
  -13.0330    3.5069   -3.4008 H   0  0  0  0  0  0  0  0  0  0  0  0
  1  2  1  0  0  0  0
  2  3  1  0  0  0  0
  3  4  2  0  0  0  0
  4  5  1  0  0  0  0
  5  6  1  0  0  0  0
  6  7  2  0  0  0  0
  7  8  1  0  0  0  0
  8  9  1  0  0  0  0
  7 10  1  0  0  0  0
 10 11  1  0  0  0  0
 11 12  1  0  0  0  0
 10 13  2  0  0  0  0
  3 14  1  0  0  0  0
 14 15  1  0  0  0  0
 15 16  1  0  0  0  0
 16 17  2  0  0  0  0
 17 18  1  0  0  0  0
 18 19  1  0  0  0  0
 19 20  2  0  0  0  0
 20 21  1  0  0  0  0
 21 22  1  0  0  0  0
 20 23  1  0  0  0  0
 23 24  1  0  0  0  0
 24 25  1  0  0  0  0
 23 26  2  0  0  0  0
 16 27  1  0  0  0  0
 27 28  1  0  0  0  0
 28 29  1  0  0  0  0
 29 30  2  0  0  0  0
 30 31  1  0  0  0  0
 31 32  1  0  0  0  0
 32 33  2  0  0  0  0
 33 34  1  0  0  0  0
 34 35  1  0  0  0  0
 33 36  1  0  0  0  0
 36 37  1  0  0  0  0
 37 38  1  0  0  0  0
 36 39  2  0  0  0  0
 29 40  1  0  0  0  0
 40 41  2  0  0  0  0
 41 42  1  0  0  0  0
 42 43  2  0  0  0  0
 43 44  1  0  0  0  0
 44 45  2  0  0  0  0
 45 46  1  0  0  0  0
 46 47  2  0  0  0  0
 47 48  1  0  0  0  0
 48 49  1  0  0  0  0
 49 50  1  0  0  0  0
 47 51  1  0  0  0  0
 51 52  1  0  0  0  0
 51 53  2  0  0  0  0
 43 54  1  0  0  0  0
 54 55  2  0  0  0  0
 55 56  1  0  0  0  0
 56 57  1  0  0  0  0
 57 58  2  0  0  0  0
 58 59  1  0  0  0  0
 59 60  2  0  0  0  0
 60 61  1  0  0  0  0
 61 62  1  0  0  0  0
 62 63  1  0  0  0  0
 60 64  1  0  0  0  0
 64 65  2  0  0  0  0
 64 66  1  0  0  0  0
 56 67  2  0  0  0  0
 67 68  1  0  0  0  0
 55 69  1  0  0  0  0
 69 70  2  0  0  0  0
 70 71  1  0  0  0  0
 70 72  1  0  0  0  0
 72 73  1  0  0  0  0
 73 74  1  0  0  0  0
 74 75  2  0  0  0  0
 75 76  1  0  0  0  0
 76 77  1  0  0  0  0
 77 78  2  0  0  0  0
 78 79  1  0  0  0  0
 79 80  1  0  0  0  0
 78 81  1  0  0  0  0
 81 82  1  0  0  0  0
 82 83  1  0  0  0  0
 81 84  2  0  0  0  0
 74 85  1  0  0  0  0
 85 86  1  0  0  0  0
 86 87  1  0  0  0  0
 87 88  2  0  0  0  0
 88 89  1  0  0  0  0
 89 90  1  0  0  0  0
 90 91  2  0  0  0  0
 91 92  1  0  0  0  0
 92 93  1  0  0  0  0
 91 94  1  0  0  0  0
 94 95  1  0  0  0  0
 95 96  1  0  0  0  0
 94 97  2  0  0  0  0
  5  1  2  0  0  0  0
 18 14  2  0  0  0  0
 31 27  2  0  0  0  0
 68 40  1  0  0  0  0
 76 72  2  0  0  0  0
 89 85  2  0  0  0  0
 13  4  1  0  0  0  0
 26 17  1  0  0  0  0
 39 30  1  0  0  0  0
 67 42  1  0  0  0  0
 84 75  1  0  0  0  0
 97 88  1  0  0  0  0
 53 44  1  0  0  0  0
 71 54  1  0  0  0  0
 65 57  1  0  0  0  0
  1 98  1  0  0  0  0
  6 99  1  0  0  0  0
  9100  1  0  0  0  0
  9101  1  0  0  0  0
  9102  1  0  0  0  0
 12103  1  0  0  0  0
 12104  1  0  0  0  0
 12105  1  0  0  0  0
 13106  1  0  0  0  0
 19107  1  0  0  0  0
 22108  1  0  0  0  0
 22109  1  0  0  0  0
 22110  1  0  0  0  0
 25111  1  0  0  0  0
 25112  1  0  0  0  0
 25113  1  0  0  0  0
 26114  1  0  0  0  0
 32115  1  0  0  0  0
 35116  1  0  0  0  0
 35117  1  0  0  0  0
 35118  1  0  0  0  0
 38119  1  0  0  0  0
 38120  1  0  0  0  0
 38121  1  0  0  0  0
 39122  1  0  0  0  0
 41123  1  0  0  0  0
 45124  1  0  0  0  0
 46125  1  0  0  0  0
 49126  1  0  0  0  0
 49127  1  0  0  0  0
 50128  1  0  0  0  0
 50129  1  0  0  0  0
 50130  1  0  0  0  0
 53131  1  0  0  0  0
 58132  1  0  0  0  0
 59133  1  0  0  0  0
 62134  1  0  0  0  0
 62135  1  0  0  0  0
 63136  1  0  0  0  0
 63137  1  0  0  0  0
 63138  1  0  0  0  0
 65139  1  0  0  0  0
 69140  1  0  0  0  0
 77141  1  0  0  0  0
 80142  1  0  0  0  0
 80143  1  0  0  0  0
 80144  1  0  0  0  0
 83145  1  0  0  0  0
 83146  1  0  0  0  0
 83147  1  0  0  0  0
 84148  1  0  0  0  0
 87149  1  0  0  0  0
 90150  1  0  0  0  0
 93151  1  0  0  0  0
 93152  1  0  0  0  0
 93153  1  0  0  0  0
 96154  1  0  0  0  0
 96155  1  0  0  0  0
 96156  1  0  0  0  0
 97157  1  0  0  0  0
M  END
