
  xtb     03012216443D
 energy: -412.732501149830 gnorm: 0.000189861737 xtb: 6.4.1 (unknown)
212235  0     0  0            999 V2000
    2.2932   -5.8043   13.1787 C   0  0  0  0  0  0  0  0  0  0  0  0
    1.7532   -6.5668   11.7518 S   0  0  0  0  0  0  0  0  0  0  0  0
    0.4917   -5.3908   11.5093 C   0  0  0  0  0  0  0  0  0  0  0  0
    0.5096   -4.4428   12.5330 C   0  0  0  0  0  0  0  0  0  0  0  0
    1.5528   -4.6866   13.4849 C   0  0  0  0  0  0  0  0  0  0  0  0
    1.7316   -3.8120   14.5862 C   0  0  0  0  0  0  0  0  0  0  0  0
    0.9049   -2.7396   14.7400 C   0  0  0  0  0  0  0  0  0  0  0  0
    0.9703   -1.8243   15.7379 O   0  0  0  0  0  0  0  0  0  0  0  0
    1.9812   -1.9659   16.7041 C   0  0  0  0  0  0  0  0  0  0  0  0
   -0.1569   -2.4992   13.7898 C   0  0  0  0  0  0  0  0  0  0  0  0
   -0.9108   -1.4101   14.0652 O   0  0  0  0  0  0  0  0  0  0  0  0
   -1.9759   -1.0976   13.1996 C   0  0  0  0  0  0  0  0  0  0  0  0
   -0.3395   -3.3311   12.7215 C   0  0  0  0  0  0  0  0  0  0  0  0
   -0.3327   -5.5068   10.3588 C   0  0  0  0  0  0  0  0  0  0  0  0
   -0.2307   -6.4565    9.3771 C   0  0  0  0  0  0  0  0  0  0  0  0
   -1.1581   -6.3009    8.3228 C   0  0  0  0  0  0  0  0  0  0  0  0
   -1.2419   -7.0314    7.1237 C   0  0  0  0  0  0  0  0  0  0  0  0
   -0.3767   -8.1705    6.8636 C   0  0  0  0  0  0  0  0  0  0  0  0
   -0.3069   -9.5111    7.9711 S   0  0  0  0  0  0  0  0  0  0  0  0
    0.8078  -10.3818    6.9745 C   0  0  0  0  0  0  0  0  0  0  0  0
    1.2788  -11.7452    7.3430 C   0  0  0  0  0  0  0  0  0  0  0  0
    0.3417  -12.8166    6.7803 C   0  0  0  0  0  0  0  0  0  0  0  0
    1.0950   -9.6654    5.8519 C   0  0  0  0  0  0  0  0  0  0  0  0
    2.1583  -10.2069    4.6191 Cl  0  0  0  0  0  0  0  0  0  0  0  0
    0.4340   -8.4095    5.7883 C   0  0  0  0  0  0  0  0  0  0  0  0
    0.7271   -7.2939    4.5202 Cl  0  0  0  0  0  0  0  0  0  0  0  0
   -2.1737   -6.6003    6.1885 C   0  0  0  0  0  0  0  0  0  0  0  0
   -3.0291   -5.4898    6.3970 C   0  0  0  0  0  0  0  0  0  0  0  0
   -2.9558   -4.7672    7.6021 C   0  0  0  0  0  0  0  0  0  0  0  0
   -3.7789   -3.5932    7.8386 C   0  0  0  0  0  0  0  0  0  0  0  0
   -3.8476   -2.3004    6.6748 S   0  0  0  0  0  0  0  0  0  0  0  0
   -4.8965   -1.3487    7.6692 C   0  0  0  0  0  0  0  0  0  0  0  0
   -5.4225   -0.0396    7.1940 C   0  0  0  0  0  0  0  0  0  0  0  0
   -6.5427   -0.2397    6.1704 C   0  0  0  0  0  0  0  0  0  0  0  0
   -5.1720   -2.0088    8.8285 C   0  0  0  0  0  0  0  0  0  0  0  0
   -4.5377   -3.2767    8.9314 C   0  0  0  0  0  0  0  0  0  0  0  0
   -4.7985   -4.3180   10.2673 Cl  0  0  0  0  0  0  0  0  0  0  0  0
   -6.1796   -1.3864   10.0712 Cl  0  0  0  0  0  0  0  0  0  0  0  0
   -2.0123   -5.1891    8.5281 C   0  0  0  0  0  0  0  0  0  0  0  0
   -1.6298   -4.3772   10.0165 S   0  0  0  0  0  0  0  0  0  0  0  0
   -3.8509   -5.2374    5.2724 C   0  0  0  0  0  0  0  0  0  0  0  0
   -3.6199   -6.0858    4.2299 C   0  0  0  0  0  0  0  0  0  0  0  0
   -2.4333   -7.3115    4.6230 S   0  0  0  0  0  0  0  0  0  0  0  0
   -4.0597   -5.9462    2.8819 C   0  0  0  0  0  0  0  0  0  0  0  0
   -3.4805   -6.5202    1.7894 C   0  0  0  0  0  0  0  0  0  0  0  0
   -3.9204   -5.9713    0.5618 C   0  0  0  0  0  0  0  0  0  0  0  0
   -3.3417   -6.1674   -0.7056 C   0  0  0  0  0  0  0  0  0  0  0  0
   -2.2687   -7.1375   -0.8641 C   0  0  0  0  0  0  0  0  0  0  0  0
   -2.5014   -8.7985   -0.4018 S   0  0  0  0  0  0  0  0  0  0  0  0
   -0.8598   -9.2127   -0.7582 C   0  0  0  0  0  0  0  0  0  0  0  0
   -0.3286  -10.5730   -0.4700 C   0  0  0  0  0  0  0  0  0  0  0  0
    0.0981  -10.6802    0.9969 C   0  0  0  0  0  0  0  0  0  0  0  0
   -0.1861   -8.1193   -1.2130 C   0  0  0  0  0  0  0  0  0  0  0  0
    1.4696   -8.1348   -1.6628 Cl  0  0  0  0  0  0  0  0  0  0  0  0
   -0.9798   -6.9416   -1.2756 C   0  0  0  0  0  0  0  0  0  0  0  0
   -0.3199   -5.4241   -1.7211 Cl  0  0  0  0  0  0  0  0  0  0  0  0
   -3.7609   -5.3222   -1.7216 C   0  0  0  0  0  0  0  0  0  0  0  0
   -4.7643   -4.3363   -1.5346 C   0  0  0  0  0  0  0  0  0  0  0  0
   -5.3752   -4.1713   -0.2784 C   0  0  0  0  0  0  0  0  0  0  0  0
   -6.3571   -3.1280   -0.0364 C   0  0  0  0  0  0  0  0  0  0  0  0
   -6.0579   -1.4743   -0.4899 S   0  0  0  0  0  0  0  0  0  0  0  0
   -7.5726   -0.9371    0.1517 C   0  0  0  0  0  0  0  0  0  0  0  0
   -7.9905    0.4858    0.0238 C   0  0  0  0  0  0  0  0  0  0  0  0
   -8.2866    0.8411   -1.4344 C   0  0  0  0  0  0  0  0  0  0  0  0
   -8.2577   -1.9879    0.6834 C   0  0  0  0  0  0  0  0  0  0  0  0
   -7.5693   -3.2279    0.5882 C   0  0  0  0  0  0  0  0  0  0  0  0
   -8.2528   -4.7016    1.1333 Cl  0  0  0  0  0  0  0  0  0  0  0  0
   -9.8069   -1.8558    1.4104 Cl  0  0  0  0  0  0  0  0  0  0  0  0
   -4.9110   -4.9780    0.7529 C   0  0  0  0  0  0  0  0  0  0  0  0
   -5.2762   -4.7655    2.4434 S   0  0  0  0  0  0  0  0  0  0  0  0
   -4.9139   -3.5182   -2.6778 C   0  0  0  0  0  0  0  0  0  0  0  0
   -4.0227   -3.8017   -3.6723 C   0  0  0  0  0  0  0  0  0  0  0  0
   -3.0679   -5.2258   -3.3166 S   0  0  0  0  0  0  0  0  0  0  0  0
   -3.6260   -2.8986   -4.7015 C   0  0  0  0  0  0  0  0  0  0  0  0
   -2.4205   -2.8709   -5.3394 C   0  0  0  0  0  0  0  0  0  0  0  0
   -2.1172   -1.6150   -5.9183 C   0  0  0  0  0  0  0  0  0  0  0  0
   -0.8975   -1.2147   -6.4952 C   0  0  0  0  0  0  0  0  0  0  0  0
    0.1297   -2.1911   -6.8018 C   0  0  0  0  0  0  0  0  0  0  0  0
    1.7869   -1.9653   -6.3278 S   0  0  0  0  0  0  0  0  0  0  0  0
    2.2703   -3.4783   -7.0137 C   0  0  0  0  0  0  0  0  0  0  0  0
    3.6939   -3.9116   -6.9840 C   0  0  0  0  0  0  0  0  0  0  0  0
    4.5147   -3.1626   -8.0361 C   0  0  0  0  0  0  0  0  0  0  0  0
    1.2027   -4.1036   -7.5866 C   0  0  0  0  0  0  0  0  0  0  0  0
    1.2928   -5.6208   -8.3840 Cl  0  0  0  0  0  0  0  0  0  0  0  0
   -0.0138   -3.3823   -7.4615 C   0  0  0  0  0  0  0  0  0  0  0  0
   -1.4848   -3.9320   -8.1531 Cl  0  0  0  0  0  0  0  0  0  0  0  0
   -0.7187    0.1480   -6.6903 C   0  0  0  0  0  0  0  0  0  0  0  0
   -1.7357    1.0982   -6.4335 C   0  0  0  0  0  0  0  0  0  0  0  0
   -3.0002    0.6832   -5.9745 C   0  0  0  0  0  0  0  0  0  0  0  0
   -4.0588    1.6583   -5.7658 C   0  0  0  0  0  0  0  0  0  0  0  0
   -4.5282    2.7155   -7.0695 S   0  0  0  0  0  0  0  0  0  0  0  0
   -5.7295    3.5064   -6.1065 C   0  0  0  0  0  0  0  0  0  0  0  0
   -6.6061    4.5668   -6.6765 C   0  0  0  0  0  0  0  0  0  0  0  0
   -7.8545    3.9563   -7.3183 C   0  0  0  0  0  0  0  0  0  0  0  0
   -5.7560    2.9682   -4.8556 C   0  0  0  0  0  0  0  0  0  0  0  0
   -4.8067    1.9284   -4.6538 C   0  0  0  0  0  0  0  0  0  0  0  0
   -4.5863    1.1883   -3.1218 Cl  0  0  0  0  0  0  0  0  0  0  0  0
   -6.8144    3.4980   -3.6155 Cl  0  0  0  0  0  0  0  0  0  0  0  0
   -3.1485   -0.6676   -5.6960 C   0  0  0  0  0  0  0  0  0  0  0  0
   -4.5198   -1.4050   -4.9188 S   0  0  0  0  0  0  0  0  0  0  0  0
   -1.2699    2.4266   -6.5609 C   0  0  0  0  0  0  0  0  0  0  0  0
    0.0502    2.5151   -6.9067 C   0  0  0  0  0  0  0  0  0  0  0  0
    0.7613    0.9300   -7.1672 S   0  0  0  0  0  0  0  0  0  0  0  0
    0.8800    3.6691   -6.9159 C   0  0  0  0  0  0  0  0  0  0  0  0
    2.5711    3.4863   -6.5876 S   0  0  0  0  0  0  0  0  0  0  0  0
    2.8054    5.1918   -6.4266 C   0  0  0  0  0  0  0  0  0  0  0  0
    1.6273    5.8876   -6.7064 C   0  0  0  0  0  0  0  0  0  0  0  0
    0.5282    5.0198   -6.9842 C   0  0  0  0  0  0  0  0  0  0  0  0
   -0.7298    5.5740   -7.3067 C   0  0  0  0  0  0  0  0  0  0  0  0
   -0.8981    6.9305   -7.3177 C   0  0  0  0  0  0  0  0  0  0  0  0
   -2.0604    7.5716   -7.5900 O   0  0  0  0  0  0  0  0  0  0  0  0
   -3.2075    6.7970   -7.8392 C   0  0  0  0  0  0  0  0  0  0  0  0
    0.2159    7.8057   -7.0520 C   0  0  0  0  0  0  0  0  0  0  0  0
   -0.0789    9.1257   -7.1276 O   0  0  0  0  0  0  0  0  0  0  0  0
    0.9624   10.0539   -6.9445 C   0  0  0  0  0  0  0  0  0  0  0  0
    1.4489    7.2871   -6.7724 C   0  0  0  0  0  0  0  0  0  0  0  0
    4.0457    5.7004   -5.9487 C   0  0  0  0  0  0  0  0  0  0  0  0
    4.2477    6.8189   -5.1912 C   0  0  0  0  0  0  0  0  0  0  0  0
    5.6000    7.0259   -4.8297 C   0  0  0  0  0  0  0  0  0  0  0  0
    6.1418    8.0838   -4.0801 C   0  0  0  0  0  0  0  0  0  0  0  0
    5.2966    9.1459   -3.5619 C   0  0  0  0  0  0  0  0  0  0  0  0
    4.1881   10.0088   -4.5926 S   0  0  0  0  0  0  0  0  0  0  0  0
    3.6345   11.0164   -3.2991 C   0  0  0  0  0  0  0  0  0  0  0  0
    2.5587   12.0269   -3.4999 C   0  0  0  0  0  0  0  0  0  0  0  0
    1.2011   11.4822   -3.0477 C   0  0  0  0  0  0  0  0  0  0  0  0
    4.2731   10.6861   -2.1420 C   0  0  0  0  0  0  0  0  0  0  0  0
    3.9846   11.4642   -0.6408 Cl  0  0  0  0  0  0  0  0  0  0  0  0
    5.2137    9.6302   -2.2855 C   0  0  0  0  0  0  0  0  0  0  0  0
    6.0679    8.9857   -0.9477 Cl  0  0  0  0  0  0  0  0  0  0  0  0
    7.5178    8.0684   -3.8745 C   0  0  0  0  0  0  0  0  0  0  0  0
    8.3552    7.0304   -4.3490 C   0  0  0  0  0  0  0  0  0  0  0  0
    7.8054    5.9520   -5.0606 C   0  0  0  0  0  0  0  0  0  0  0  0
    8.6236    4.8464   -5.5350 C   0  0  0  0  0  0  0  0  0  0  0  0
   10.0118    5.1041   -6.5499 S   0  0  0  0  0  0  0  0  0  0  0  0
   10.3389    3.4091   -6.6705 C   0  0  0  0  0  0  0  0  0  0  0  0
   11.5216    2.8980   -7.4165 C   0  0  0  0  0  0  0  0  0  0  0  0
   12.7523    2.8318   -6.5086 C   0  0  0  0  0  0  0  0  0  0  0  0
    9.4246    2.6999   -5.9511 C   0  0  0  0  0  0  0  0  0  0  0  0
    8.4470    3.5091   -5.3117 C   0  0  0  0  0  0  0  0  0  0  0  0
    7.2310    2.8503   -4.2994 Cl  0  0  0  0  0  0  0  0  0  0  0  0
    9.4302    0.9894   -5.8220 Cl  0  0  0  0  0  0  0  0  0  0  0  0
    6.4385    5.9862   -5.3012 C   0  0  0  0  0  0  0  0  0  0  0  0
    5.5367    4.8196   -6.2252 S   0  0  0  0  0  0  0  0  0  0  0  0
    9.7192    7.2568   -4.0027 C   0  0  0  0  0  0  0  0  0  0  0  0
    9.9056    8.4156   -3.3388 C   0  0  0  0  0  0  0  0  0  0  0  0
    8.4459    9.3013   -3.0697 S   0  0  0  0  0  0  0  0  0  0  0  0
    3.1250   -6.2129   13.7169 H   0  0  0  0  0  0  0  0  0  0  0  0
    2.5299   -4.0223   15.2789 H   0  0  0  0  0  0  0  0  0  0  0  0
    1.8812   -2.9067   17.2553 H   0  0  0  0  0  0  0  0  0  0  0  0
    1.8526   -1.1301   17.3897 H   0  0  0  0  0  0  0  0  0  0  0  0
    2.9775   -1.9154   16.2523 H   0  0  0  0  0  0  0  0  0  0  0  0
   -1.6212   -0.8882   12.1853 H   0  0  0  0  0  0  0  0  0  0  0  0
   -2.7143   -1.9046   13.1628 H   0  0  0  0  0  0  0  0  0  0  0  0
   -2.4374   -0.2029   13.6139 H   0  0  0  0  0  0  0  0  0  0  0  0
   -1.1310   -3.1489   12.0169 H   0  0  0  0  0  0  0  0  0  0  0  0
    0.5113   -7.2339    9.4051 H   0  0  0  0  0  0  0  0  0  0  0  0
    2.2825  -11.8908    6.9385 H   0  0  0  0  0  0  0  0  0  0  0  0
    1.3221  -11.8319    8.4297 H   0  0  0  0  0  0  0  0  0  0  0  0
   -0.6622  -12.6858    7.1770 H   0  0  0  0  0  0  0  0  0  0  0  0
    0.6993  -13.8058    7.0527 H   0  0  0  0  0  0  0  0  0  0  0  0
    0.2990  -12.7467    5.6964 H   0  0  0  0  0  0  0  0  0  0  0  0
   -4.6136    0.5332    6.7360 H   0  0  0  0  0  0  0  0  0  0  0  0
   -5.8020    0.5162    8.0530 H   0  0  0  0  0  0  0  0  0  0  0  0
   -7.3632   -0.7986    6.6132 H   0  0  0  0  0  0  0  0  0  0  0  0
   -6.9184    0.7231    5.8350 H   0  0  0  0  0  0  0  0  0  0  0  0
   -6.1726   -0.7898    5.3083 H   0  0  0  0  0  0  0  0  0  0  0  0
   -4.5574   -4.4301    5.2094 H   0  0  0  0  0  0  0  0  0  0  0  0
   -2.7016   -7.2561    1.8726 H   0  0  0  0  0  0  0  0  0  0  0  0
   -1.0973  -11.3183   -0.6809 H   0  0  0  0  0  0  0  0  0  0  0  0
    0.5303  -10.7606   -1.1167 H   0  0  0  0  0  0  0  0  0  0  0  0
    0.4912  -11.6726    1.2007 H   0  0  0  0  0  0  0  0  0  0  0  0
   -0.7507  -10.4991    1.6525 H   0  0  0  0  0  0  0  0  0  0  0  0
    0.8700   -9.9480    1.2203 H   0  0  0  0  0  0  0  0  0  0  0  0
   -8.8811    0.6427    0.6344 H   0  0  0  0  0  0  0  0  0  0  0  0
   -7.1940    1.1345    0.3956 H   0  0  0  0  0  0  0  0  0  0  0  0
   -9.0818    0.2106   -1.8247 H   0  0  0  0  0  0  0  0  0  0  0  0
   -8.5968    1.8798   -1.5100 H   0  0  0  0  0  0  0  0  0  0  0  0
   -7.3979    0.6979   -2.0443 H   0  0  0  0  0  0  0  0  0  0  0  0
   -5.5916   -2.6869   -2.7384 H   0  0  0  0  0  0  0  0  0  0  0  0
   -1.7257   -3.6902   -5.2953 H   0  0  0  0  0  0  0  0  0  0  0  0
    3.7367   -4.9849   -7.1764 H   0  0  0  0  0  0  0  0  0  0  0  0
    4.1119   -3.7167   -5.9945 H   0  0  0  0  0  0  0  0  0  0  0  0
    4.4772   -2.0918   -7.8500 H   0  0  0  0  0  0  0  0  0  0  0  0
    5.5510   -3.4877   -8.0017 H   0  0  0  0  0  0  0  0  0  0  0  0
    4.1209   -3.3570   -9.0306 H   0  0  0  0  0  0  0  0  0  0  0  0
   -6.9038    5.2448   -5.8741 H   0  0  0  0  0  0  0  0  0  0  0  0
   -6.0509    5.1324   -7.4271 H   0  0  0  0  0  0  0  0  0  0  0  0
   -7.5730    3.2799   -8.1216 H   0  0  0  0  0  0  0  0  0  0  0  0
   -8.4241    3.3998   -6.5786 H   0  0  0  0  0  0  0  0  0  0  0  0
   -8.4855    4.7408   -7.7268 H   0  0  0  0  0  0  0  0  0  0  0  0
   -1.8676    3.2766   -6.2939 H   0  0  0  0  0  0  0  0  0  0  0  0
   -1.5360    4.9138   -7.5741 H   0  0  0  0  0  0  0  0  0  0  0  0
   -4.0145    7.5114   -7.9933 H   0  0  0  0  0  0  0  0  0  0  0  0
   -3.0918    6.1801   -8.7363 H   0  0  0  0  0  0  0  0  0  0  0  0
   -3.4489    6.1523   -6.9870 H   0  0  0  0  0  0  0  0  0  0  0  0
    1.7336    9.9496   -7.7142 H   0  0  0  0  0  0  0  0  0  0  0  0
    0.4977   11.0348   -7.0271 H   0  0  0  0  0  0  0  0  0  0  0  0
    1.4292    9.9525   -5.9592 H   0  0  0  0  0  0  0  0  0  0  0  0
    2.3026    7.9265   -6.6284 H   0  0  0  0  0  0  0  0  0  0  0  0
    3.4443    7.4410   -4.8469 H   0  0  0  0  0  0  0  0  0  0  0  0
    2.7999   12.9172   -2.9153 H   0  0  0  0  0  0  0  0  0  0  0  0
    2.5140   12.3023   -4.5548 H   0  0  0  0  0  0  0  0  0  0  0  0
    0.9394   10.5880   -3.6083 H   0  0  0  0  0  0  0  0  0  0  0  0
    1.2312   11.2304   -1.9910 H   0  0  0  0  0  0  0  0  0  0  0  0
    0.4285   12.2295   -3.2059 H   0  0  0  0  0  0  0  0  0  0  0  0
   11.7282    3.5540   -8.2635 H   0  0  0  0  0  0  0  0  0  0  0  0
   11.2929    1.8991   -7.7929 H   0  0  0  0  0  0  0  0  0  0  0  0
   12.5623    2.1731   -5.6650 H   0  0  0  0  0  0  0  0  0  0  0  0
   12.9959    3.8216   -6.1297 H   0  0  0  0  0  0  0  0  0  0  0  0
   13.6054    2.4507   -7.0631 H   0  0  0  0  0  0  0  0  0  0  0  0
   10.5138    6.5771   -4.2488 H   0  0  0  0  0  0  0  0  0  0  0  0
   10.8262    8.8235   -2.9698 H   0  0  0  0  0  0  0  0  0  0  0  0
  1  2  1  0  0  0  0
  2  3  1  0  0  0  0
  3  4  2  0  0  0  0
  4  5  1  0  0  0  0
  5  6  1  0  0  0  0
  6  7  2  0  0  0  0
  7  8  1  0  0  0  0
  8  9  1  0  0  0  0
  7 10  1  0  0  0  0
 10 11  1  0  0  0  0
 11 12  1  0  0  0  0
 10 13  2  0  0  0  0
  3 14  1  0  0  0  0
 14 15  2  0  0  0  0
 15 16  1  0  0  0  0
 16 17  2  0  0  0  0
 17 18  1  0  0  0  0
 18 19  1  0  0  0  0
 19 20  1  0  0  0  0
 20 21  1  0  0  0  0
 21 22  1  0  0  0  0
 20 23  2  0  0  0  0
 23 24  1  0  0  0  0
 23 25  1  0  0  0  0
 25 26  1  0  0  0  0
 17 27  1  0  0  0  0
 27 28  2  0  0  0  0
 28 29  1  0  0  0  0
 29 30  1  0  0  0  0
 30 31  1  0  0  0  0
 31 32  1  0  0  0  0
 32 33  1  0  0  0  0
 33 34  1  0  0  0  0
 32 35  2  0  0  0  0
 35 36  1  0  0  0  0
 36 37  1  0  0  0  0
 35 38  1  0  0  0  0
 29 39  2  0  0  0  0
 39 40  1  0  0  0  0
 28 41  1  0  0  0  0
 41 42  2  0  0  0  0
 42 43  1  0  0  0  0
 42 44  1  0  0  0  0
 44 45  2  0  0  0  0
 45 46  1  0  0  0  0
 46 47  2  0  0  0  0
 47 48  1  0  0  0  0
 48 49  1  0  0  0  0
 49 50  1  0  0  0  0
 50 51  1  0  0  0  0
 51 52  1  0  0  0  0
 50 53  2  0  0  0  0
 53 54  1  0  0  0  0
 53 55  1  0  0  0  0
 55 56  1  0  0  0  0
 47 57  1  0  0  0  0
 57 58  2  0  0  0  0
 58 59  1  0  0  0  0
 59 60  1  0  0  0  0
 60 61  1  0  0  0  0
 61 62  1  0  0  0  0
 62 63  1  0  0  0  0
 63 64  1  0  0  0  0
 62 65  2  0  0  0  0
 65 66  1  0  0  0  0
 66 67  1  0  0  0  0
 65 68  1  0  0  0  0
 59 69  2  0  0  0  0
 69 70  1  0  0  0  0
 58 71  1  0  0  0  0
 71 72  2  0  0  0  0
 72 73  1  0  0  0  0
 72 74  1  0  0  0  0
 74 75  2  0  0  0  0
 75 76  1  0  0  0  0
 76 77  2  0  0  0  0
 77 78  1  0  0  0  0
 78 79  1  0  0  0  0
 79 80  1  0  0  0  0
 80 81  1  0  0  0  0
 81 82  1  0  0  0  0
 80 83  2  0  0  0  0
 83 84  1  0  0  0  0
 83 85  1  0  0  0  0
 85 86  1  0  0  0  0
 77 87  1  0  0  0  0
 87 88  2  0  0  0  0
 88 89  1  0  0  0  0
 89 90  1  0  0  0  0
 90 91  1  0  0  0  0
 91 92  1  0  0  0  0
 92 93  1  0  0  0  0
 93 94  1  0  0  0  0
 92 95  2  0  0  0  0
 95 96  1  0  0  0  0
 96 97  1  0  0  0  0
 95 98  1  0  0  0  0
 89 99  2  0  0  0  0
 99100  1  0  0  0  0
 88101  1  0  0  0  0
101102  2  0  0  0  0
102103  1  0  0  0  0
102104  1  0  0  0  0
104105  1  0  0  0  0
105106  1  0  0  0  0
106107  2  0  0  0  0
107108  1  0  0  0  0
108109  1  0  0  0  0
109110  2  0  0  0  0
110111  1  0  0  0  0
111112  1  0  0  0  0
110113  1  0  0  0  0
113114  1  0  0  0  0
114115  1  0  0  0  0
113116  2  0  0  0  0
106117  1  0  0  0  0
117118  2  0  0  0  0
118119  1  0  0  0  0
119120  2  0  0  0  0
120121  1  0  0  0  0
121122  1  0  0  0  0
122123  1  0  0  0  0
123124  1  0  0  0  0
124125  1  0  0  0  0
123126  2  0  0  0  0
126127  1  0  0  0  0
126128  1  0  0  0  0
128129  1  0  0  0  0
120130  1  0  0  0  0
130131  2  0  0  0  0
131132  1  0  0  0  0
132133  1  0  0  0  0
133134  1  0  0  0  0
134135  1  0  0  0  0
135136  1  0  0  0  0
136137  1  0  0  0  0
135138  2  0  0  0  0
138139  1  0  0  0  0
139140  1  0  0  0  0
138141  1  0  0  0  0
132142  2  0  0  0  0
142143  1  0  0  0  0
131144  1  0  0  0  0
144145  2  0  0  0  0
145146  1  0  0  0  0
  5  1  2  0  0  0  0
 40 14  1  0  0  0  0
 70 44  1  0  0  0  0
100 74  1  0  0  0  0
108104  2  0  0  0  0
143117  1  0  0  0  0
 13  4  1  0  0  0  0
 39 16  1  0  0  0  0
 69 46  1  0  0  0  0
 99 76  1  0  0  0  0
116107  1  0  0  0  0
142119  1  0  0  0  0
 25 18  2  0  0  0  0
 43 27  1  0  0  0  0
 55 48  2  0  0  0  0
 73 57  1  0  0  0  0
 85 78  2  0  0  0  0
103 87  1  0  0  0  0
128121  2  0  0  0  0
146130  1  0  0  0  0
 36 30  2  0  0  0  0
 66 60  2  0  0  0  0
 96 90  2  0  0  0  0
139133  2  0  0  0  0
  1147  1  0  0  0  0
  6148  1  0  0  0  0
  9149  1  0  0  0  0
  9150  1  0  0  0  0
  9151  1  0  0  0  0
 12152  1  0  0  0  0
 12153  1  0  0  0  0
 12154  1  0  0  0  0
 13155  1  0  0  0  0
 15156  1  0  0  0  0
 21157  1  0  0  0  0
 21158  1  0  0  0  0
 22159  1  0  0  0  0
 22160  1  0  0  0  0
 22161  1  0  0  0  0
 33162  1  0  0  0  0
 33163  1  0  0  0  0
 34164  1  0  0  0  0
 34165  1  0  0  0  0
 34166  1  0  0  0  0
 41167  1  0  0  0  0
 45168  1  0  0  0  0
 51169  1  0  0  0  0
 51170  1  0  0  0  0
 52171  1  0  0  0  0
 52172  1  0  0  0  0
 52173  1  0  0  0  0
 63174  1  0  0  0  0
 63175  1  0  0  0  0
 64176  1  0  0  0  0
 64177  1  0  0  0  0
 64178  1  0  0  0  0
 71179  1  0  0  0  0
 75180  1  0  0  0  0
 81181  1  0  0  0  0
 81182  1  0  0  0  0
 82183  1  0  0  0  0
 82184  1  0  0  0  0
 82185  1  0  0  0  0
 93186  1  0  0  0  0
 93187  1  0  0  0  0
 94188  1  0  0  0  0
 94189  1  0  0  0  0
 94190  1  0  0  0  0
101191  1  0  0  0  0
109192  1  0  0  0  0
112193  1  0  0  0  0
112194  1  0  0  0  0
112195  1  0  0  0  0
115196  1  0  0  0  0
115197  1  0  0  0  0
115198  1  0  0  0  0
116199  1  0  0  0  0
118200  1  0  0  0  0
124201  1  0  0  0  0
124202  1  0  0  0  0
125203  1  0  0  0  0
125204  1  0  0  0  0
125205  1  0  0  0  0
136206  1  0  0  0  0
136207  1  0  0  0  0
137208  1  0  0  0  0
137209  1  0  0  0  0
137210  1  0  0  0  0
144211  1  0  0  0  0
145212  1  0  0  0  0
M  END
