186

C         10.97270       -6.28970       -5.30380
C          9.91450       -6.64150       -6.06200
C          8.76010       -5.84200       -5.81220
C          7.49560       -5.93070       -6.41740
C          7.15830       -6.97620       -7.39120
C          6.56880       -6.65020       -8.60890
C          6.18670       -7.63040       -9.50330
C          6.36620       -8.97570       -9.20390
S          5.89880      -10.31500      -10.25150
C          4.63060       -9.58430      -11.34460
C          3.37980       -9.17900      -10.58770
C          6.98220       -9.28770       -7.99110
F          7.18890      -10.58190       -7.67380
C          7.37650       -8.31970       -7.09450
C          6.55480       -4.99160       -6.02890
C          6.80940       -4.01220       -5.04030
C          8.06150       -3.94270       -4.40760
C          8.28050       -2.93840       -3.35840
C          7.39340       -2.84160       -2.28890
C          7.51040       -1.84090       -1.34400
C          8.52000       -0.88960       -1.44160
S          8.72960        0.48630       -0.36420
C          7.41840        0.26370        0.89850
C          7.47450        1.43250        1.86420
C          9.42800       -1.02470       -2.49460
C          9.32830       -2.02430       -3.43640
F         10.42920       -0.12800       -2.60870
C          9.01850       -4.84960       -4.83410
S         10.65300       -4.96500       -4.23570
C          5.69450       -3.17610       -4.82560
C          4.59220       -3.49470       -5.57430
S          4.91190       -4.87020       -6.62010
C          3.35590       -2.81290       -5.49070
S          3.26130       -1.53150       -4.32240
C          1.59160       -1.18070       -4.66900
C          1.13830       -2.03670       -5.69160
C          2.13310       -2.95270       -6.14950
C          1.82360       -3.87810       -7.16710
C          0.57200       -3.90260       -7.71580
O          0.16040       -4.74930       -8.69120
C          1.08210       -5.68970       -9.18530
C         -0.42890       -2.97490       -7.26520
O         -1.62760       -3.09560       -7.89080
C         -2.68280       -2.26850       -7.47080
C         -0.13960       -2.06570       -6.28380
C          0.90900       -0.24300       -3.87370
S         -0.83670       -0.17990       -3.83110
C         -0.87210        0.89590       -2.46270
C          0.43740        1.27110       -2.11780
C          1.43600        0.64510       -2.91350
C          2.78860        0.96650       -2.68090
C          3.14450        1.82650       -1.67650
O          4.41850        2.16330       -1.35520
C          5.46970        1.60840       -2.10990
C          2.13260        2.47090       -0.89050
O          2.59400        3.34510        0.03920
C          1.65000        4.07640        0.78610
C          0.81340        2.20550       -1.13230
C         -2.06180        1.19170       -1.77050
S         -1.98060        1.51320       -0.06390
C         -3.70140        1.70440        0.09340
C         -4.31640        1.57260       -1.15730
C         -3.39840        1.23730       -2.19760
C         -3.86950        1.07380       -3.51590
C         -5.19160        1.27540       -3.80320
O         -5.75710        1.15260       -5.03050
C         -4.93120        0.79550       -6.10990
C         -6.10070        1.69330       -2.77060
O         -7.36440        1.93480       -3.20350
C         -8.29820        2.44910       -2.28830
C         -5.66420        1.83670       -1.48220
C         -4.16590        2.00420        1.39440
S         -3.03450        2.78460        2.45660
C         -4.13510        2.78340        3.79650
C         -5.35130        2.19940        3.42720
C         -5.35500        1.72440        2.07830
C         -6.44180        0.95090        1.61600
C         -7.52640        0.73890        2.42000
O         -8.61730        0.00000        2.09180
C         -8.61610       -0.68260        0.86430
C         -7.56840        1.30380        3.74300
O         -8.71630        1.06110        4.41960
C         -8.85420        1.58780        5.71700
C         -6.49110        1.98850        4.23280
C         -3.64030        3.26940        5.03510
C         -4.27640        3.65750        6.18070
C         -3.39940        4.07650        7.21330
C         -3.72580        4.52440        8.50420
C         -5.12490        4.61220        8.93900
C         -5.54690        3.99660       10.11330
C         -6.87180        4.02890       10.50340
C         -7.82450        4.68840        9.73560
S         -9.54940        4.77060       10.08940
C         -9.67040        4.27240       11.84130
C         -9.08770        5.31280       12.77850
C         -7.38550        5.31030        8.56560
F         -8.28240        5.95610        7.79020
C         -6.06950        5.28340        8.16400
C         -2.66510        4.84840        9.33940
C         -1.30820        4.75450        8.94740
C         -0.98250        4.29250        7.66510
C          0.40820        4.12480        7.21290
C          1.30560        5.18880        7.19710
C          2.59700        5.00770        6.73920
C          3.02900        3.76480        6.29860
S          4.71410        3.54900        5.74640
C          4.49490        3.78140        3.93940
C          3.78030        2.62490        3.27090
C          2.13330        2.70420        6.34070
C          0.83340        2.87470        6.77530
F          2.51940        1.47470        5.95550
C         -2.03950        3.96740        6.83250
S         -1.88910        3.40380        5.19260
C         -0.42540        5.14590        9.99730
C         -1.07630        5.53620       11.11120
S         -2.80060        5.44740       10.97380
H         11.95290       -6.72490       -5.29800
H          9.93940       -7.43120       -6.79090
H          6.42180       -5.61330       -8.86940
H          5.74900       -7.33600      -10.44340
H          4.41470      -10.38630      -12.05020
H          5.07280       -8.75260      -11.89170
H          3.59990       -8.40700       -9.85300
H          2.96170      -10.03800      -10.06850
H          2.63520       -8.79480      -11.28230
H          7.81950       -8.61840       -6.15730
H          6.60020       -3.56750       -2.19050
H          6.80140       -1.80280       -0.53310
H          7.60810       -0.67890        1.41220
H          6.45410        0.23310        0.39270
H          7.26560        2.36460        1.34410
H          6.73320        1.29740        2.64830
H          8.45820        1.50400        2.32260
H         10.04730       -2.06560       -4.23920
H          5.70410       -2.34560       -4.14300
H          2.59130       -4.55790       -7.49460
H          1.42840       -6.36640       -8.39730
H          0.54350       -6.25930       -9.94070
H          1.94720       -5.20050       -9.64490
H         -2.46450       -1.21090       -7.65600
H         -2.90330       -2.41230       -6.40750
H         -3.54510       -2.56740       -8.06440
H         -0.88050       -1.35690       -5.95880
H          3.54720        0.55460       -3.31990
H          5.46830        0.51380       -2.06240
H          5.41980        1.91860       -3.15830
H          6.38780        1.99190       -1.66770
H          2.23070        4.72230        1.44210
H          1.01900        4.69290        0.13830
H          1.01580        3.41890        1.38910
H          0.04700        2.72440       -0.58500
H         -3.16470        0.81060       -4.28620
H         -4.14390        1.53830       -6.27590
H         -5.58390        0.76030       -6.98040
H         -4.47420       -0.18820       -5.95850
H         -7.97020        3.40770       -1.87340
H         -8.48920        1.75000       -1.46640
H         -9.21630        2.59440       -2.85470
H         -6.31850        2.19730       -0.70710
H         -6.37280        0.50110        0.64040
H         -9.55250       -1.23690        0.83420
H         -8.57970        0.00870        0.01480
H         -7.77620       -1.38140        0.79240
H         -8.77170        2.67960        5.71950
H         -8.11250        1.16630        6.40380
H         -9.85190        1.30230        6.04520
H         -6.49130        2.35610        5.24280
H         -5.34310        3.66730        6.29310
H         -4.83310        3.46090       10.72000
H         -7.15800        3.51910       11.40880
H        -10.74370        4.16530       11.99940
H         -9.20460        3.29490       11.96030
H         -9.21840        4.99480       13.81100
H         -9.59350        6.26560       12.64100
H         -8.02590        5.45860       12.59100
H         -5.78330        5.80290        7.26280
H          0.98250        6.16400        7.52900
H          3.29240        5.83310        6.72220
H          5.51560        3.87860        3.57060
H          3.96930        4.72560        3.79430
H          2.73270        2.59430        3.56290
H          4.24100        1.68140        3.55540
H          3.83610        2.73100        2.18930
H          0.16850        2.02520        6.78980
H          0.64540        5.12330        9.90460
H         -0.65610        5.87710       12.03710
