212

C         -7.09330        3.93970       -7.76370
C         -6.78750        5.07070       -7.09680
C         -5.52620        4.99990       -6.43580
C         -4.91590        5.96430       -5.61770
C         -5.50760        7.27450       -5.40020
S         -5.75590        7.89730       -3.79620
C         -6.39870        9.39030       -4.39070
C         -6.88260       10.44250       -3.45510
C         -8.26190       10.08940       -2.89450
C         -6.41890        9.38810       -5.75320
Cl        -6.98520       10.69770       -6.70740
C         -5.90980        8.19260       -6.32940
Cl        -5.74710        7.98190       -8.02520
C         -3.71140        5.61410       -5.02260
C         -3.07910        4.36580       -5.23620
C         -3.70390        3.38860       -6.02930
C         -3.13200        2.05930       -6.16000
S         -2.89200        1.30510       -7.70750
C         -2.22400       -0.12280       -6.99640
C         -1.81890       -1.29120       -7.82570
C         -2.98840       -2.26320       -8.00380
C         -2.20810       -0.01270       -5.63760
C         -2.72120        1.22110       -5.15810
Cl        -2.87800        1.56300       -3.48240
Cl        -1.60420       -1.23330       -4.58890
C         -4.90740        3.74180       -6.62870
S         -5.88650        2.70720       -7.63030
C         -1.83050        4.28820       -4.57130
C         -1.53910        5.39470       -3.83140
S         -2.77470        6.62910       -3.96240
C         -0.44180        5.56740       -2.93870
C         -0.29930        6.52000       -1.97400
C          0.80970        6.29900       -1.12130
C          1.17480        7.01170        0.03750
C          0.41180        8.16040        0.49260
S         -1.31970        8.09710        0.64960
C         -1.41170        9.73280        1.20830
C         -2.72800       10.36630        1.49590
C         -3.53050       10.57950        0.21040
C         -0.16580       10.28090        1.26760
Cl         0.15250       11.89170        1.76650
C          0.87040        9.39130        0.87280
Cl         2.51390        9.87010        0.80460
C          2.24730        6.51640        0.76810
C          3.01270        5.39960        0.34950
C          2.67610        4.71390       -0.83170
C          3.40600        3.52830       -1.24100
S          2.57230        2.04630       -1.60500
C          4.04690        1.19760       -1.90540
C          4.06350       -0.23990       -2.30150
C          2.68860       -0.88750       -2.21480
C          5.11590        2.02890       -1.73510
C          4.75720        3.34760       -1.35570
Cl         5.91600        4.59710       -1.14780
Cl         6.74690        1.53530       -1.95260
C          1.55140        5.15820       -1.51260
S          0.84550        4.38130       -2.90030
C          3.93390        4.98730        1.33910
C          3.84980        5.70520        2.49820
S          2.69580        7.01620        2.37760
C          4.41000        5.27420        3.73890
S          3.35500        5.09900        5.10220
C          4.39830        3.92530        5.85750
C          5.62170        3.85160        5.17320
C          5.60280        4.58520        3.94610
C          6.70510        4.52870        3.06570
C          7.79590        3.77230        3.38920
O          8.90070        3.61740        2.62560
C          8.92670        4.23090        1.35870
C          7.83700        3.06370        4.64520
O          8.98680        2.38840        4.85930
C          9.09770        1.59870        6.01890
C          6.77580        3.11580        5.50930
C          3.76960        2.92800        6.65170
C          4.22390        1.67230        6.96560
C          3.18870        0.71800        7.10900
C          3.31750       -0.68260        7.12680
C          4.61260       -1.33860        7.25020
S          4.92300       -2.43230        8.56450
C          6.53280       -2.75670        8.01860
C          7.40610       -3.73150        8.72840
C          7.07370       -5.16540        8.30890
C          6.79280       -2.06110        6.87640
Cl         8.28650       -2.13180        6.03070
C          5.70710       -1.25520        6.43730
Cl         5.76810       -0.33850        4.98010
C          2.16660       -1.41900        6.87870
C          0.89920       -0.82090        6.69660
C          0.73620        0.56680        6.88650
C         -0.58130        1.16540        6.82280
S         -0.91040        2.61090        5.91420
C         -2.58600        2.59410        6.34570
C         -3.50340        3.67580        5.89390
C         -3.32540        4.93330        6.74780
C         -2.85740        1.53420        7.15900
C         -1.72770        0.71670        7.42430
Cl        -1.80370       -0.64640        8.46380
Cl        -4.40980        1.19670        7.80920
C          1.90110        1.30560        7.01540
S          2.01830        3.03480        6.85760
C         -0.01670       -1.70650        6.08070
C          0.50650       -2.93510        5.81140
S          2.13730       -3.10960        6.44080
C         -0.02120       -3.88740        4.88330
C          0.22900       -5.21590        4.73050
C         -0.31910       -5.76060        3.53850
C         -0.26200       -7.08590        3.07100
C          0.28390       -8.14940        3.89580
S          1.48350       -9.25100        3.28950
C          1.55070      -10.12240        4.78280
C          2.41900      -11.32210        4.93360
C          1.74910      -12.55690        4.32630
C          0.67980       -9.58680        5.68410
Cl         0.45360      -10.19190        7.27430
C         -0.03550       -8.46430        5.18810
Cl        -1.23700       -7.65600        6.11020
C         -0.76310       -7.33050        1.79890
C         -1.32210       -6.31940        0.98050
C         -1.39100       -4.99740        1.45010
C         -1.82660       -3.90280        0.59430
S         -3.38430       -3.86250       -0.17630
C         -3.04890       -2.35520       -0.96180
C         -4.07260       -1.67670       -1.80290
C         -4.91220       -0.70690       -0.96840
C         -1.80080       -1.91840       -0.63230
C         -1.10490       -2.79580        0.24190
Cl         0.51400       -2.50820        0.72520
Cl        -1.10600       -0.46030       -1.21180
C         -0.92400       -4.76270        2.73550
S         -0.95920       -3.22960        3.55080
C         -1.73290       -6.81450       -0.27880
C         -1.51120       -8.15160       -0.44640
S         -0.78750       -8.87020        0.98680
C         -1.79550       -8.96790       -1.57770
S         -1.95820      -10.68470       -1.37810
C         -2.32460      -10.91710       -3.02670
C         -2.31510       -9.73670       -3.73370
C         -2.00020       -8.60730       -2.91010
C         -1.89220       -7.33330       -3.51260
C         -2.13910       -7.18140       -4.84720
O         -2.07110       -6.01040       -5.52680
C         -1.73360       -4.84280       -4.82000
C         -2.50180       -8.31530       -5.66510
O         -2.73060       -8.00770       -6.96660
C         -3.07420       -9.05110       -7.84350
C         -2.57150       -9.56070       -5.11680
H         -7.97330        3.73300       -8.34070
H         -7.43040        5.93010       -7.05550
H         -6.17330       10.54720       -2.63170
H         -6.93580       11.38990       -3.99400
H         -8.59840       10.86650       -2.21360
H         -8.21860        9.14600       -2.35560
H         -8.98470        9.99670       -3.70110
H         -1.48240       -0.94340       -8.80320
H         -0.98980       -1.80250       -7.33200
H         -3.34830       -2.60440       -7.03640
H         -3.80770       -1.77410       -8.52490
H         -2.67180       -3.12760       -8.58090
H         -1.16890        3.44320       -4.62890
H         -0.99630        7.33030       -1.86240
H         -3.29880        9.72750        2.17360
H         -2.55150       11.32420        1.98740
H         -4.48530       11.04470        0.44060
H         -2.98410       11.22500       -0.47290
H         -3.71390        9.62710       -0.28210
H          4.44600       -0.31650       -3.32470
H          4.76990       -0.76990       -1.65550
H          2.74450       -1.93120       -2.51340
H          1.98410       -0.37730       -2.86820
H          2.30720       -0.83980       -1.19780
H          4.54700        4.10990        1.25250
H          6.65990        5.09690        2.15160
H          9.87730        3.94440        0.91260
H          8.87750        5.32150        1.43880
H          8.10690        3.87770        0.72590
H          9.06160        2.20880        6.92740
H         10.06870        1.11140        5.95100
H          8.31280        0.83780        6.05840
H          6.82390        2.62480        6.46510
H          5.25800        1.39440        6.96270
H          7.26570       -3.62750        9.80570
H          8.44730       -3.50970        8.48750
H          7.71730       -5.86650        8.83320
H          6.03770       -5.39610        8.54530
H          7.22100       -5.28900        7.23900
H         -3.29440        3.91580        4.84970
H         -4.53160        3.31860        5.97300
H         -3.54180        4.71470        7.79050
H         -4.00040        5.71420        6.40800
H         -2.30310        5.29630        6.67310
H         -1.00110       -1.41520        5.76050
H          0.81100       -5.78210        5.43490
H          3.37310      -11.14470        4.43400
H          2.60490      -11.48910        5.99600
H          2.39450      -13.42420        4.43630
H          0.80560      -12.75830        4.82710
H          1.55350      -12.39660        3.26860
H         -4.72300       -2.42520       -2.25850
H         -3.56550       -1.12280       -2.59440
H         -5.42880       -1.23890       -0.17290
H         -4.27510        0.05270       -0.52240
H         -5.64920       -0.21620       -1.59850
H         -2.22790       -6.19990       -1.00510
H         -2.53130      -11.90280       -3.39270
H         -1.58520       -6.49460       -2.91420
H         -0.73550       -4.91260       -4.37540
H         -2.46270       -4.62100       -4.03330
H         -1.74370       -4.04110       -5.55580
H         -2.27530       -9.79690       -7.91250
H         -3.21700       -8.58390       -8.81630
H         -4.00290       -9.54370       -7.53710
H         -2.81580      -10.43080       -5.70370
