
  xtb     03042214503D
 energy: -323.234699515519 gnorm: 0.000235052207 xtb: 6.4.1 (unknown)
186203  0     0  0            999 V2000
    9.5605   -9.4824    7.5263 C   0  0  0  0  0  0  0  0  0  0  0  0
    8.7145   -9.4569    6.0431 S   0  0  0  0  0  0  0  0  0  0  0  0
    7.8857   -7.9724    6.4393 C   0  0  0  0  0  0  0  0  0  0  0  0
    8.2933   -7.5291    7.7044 C   0  0  0  0  0  0  0  0  0  0  0  0
    9.2489   -8.4020    8.3168 C   0  0  0  0  0  0  0  0  0  0  0  0
    9.7675   -8.1048    9.6020 C   0  0  0  0  0  0  0  0  0  0  0  0
    9.3701   -6.9721   10.2467 C   0  0  0  0  0  0  0  0  0  0  0  0
    9.7844   -6.5711   11.4749 O   0  0  0  0  0  0  0  0  0  0  0  0
   10.7062   -7.3802   12.1608 C   0  0  0  0  0  0  0  0  0  0  0  0
    8.4424   -6.0667    9.6131 C   0  0  0  0  0  0  0  0  0  0  0  0
    8.1660   -4.9585   10.3456 O   0  0  0  0  0  0  0  0  0  0  0  0
    7.3163   -3.9857    9.7928 C   0  0  0  0  0  0  0  0  0  0  0  0
    7.9235   -6.3463    8.3802 C   0  0  0  0  0  0  0  0  0  0  0  0
    6.9082   -7.4276    5.5733 C   0  0  0  0  0  0  0  0  0  0  0  0
    5.6439   -6.4178    6.2064 S   0  0  0  0  0  0  0  0  0  0  0  0
    4.8458   -6.2298    4.6662 C   0  0  0  0  0  0  0  0  0  0  0  0
    5.5653   -6.9406    3.6864 C   0  0  0  0  0  0  0  0  0  0  0  0
    6.7145   -7.6136    4.1972 C   0  0  0  0  0  0  0  0  0  0  0  0
    7.5519   -8.3319    3.3177 C   0  0  0  0  0  0  0  0  0  0  0  0
    7.2598   -8.4034    1.9847 C   0  0  0  0  0  0  0  0  0  0  0  0
    7.9955   -9.0570    1.0523 O   0  0  0  0  0  0  0  0  0  0  0  0
    9.1548   -9.7328    1.4727 C   0  0  0  0  0  0  0  0  0  0  0  0
    6.0899   -7.7479    1.4720 C   0  0  0  0  0  0  0  0  0  0  0  0
    5.9064   -7.8810    0.1376 O   0  0  0  0  0  0  0  0  0  0  0  0
    4.8579   -7.1643   -0.4676 C   0  0  0  0  0  0  0  0  0  0  0  0
    5.2699   -7.0455    2.3127 C   0  0  0  0  0  0  0  0  0  0  0  0
    3.7189   -5.3924    4.5433 C   0  0  0  0  0  0  0  0  0  0  0  0
    3.1407   -4.8870    2.9789 S   0  0  0  0  0  0  0  0  0  0  0  0
    1.9415   -3.8140    3.6401 C   0  0  0  0  0  0  0  0  0  0  0  0
    1.9716   -3.8651    5.0369 C   0  0  0  0  0  0  0  0  0  0  0  0
    2.9484   -4.7709    5.5472 C   0  0  0  0  0  0  0  0  0  0  0  0
    3.0234   -4.9725    6.9407 C   0  0  0  0  0  0  0  0  0  0  0  0
    2.2196   -4.2675    7.7942 C   0  0  0  0  0  0  0  0  0  0  0  0
    2.2131   -4.3926    9.1457 O   0  0  0  0  0  0  0  0  0  0  0  0
    3.0651   -5.3430    9.7329 C   0  0  0  0  0  0  0  0  0  0  0  0
    1.2800   -3.3117    7.2793 C   0  0  0  0  0  0  0  0  0  0  0  0
    0.5610   -2.6558    8.2216 O   0  0  0  0  0  0  0  0  0  0  0  0
   -0.3685   -1.6890    7.7966 C   0  0  0  0  0  0  0  0  0  0  0  0
    1.1536   -3.1416    5.9292 C   0  0  0  0  0  0  0  0  0  0  0  0
    1.1568   -3.0527    2.7436 C   0  0  0  0  0  0  0  0  0  0  0  0
    1.0905   -3.2091    1.3815 C   0  0  0  0  0  0  0  0  0  0  0  0
    0.2939   -2.2485    0.7192 C   0  0  0  0  0  0  0  0  0  0  0  0
    0.0056   -2.1381   -0.6550 C   0  0  0  0  0  0  0  0  0  0  0  0
    0.5401   -3.0794   -1.6456 C   0  0  0  0  0  0  0  0  0  0  0  0
   -0.3017   -3.6347   -2.6097 C   0  0  0  0  0  0  0  0  0  0  0  0
    0.1885   -4.5022   -3.5610 C   0  0  0  0  0  0  0  0  0  0  0  0
    1.5344   -4.8580   -3.5912 C   0  0  0  0  0  0  0  0  0  0  0  0
    2.0714   -5.9039   -4.9166 S   0  0  0  0  0  0  0  0  0  0  0  0
    3.1210   -7.1477   -4.0790 C   0  0  0  0  0  0  0  0  0  0  0  0
    2.3347   -7.9427   -3.0556 C   0  0  0  0  0  0  0  0  0  0  0  0
    2.3645   -4.2994   -2.6249 C   0  0  0  0  0  0  0  0  0  0  0  0
    3.6866   -4.5892   -2.5995 F   0  0  0  0  0  0  0  0  0  0  0  0
    1.8873   -3.4300   -1.6645 C   0  0  0  0  0  0  0  0  0  0  0  0
   -0.8275   -1.0935   -1.0336 C   0  0  0  0  0  0  0  0  0  0  0  0
   -1.4041   -0.1803   -0.1167 C   0  0  0  0  0  0  0  0  0  0  0  0
   -1.1462   -0.3120    1.2589 C   0  0  0  0  0  0  0  0  0  0  0  0
   -1.7727    0.5649    2.2543 C   0  0  0  0  0  0  0  0  0  0  0  0
   -3.1499    0.7840    2.2520 C   0  0  0  0  0  0  0  0  0  0  0  0
   -3.7405    1.5536    3.2312 C   0  0  0  0  0  0  0  0  0  0  0  0
   -2.9859    2.1431    4.2434 C   0  0  0  0  0  0  0  0  0  0  0  0
   -3.8433    3.1232    5.4418 S   0  0  0  0  0  0  0  0  0  0  0  0
   -3.0455    2.6610    7.0245 C   0  0  0  0  0  0  0  0  0  0  0  0
   -3.1187    1.1694    7.2841 C   0  0  0  0  0  0  0  0  0  0  0  0
   -1.6088    1.9499    4.2097 C   0  0  0  0  0  0  0  0  0  0  0  0
   -1.0063    1.1662    3.2475 C   0  0  0  0  0  0  0  0  0  0  0  0
   -0.8050    2.5292    5.1302 F   0  0  0  0  0  0  0  0  0  0  0  0
   -0.2845   -1.3284    1.6310 C   0  0  0  0  0  0  0  0  0  0  0  0
    0.1802   -1.6915    3.2718 S   0  0  0  0  0  0  0  0  0  0  0  0
   -2.1610    0.8242   -0.7672 C   0  0  0  0  0  0  0  0  0  0  0  0
   -2.1750    0.7045   -2.1252 C   0  0  0  0  0  0  0  0  0  0  0  0
   -1.2482   -0.6787   -2.6775 S   0  0  0  0  0  0  0  0  0  0  0  0
   -2.8294    1.5486   -3.0679 C   0  0  0  0  0  0  0  0  0  0  0  0
   -2.7496    1.5048   -4.4279 C   0  0  0  0  0  0  0  0  0  0  0  0
   -3.5182    2.5044   -5.0759 C   0  0  0  0  0  0  0  0  0  0  0  0
   -3.6275    2.7558   -6.4544 C   0  0  0  0  0  0  0  0  0  0  0  0
   -2.8403    2.0038   -7.4385 C   0  0  0  0  0  0  0  0  0  0  0  0
   -1.4620    1.8551   -7.2885 C   0  0  0  0  0  0  0  0  0  0  0  0
   -0.7200    1.1899   -8.2407 C   0  0  0  0  0  0  0  0  0  0  0  0
   -1.3201    0.6363   -9.3694 C   0  0  0  0  0  0  0  0  0  0  0  0
   -0.2781   -0.2172  -10.5170 S   0  0  0  0  0  0  0  0  0  0  0  0
   -0.9006    0.3361  -12.1483 C   0  0  0  0  0  0  0  0  0  0  0  0
   -0.8618    1.8447  -12.2880 C   0  0  0  0  0  0  0  0  0  0  0  0
   -2.7008    0.7609   -9.4878 C   0  0  0  0  0  0  0  0  0  0  0  0
   -3.3574    0.2052  -10.5294 F   0  0  0  0  0  0  0  0  0  0  0  0
   -3.4529    1.4456   -8.5554 C   0  0  0  0  0  0  0  0  0  0  0  0
   -4.4909    3.7710   -6.8359 C   0  0  0  0  0  0  0  0  0  0  0  0
   -5.2168    4.5573   -5.9087 C   0  0  0  0  0  0  0  0  0  0  0  0
   -5.0741    4.3364   -4.5291 C   0  0  0  0  0  0  0  0  0  0  0  0
   -5.7603    5.1923   -3.5537 C   0  0  0  0  0  0  0  0  0  0  0  0
   -5.6563    6.5784   -3.6337 C   0  0  0  0  0  0  0  0  0  0  0  0
   -6.2996    7.3998   -2.7282 C   0  0  0  0  0  0  0  0  0  0  0  0
   -7.0724    6.8613   -1.7056 C   0  0  0  0  0  0  0  0  0  0  0  0
   -7.9787    7.7894   -0.5128 S   0  0  0  0  0  0  0  0  0  0  0  0
   -7.2660    9.4678   -0.6158 C   0  0  0  0  0  0  0  0  0  0  0  0
   -5.8490    9.5256   -0.0777 C   0  0  0  0  0  0  0  0  0  0  0  0
   -7.1670    5.4700   -1.6366 C   0  0  0  0  0  0  0  0  0  0  0  0
   -6.5274    4.6409   -2.5304 C   0  0  0  0  0  0  0  0  0  0  0  0
   -7.9170    4.9145   -0.6648 F   0  0  0  0  0  0  0  0  0  0  0  0
   -4.2381    3.2990   -4.1488 C   0  0  0  0  0  0  0  0  0  0  0  0
   -3.8879    2.8302   -2.5051 S   0  0  0  0  0  0  0  0  0  0  0  0
   -6.0444    5.5118   -6.5501 C   0  0  0  0  0  0  0  0  0  0  0  0
   -5.9297    5.5208   -7.9103 C   0  0  0  0  0  0  0  0  0  0  0  0
   -4.7991    4.2951   -8.4710 S   0  0  0  0  0  0  0  0  0  0  0  0
   -6.5914    6.3505   -8.8608 C   0  0  0  0  0  0  0  0  0  0  0  0
   -6.7362    5.8218  -10.5080 S   0  0  0  0  0  0  0  0  0  0  0  0
   -7.6054    7.2176  -10.9587 C   0  0  0  0  0  0  0  0  0  0  0  0
   -7.7810    8.0839   -9.9044 C   0  0  0  0  0  0  0  0  0  0  0  0
   -7.1928    7.5972   -8.6918 C   0  0  0  0  0  0  0  0  0  0  0  0
   -7.2443    8.4084   -7.5351 C   0  0  0  0  0  0  0  0  0  0  0  0
   -7.8865    9.6124   -7.5696 C   0  0  0  0  0  0  0  0  0  0  0  0
   -8.0042   10.4665   -6.5213 O   0  0  0  0  0  0  0  0  0  0  0  0
   -7.4568   10.0858   -5.2849 C   0  0  0  0  0  0  0  0  0  0  0  0
   -8.5098   10.0838   -8.7841 C   0  0  0  0  0  0  0  0  0  0  0  0
   -9.1139   11.2924   -8.6623 O   0  0  0  0  0  0  0  0  0  0  0  0
   -9.7324   11.8415   -9.7988 C   0  0  0  0  0  0  0  0  0  0  0  0
   -8.4446    9.3365   -9.9215 C   0  0  0  0  0  0  0  0  0  0  0  0
   10.2420  -10.2827    7.7326 H   0  0  0  0  0  0  0  0  0  0  0  0
   10.4758   -8.7916   10.0356 H   0  0  0  0  0  0  0  0  0  0  0  0
   11.6460   -7.4767   11.6069 H   0  0  0  0  0  0  0  0  0  0  0  0
   10.8950   -6.8753   13.1066 H   0  0  0  0  0  0  0  0  0  0  0  0
   10.2980   -8.3774   12.3564 H   0  0  0  0  0  0  0  0  0  0  0  0
    6.3156   -4.3868    9.5994 H   0  0  0  0  0  0  0  0  0  0  0  0
    7.2492   -3.1951   10.5382 H   0  0  0  0  0  0  0  0  0  0  0  0
    7.7238   -3.5762    8.8628 H   0  0  0  0  0  0  0  0  0  0  0  0
    7.2464   -5.6599    7.9027 H   0  0  0  0  0  0  0  0  0  0  0  0
    8.4345   -8.8047    3.7100 H   0  0  0  0  0  0  0  0  0  0  0  0
    9.8882   -9.0434    1.9037 H   0  0  0  0  0  0  0  0  0  0  0  0
    8.9216  -10.5143    2.2033 H   0  0  0  0  0  0  0  0  0  0  0  0
    9.5706  -10.1875    0.5753 H   0  0  0  0  0  0  0  0  0  0  0  0
    4.9444   -6.0896   -0.2813 H   0  0  0  0  0  0  0  0  0  0  0  0
    4.9557   -7.3527   -1.5344 H   0  0  0  0  0  0  0  0  0  0  0  0
    3.8791   -7.5140   -0.1230 H   0  0  0  0  0  0  0  0  0  0  0  0
    4.3876   -6.5705    1.9260 H   0  0  0  0  0  0  0  0  0  0  0  0
    3.7019   -5.7097    7.3294 H   0  0  0  0  0  0  0  0  0  0  0  0
    4.1177   -5.1296    9.5173 H   0  0  0  0  0  0  0  0  0  0  0  0
    2.8303   -6.3580    9.3962 H   0  0  0  0  0  0  0  0  0  0  0  0
    2.8945   -5.2685   10.8055 H   0  0  0  0  0  0  0  0  0  0  0  0
    0.1158   -0.8890    7.2273 H   0  0  0  0  0  0  0  0  0  0  0  0
   -0.7989   -1.2770    8.7076 H   0  0  0  0  0  0  0  0  0  0  0  0
   -1.1633   -2.1339    7.1888 H   0  0  0  0  0  0  0  0  0  0  0  0
    0.4249   -2.4592    5.5299 H   0  0  0  0  0  0  0  0  0  0  0  0
    1.5943   -4.0161    0.8808 H   0  0  0  0  0  0  0  0  0  0  0  0
   -1.3545   -3.4002   -2.5998 H   0  0  0  0  0  0  0  0  0  0  0  0
   -0.4683   -4.9233   -4.3058 H   0  0  0  0  0  0  0  0  0  0  0  0
    3.4613   -7.7844   -4.8953 H   0  0  0  0  0  0  0  0  0  0  0  0
    3.9795   -6.6440   -3.6404 H   0  0  0  0  0  0  0  0  0  0  0  0
    1.4648   -8.4013   -3.5211 H   0  0  0  0  0  0  0  0  0  0  0  0
    1.9934   -7.2987   -2.2468 H   0  0  0  0  0  0  0  0  0  0  0  0
    2.9595   -8.7279   -2.6350 H   0  0  0  0  0  0  0  0  0  0  0  0
    2.5858   -2.9991   -0.9642 H   0  0  0  0  0  0  0  0  0  0  0  0
   -3.7635    0.3162    1.4974 H   0  0  0  0  0  0  0  0  0  0  0  0
   -4.8084    1.7076    3.2350 H   0  0  0  0  0  0  0  0  0  0  0  0
   -3.6203    3.2175    7.7647 H   0  0  0  0  0  0  0  0  0  0  0  0
   -2.0203    3.0246    7.0255 H   0  0  0  0  0  0  0  0  0  0  0  0
   -2.7109    0.9484    8.2684 H   0  0  0  0  0  0  0  0  0  0  0  0
   -2.5438    0.6168    6.5431 H   0  0  0  0  0  0  0  0  0  0  0  0
   -4.1505    0.8265    7.2471 H   0  0  0  0  0  0  0  0  0  0  0  0
    0.0667    1.0576    3.2678 H   0  0  0  0  0  0  0  0  0  0  0  0
   -2.6565    1.6274   -0.2512 H   0  0  0  0  0  0  0  0  0  0  0  0
   -2.1641    0.7686   -4.9494 H   0  0  0  0  0  0  0  0  0  0  0  0
   -0.9671    2.2966   -6.4370 H   0  0  0  0  0  0  0  0  0  0  0  0
    0.3485    1.0907   -8.1299 H   0  0  0  0  0  0  0  0  0  0  0  0
   -1.9015   -0.0616  -12.2998 H   0  0  0  0  0  0  0  0  0  0  0  0
   -0.2180   -0.1422  -12.8507 H   0  0  0  0  0  0  0  0  0  0  0  0
   -1.5440    2.3181  -11.5840 H   0  0  0  0  0  0  0  0  0  0  0  0
    0.1424    2.2195  -12.1011 H   0  0  0  0  0  0  0  0  0  0  0  0
   -1.1591    2.1269  -13.2959 H   0  0  0  0  0  0  0  0  0  0  0  0
   -4.5203    1.5094   -8.6977 H   0  0  0  0  0  0  0  0  0  0  0  0
   -5.0436    7.0199   -4.4059 H   0  0  0  0  0  0  0  0  0  0  0  0
   -6.1960    8.4683   -2.8291 H   0  0  0  0  0  0  0  0  0  0  0  0
   -7.9386   10.0649   -0.0002 H   0  0  0  0  0  0  0  0  0  0  0  0
   -7.3373    9.8180   -1.6452 H   0  0  0  0  0  0  0  0  0  0  0  0
   -5.4768   10.5473   -0.1229 H   0  0  0  0  0  0  0  0  0  0  0  0
   -5.1842    8.8866   -0.6550 H   0  0  0  0  0  0  0  0  0  0  0  0
   -5.8282    9.1928    0.9573 H   0  0  0  0  0  0  0  0  0  0  0  0
   -6.6453    3.5734   -2.4340 H   0  0  0  0  0  0  0  0  0  0  0  0
   -6.7457    6.1181   -6.0093 H   0  0  0  0  0  0  0  0  0  0  0  0
   -7.9449    7.3308  -11.9687 H   0  0  0  0  0  0  0  0  0  0  0  0
   -6.7513    8.0742   -6.6399 H   0  0  0  0  0  0  0  0  0  0  0  0
   -6.3695    9.9650   -5.3466 H   0  0  0  0  0  0  0  0  0  0  0  0
   -7.9044    9.1563   -4.9158 H   0  0  0  0  0  0  0  0  0  0  0  0
   -7.6915   10.8992   -4.5997 H   0  0  0  0  0  0  0  0  0  0  0  0
  -10.5394   11.1992  -10.1667 H   0  0  0  0  0  0  0  0  0  0  0  0
  -10.1477   12.7949   -9.4768 H   0  0  0  0  0  0  0  0  0  0  0  0
   -9.0109   12.0131  -10.6046 H   0  0  0  0  0  0  0  0  0  0  0  0
   -8.8825    9.6677  -10.8486 H   0  0  0  0  0  0  0  0  0  0  0  0
  1  2  1  0  0  0  0
  2  3  1  0  0  0  0
  3  4  2  0  0  0  0
  4  5  1  0  0  0  0
  5  6  1  0  0  0  0
  6  7  2  0  0  0  0
  7  8  1  0  0  0  0
  8  9  1  0  0  0  0
  7 10  1  0  0  0  0
 10 11  1  0  0  0  0
 11 12  1  0  0  0  0
 10 13  2  0  0  0  0
  3 14  1  0  0  0  0
 14 15  1  0  0  0  0
 15 16  1  0  0  0  0
 16 17  2  0  0  0  0
 17 18  1  0  0  0  0
 18 19  1  0  0  0  0
 19 20  2  0  0  0  0
 20 21  1  0  0  0  0
 21 22  1  0  0  0  0
 20 23  1  0  0  0  0
 23 24  1  0  0  0  0
 24 25  1  0  0  0  0
 23 26  2  0  0  0  0
 16 27  1  0  0  0  0
 27 28  1  0  0  0  0
 28 29  1  0  0  0  0
 29 30  2  0  0  0  0
 30 31  1  0  0  0  0
 31 32  1  0  0  0  0
 32 33  2  0  0  0  0
 33 34  1  0  0  0  0
 34 35  1  0  0  0  0
 33 36  1  0  0  0  0
 36 37  1  0  0  0  0
 37 38  1  0  0  0  0
 36 39  2  0  0  0  0
 29 40  1  0  0  0  0
 40 41  2  0  0  0  0
 41 42  1  0  0  0  0
 42 43  2  0  0  0  0
 43 44  1  0  0  0  0
 44 45  2  0  0  0  0
 45 46  1  0  0  0  0
 46 47  2  0  0  0  0
 47 48  1  0  0  0  0
 48 49  1  0  0  0  0
 49 50  1  0  0  0  0
 47 51  1  0  0  0  0
 51 52  1  0  0  0  0
 51 53  2  0  0  0  0
 43 54  1  0  0  0  0
 54 55  2  0  0  0  0
 55 56  1  0  0  0  0
 56 57  1  0  0  0  0
 57 58  2  0  0  0  0
 58 59  1  0  0  0  0
 59 60  2  0  0  0  0
 60 61  1  0  0  0  0
 61 62  1  0  0  0  0
 62 63  1  0  0  0  0
 60 64  1  0  0  0  0
 64 65  2  0  0  0  0
 64 66  1  0  0  0  0
 56 67  2  0  0  0  0
 67 68  1  0  0  0  0
 55 69  1  0  0  0  0
 69 70  2  0  0  0  0
 70 71  1  0  0  0  0
 70 72  1  0  0  0  0
 72 73  2  0  0  0  0
 73 74  1  0  0  0  0
 74 75  2  0  0  0  0
 75 76  1  0  0  0  0
 76 77  2  0  0  0  0
 77 78  1  0  0  0  0
 78 79  2  0  0  0  0
 79 80  1  0  0  0  0
 80 81  1  0  0  0  0
 81 82  1  0  0  0  0
 79 83  1  0  0  0  0
 83 84  1  0  0  0  0
 83 85  2  0  0  0  0
 75 86  1  0  0  0  0
 86 87  2  0  0  0  0
 87 88  1  0  0  0  0
 88 89  1  0  0  0  0
 89 90  2  0  0  0  0
 90 91  1  0  0  0  0
 91 92  2  0  0  0  0
 92 93  1  0  0  0  0
 93 94  1  0  0  0  0
 94 95  1  0  0  0  0
 92 96  1  0  0  0  0
 96 97  2  0  0  0  0
 96 98  1  0  0  0  0
 88 99  2  0  0  0  0
 99100  1  0  0  0  0
 87101  1  0  0  0  0
101102  2  0  0  0  0
102103  1  0  0  0  0
102104  1  0  0  0  0
104105  1  0  0  0  0
105106  1  0  0  0  0
106107  2  0  0  0  0
107108  1  0  0  0  0
108109  1  0  0  0  0
109110  2  0  0  0  0
110111  1  0  0  0  0
111112  1  0  0  0  0
110113  1  0  0  0  0
113114  1  0  0  0  0
114115  1  0  0  0  0
113116  2  0  0  0  0
  5  1  2  0  0  0  0
 18 14  2  0  0  0  0
 31 27  2  0  0  0  0
 68 40  1  0  0  0  0
100 72  1  0  0  0  0
108104  2  0  0  0  0
 13  4  1  0  0  0  0
 26 17  1  0  0  0  0
 39 30  1  0  0  0  0
 67 42  1  0  0  0  0
 99 74  1  0  0  0  0
116107  1  0  0  0  0
 53 44  1  0  0  0  0
 71 54  1  0  0  0  0
 85 76  1  0  0  0  0
103 86  1  0  0  0  0
 65 57  1  0  0  0  0
 97 89  1  0  0  0  0
  1117  1  0  0  0  0
  6118  1  0  0  0  0
  9119  1  0  0  0  0
  9120  1  0  0  0  0
  9121  1  0  0  0  0
 12122  1  0  0  0  0
 12123  1  0  0  0  0
 12124  1  0  0  0  0
 13125  1  0  0  0  0
 19126  1  0  0  0  0
 22127  1  0  0  0  0
 22128  1  0  0  0  0
 22129  1  0  0  0  0
 25130  1  0  0  0  0
 25131  1  0  0  0  0
 25132  1  0  0  0  0
 26133  1  0  0  0  0
 32134  1  0  0  0  0
 35135  1  0  0  0  0
 35136  1  0  0  0  0
 35137  1  0  0  0  0
 38138  1  0  0  0  0
 38139  1  0  0  0  0
 38140  1  0  0  0  0
 39141  1  0  0  0  0
 41142  1  0  0  0  0
 45143  1  0  0  0  0
 46144  1  0  0  0  0
 49145  1  0  0  0  0
 49146  1  0  0  0  0
 50147  1  0  0  0  0
 50148  1  0  0  0  0
 50149  1  0  0  0  0
 53150  1  0  0  0  0
 58151  1  0  0  0  0
 59152  1  0  0  0  0
 62153  1  0  0  0  0
 62154  1  0  0  0  0
 63155  1  0  0  0  0
 63156  1  0  0  0  0
 63157  1  0  0  0  0
 65158  1  0  0  0  0
 69159  1  0  0  0  0
 73160  1  0  0  0  0
 77161  1  0  0  0  0
 78162  1  0  0  0  0
 81163  1  0  0  0  0
 81164  1  0  0  0  0
 82165  1  0  0  0  0
 82166  1  0  0  0  0
 82167  1  0  0  0  0
 85168  1  0  0  0  0
 90169  1  0  0  0  0
 91170  1  0  0  0  0
 94171  1  0  0  0  0
 94172  1  0  0  0  0
 95173  1  0  0  0  0
 95174  1  0  0  0  0
 95175  1  0  0  0  0
 97176  1  0  0  0  0
101177  1  0  0  0  0
106178  1  0  0  0  0
109179  1  0  0  0  0
112180  1  0  0  0  0
112181  1  0  0  0  0
112182  1  0  0  0  0
115183  1  0  0  0  0
115184  1  0  0  0  0
115185  1  0  0  0  0
116186  1  0  0  0  0
M  END
