
  xtb     03042203593D
 energy: -364.153246697206 gnorm: 0.000707296561 xtb: 6.4.1 (unknown)
212235  0     0  0            999 V2000
   -7.5177    0.6574   15.2183 C   0  0  0  0  0  0  0  0  0  0  0  0
   -8.2282   -0.4919   14.1754 S   0  0  0  0  0  0  0  0  0  0  0  0
   -8.0014    0.5089   12.7637 C   0  0  0  0  0  0  0  0  0  0  0  0
   -7.3944    1.7165   13.1402 C   0  0  0  0  0  0  0  0  0  0  0  0
   -7.1151    1.7847   14.5434 C   0  0  0  0  0  0  0  0  0  0  0  0
   -6.4738    2.9228   15.0937 C   0  0  0  0  0  0  0  0  0  0  0  0
   -6.1250    3.9620   14.2844 C   0  0  0  0  0  0  0  0  0  0  0  0
   -5.4924    5.0965   14.6766 O   0  0  0  0  0  0  0  0  0  0  0  0
   -5.1311    5.2202   16.0290 C   0  0  0  0  0  0  0  0  0  0  0  0
   -6.4389    3.9158   12.8773 C   0  0  0  0  0  0  0  0  0  0  0  0
   -6.0664    5.0220   12.1880 O   0  0  0  0  0  0  0  0  0  0  0  0
   -6.3068    5.0599   10.8021 C   0  0  0  0  0  0  0  0  0  0  0  0
   -7.0608    2.8263   12.3346 C   0  0  0  0  0  0  0  0  0  0  0  0
   -8.3192    0.0305   11.4687 C   0  0  0  0  0  0  0  0  0  0  0  0
   -7.6739    0.8252   10.0658 S   0  0  0  0  0  0  0  0  0  0  0  0
   -8.3045   -0.3560    8.9649 C   0  0  0  0  0  0  0  0  0  0  0  0
   -9.0317   -1.3255    9.6604 C   0  0  0  0  0  0  0  0  0  0  0  0
   -9.0445   -1.1067   11.0724 C   0  0  0  0  0  0  0  0  0  0  0  0
   -9.7678   -1.9967   11.8949 C   0  0  0  0  0  0  0  0  0  0  0  0
  -10.4151   -3.0739   11.3564 C   0  0  0  0  0  0  0  0  0  0  0  0
  -11.1298   -3.9890   12.0570 O   0  0  0  0  0  0  0  0  0  0  0  0
  -11.2046   -3.8495   13.4541 C   0  0  0  0  0  0  0  0  0  0  0  0
  -10.3877   -3.3008    9.9371 C   0  0  0  0  0  0  0  0  0  0  0  0
  -11.0611   -4.4023    9.5259 O   0  0  0  0  0  0  0  0  0  0  0  0
  -11.0358   -4.7294    8.1578 C   0  0  0  0  0  0  0  0  0  0  0  0
   -9.7276   -2.4275    9.1194 C   0  0  0  0  0  0  0  0  0  0  0  0
   -7.9695   -0.2256    7.5934 C   0  0  0  0  0  0  0  0  0  0  0  0
   -8.0002   -1.1483    6.5831 C   0  0  0  0  0  0  0  0  0  0  0  0
   -7.4674   -0.6828    5.3601 C   0  0  0  0  0  0  0  0  0  0  0  0
   -7.2810   -1.4074    4.1652 C   0  0  0  0  0  0  0  0  0  0  0  0
   -7.6881   -2.7956    4.0634 C   0  0  0  0  0  0  0  0  0  0  0  0
   -7.5257   -3.7986    4.9753 C   0  0  0  0  0  0  0  0  0  0  0  0
   -8.1197   -5.0101    4.5612 C   0  0  0  0  0  0  0  0  0  0  0  0
   -8.0864   -6.4336    5.5344 Cl  0  0  0  0  0  0  0  0  0  0  0  0
   -8.7224   -4.9565    3.3389 C   0  0  0  0  0  0  0  0  0  0  0  0
   -9.4828   -6.0234    2.6314 C   0  0  0  0  0  0  0  0  0  0  0  0
  -10.9588   -6.0035    3.0369 C   0  0  0  0  0  0  0  0  0  0  0  0
   -8.5691   -3.3673    2.6730 S   0  0  0  0  0  0  0  0  0  0  0  0
   -6.6866   -0.7254    3.1114 C   0  0  0  0  0  0  0  0  0  0  0  0
   -6.2874    0.6312    3.1877 C   0  0  0  0  0  0  0  0  0  0  0  0
   -6.4714    1.3558    4.3826 C   0  0  0  0  0  0  0  0  0  0  0  0
   -6.0203    2.7266    4.5206 C   0  0  0  0  0  0  0  0  0  0  0  0
   -4.8427    3.2844    4.1103 C   0  0  0  0  0  0  0  0  0  0  0  0
   -4.7255    4.6483    4.4457 C   0  0  0  0  0  0  0  0  0  0  0  0
   -5.8110    5.1398    5.1023 C   0  0  0  0  0  0  0  0  0  0  0  0
   -6.0336    6.5102    5.6427 C   0  0  0  0  0  0  0  0  0  0  0  0
   -6.0013    6.5109    7.1725 C   0  0  0  0  0  0  0  0  0  0  0  0
   -7.0086    3.9086    5.3316 S   0  0  0  0  0  0  0  0  0  0  0  0
   -7.0596    0.6712    5.4365 C   0  0  0  0  0  0  0  0  0  0  0  0
   -7.3129    1.3083    7.0377 S   0  0  0  0  0  0  0  0  0  0  0  0
   -5.6714    1.0661    1.9905 C   0  0  0  0  0  0  0  0  0  0  0  0
   -5.5289    0.0815    1.0576 C   0  0  0  0  0  0  0  0  0  0  0  0
   -6.2381   -1.4334    1.5826 S   0  0  0  0  0  0  0  0  0  0  0  0
   -4.7572    0.1420   -0.1382 C   0  0  0  0  0  0  0  0  0  0  0  0
   -4.3374   -0.9020   -0.9088 C   0  0  0  0  0  0  0  0  0  0  0  0
   -3.3615   -0.5408   -1.8699 C   0  0  0  0  0  0  0  0  0  0  0  0
   -2.6083   -1.3862   -2.7058 C   0  0  0  0  0  0  0  0  0  0  0  0
   -2.8106   -2.8228   -2.7237 C   0  0  0  0  0  0  0  0  0  0  0  0
   -2.9657   -3.6768   -1.6714 C   0  0  0  0  0  0  0  0  0  0  0  0
   -3.1223   -5.0190   -2.0820 C   0  0  0  0  0  0  0  0  0  0  0  0
   -3.3262   -6.3052   -0.9540 Cl  0  0  0  0  0  0  0  0  0  0  0  0
   -3.1015   -5.2036   -3.4332 C   0  0  0  0  0  0  0  0  0  0  0  0
   -3.1930   -6.4719   -4.2073 C   0  0  0  0  0  0  0  0  0  0  0  0
   -1.8229   -6.8824   -4.7509 C   0  0  0  0  0  0  0  0  0  0  0  0
   -2.8670   -3.6880   -4.2340 S   0  0  0  0  0  0  0  0  0  0  0  0
   -1.6144   -0.7836   -3.4673 C   0  0  0  0  0  0  0  0  0  0  0  0
   -1.3650    0.6102   -3.4636 C   0  0  0  0  0  0  0  0  0  0  0  0
   -2.1381    1.4612   -2.6501 C   0  0  0  0  0  0  0  0  0  0  0  0
   -1.8943    2.8903   -2.5925 C   0  0  0  0  0  0  0  0  0  0  0  0
   -0.7053    3.5532   -2.4854 C   0  0  0  0  0  0  0  0  0  0  0  0
   -0.8500    4.9551   -2.4585 C   0  0  0  0  0  0  0  0  0  0  0  0
   -2.1435    5.3680   -2.5465 C   0  0  0  0  0  0  0  0  0  0  0  0
   -2.6732    6.7598   -2.5947 C   0  0  0  0  0  0  0  0  0  0  0  0
   -3.1462    7.1252   -4.0033 C   0  0  0  0  0  0  0  0  0  0  0  0
   -3.2214    4.0158   -2.6583 S   0  0  0  0  0  0  0  0  0  0  0  0
   -3.1048    0.8523   -1.8613 C   0  0  0  0  0  0  0  0  0  0  0  0
   -4.0472    1.6631   -0.6394 S   0  0  0  0  0  0  0  0  0  0  0  0
   -0.2452    0.9477   -4.2611 C   0  0  0  0  0  0  0  0  0  0  0  0
    0.3919   -0.1359   -4.7938 C   0  0  0  0  0  0  0  0  0  0  0  0
   -0.4332   -1.6339   -4.4242 S   0  0  0  0  0  0  0  0  0  0  0  0
    1.6667   -0.1506   -5.4370 C   0  0  0  0  0  0  0  0  0  0  0  0
    2.4268    0.9237   -5.7982 C   0  0  0  0  0  0  0  0  0  0  0  0
    3.7428    0.5828   -6.1938 C   0  0  0  0  0  0  0  0  0  0  0  0
    4.7861    1.4561   -6.5639 C   0  0  0  0  0  0  0  0  0  0  0  0
    4.5645    2.8718   -6.7751 C   0  0  0  0  0  0  0  0  0  0  0  0
    5.3875    3.9186   -6.4700 C   0  0  0  0  0  0  0  0  0  0  0  0
    4.8609    5.1625   -6.8773 C   0  0  0  0  0  0  0  0  0  0  0  0
    5.6848    6.6491   -6.6025 Cl  0  0  0  0  0  0  0  0  0  0  0  0
    3.6463    5.0901   -7.4952 C   0  0  0  0  0  0  0  0  0  0  0  0
    2.8357    6.1910   -8.0855 C   0  0  0  0  0  0  0  0  0  0  0  0
    3.2687    6.4799   -9.5248 C   0  0  0  0  0  0  0  0  0  0  0  0
    3.1306    3.4430   -7.5882 S   0  0  0  0  0  0  0  0  0  0  0  0
    6.0438    0.8810   -6.7160 C   0  0  0  0  0  0  0  0  0  0  0  0
    6.2795   -0.5111   -6.6020 C   0  0  0  0  0  0  0  0  0  0  0  0
    5.2154   -1.3963   -6.3405 C   0  0  0  0  0  0  0  0  0  0  0  0
    5.3975   -2.8324   -6.3114 C   0  0  0  0  0  0  0  0  0  0  0  0
    4.8238   -3.7501   -5.4760 C   0  0  0  0  0  0  0  0  0  0  0  0
    5.1996   -5.0770   -5.7613 C   0  0  0  0  0  0  0  0  0  0  0  0
    6.0439   -5.1870   -6.8231 C   0  0  0  0  0  0  0  0  0  0  0  0
    6.6732   -6.4121   -7.3903 C   0  0  0  0  0  0  0  0  0  0  0  0
    8.1646   -6.4756   -7.0535 C   0  0  0  0  0  0  0  0  0  0  0  0
    6.4073   -3.6301   -7.4879 S   0  0  0  0  0  0  0  0  0  0  0  0
    3.9759   -0.8111   -6.1025 C   0  0  0  0  0  0  0  0  0  0  0  0
    2.5309   -1.6592   -5.6263 S   0  0  0  0  0  0  0  0  0  0  0  0
    7.6558   -0.8241   -6.7216 C   0  0  0  0  0  0  0  0  0  0  0  0
    8.4490    0.2605   -6.9426 C   0  0  0  0  0  0  0  0  0  0  0  0
    7.5220    1.7438   -7.0474 S   0  0  0  0  0  0  0  0  0  0  0  0
    9.8716    0.2942   -7.0158 C   0  0  0  0  0  0  0  0  0  0  0  0
   10.6737    1.3825   -7.1810 C   0  0  0  0  0  0  0  0  0  0  0  0
   12.0587    1.0806   -7.1426 C   0  0  0  0  0  0  0  0  0  0  0  0
   13.1416    1.9758   -7.2202 C   0  0  0  0  0  0  0  0  0  0  0  0
   12.9220    3.3850   -7.4766 C   0  0  0  0  0  0  0  0  0  0  0  0
   12.0608    3.9469   -8.3755 C   0  0  0  0  0  0  0  0  0  0  0  0
   12.0875    5.3572   -8.3430 C   0  0  0  0  0  0  0  0  0  0  0  0
   11.1028    6.3233   -9.3752 Cl  0  0  0  0  0  0  0  0  0  0  0  0
   12.9580    5.8849   -7.4342 C   0  0  0  0  0  0  0  0  0  0  0  0
   13.1949    7.3154   -7.0969 C   0  0  0  0  0  0  0  0  0  0  0  0
   12.2810    7.7667   -5.9547 C   0  0  0  0  0  0  0  0  0  0  0  0
   13.7725    4.6161   -6.5864 S   0  0  0  0  0  0  0  0  0  0  0  0
   14.4097    1.4336   -7.0377 C   0  0  0  0  0  0  0  0  0  0  0  0
   14.6404    0.0581   -6.8010 C   0  0  0  0  0  0  0  0  0  0  0  0
   13.5595   -0.8391   -6.7304 C   0  0  0  0  0  0  0  0  0  0  0  0
   13.7236   -2.2485   -6.4327 C   0  0  0  0  0  0  0  0  0  0  0  0
   13.0514   -3.3097   -6.9697 C   0  0  0  0  0  0  0  0  0  0  0  0
   13.4116   -4.5463   -6.3976 C   0  0  0  0  0  0  0  0  0  0  0  0
   14.3419   -4.4386   -5.4107 C   0  0  0  0  0  0  0  0  0  0  0  0
   14.9589   -5.5178   -4.5891 C   0  0  0  0  0  0  0  0  0  0  0  0
   16.4680   -5.6096   -4.8170 C   0  0  0  0  0  0  0  0  0  0  0  0
   14.8094   -2.7856   -5.1804 S   0  0  0  0  0  0  0  0  0  0  0  0
   12.2918   -0.2970   -6.9185 C   0  0  0  0  0  0  0  0  0  0  0  0
   10.7930   -1.1832   -6.8187 S   0  0  0  0  0  0  0  0  0  0  0  0
   16.0342   -0.2273   -6.7025 C   0  0  0  0  0  0  0  0  0  0  0  0
   16.8072    0.8675   -6.8467 C   0  0  0  0  0  0  0  0  0  0  0  0
   15.9083    2.3200   -7.1126 S   0  0  0  0  0  0  0  0  0  0  0  0
   -7.4341    0.4425   16.2645 H   0  0  0  0  0  0  0  0  0  0  0  0
   -6.2730    2.9295   16.1525 H   0  0  0  0  0  0  0  0  0  0  0  0
   -4.6224    6.1792   16.1119 H   0  0  0  0  0  0  0  0  0  0  0  0
   -6.0102    5.2181   16.6820 H   0  0  0  0  0  0  0  0  0  0  0  0
   -4.4501    4.4199   16.3372 H   0  0  0  0  0  0  0  0  0  0  0  0
   -5.9051    6.0123   10.4607 H   0  0  0  0  0  0  0  0  0  0  0  0
   -7.3776    5.0168   10.5782 H   0  0  0  0  0  0  0  0  0  0  0  0
   -5.7981    4.2418   10.2820 H   0  0  0  0  0  0  0  0  0  0  0  0
   -7.3111    2.8171   11.2896 H   0  0  0  0  0  0  0  0  0  0  0  0
   -9.8178   -1.8090   12.9522 H   0  0  0  0  0  0  0  0  0  0  0  0
  -11.6939   -2.9125   13.7396 H   0  0  0  0  0  0  0  0  0  0  0  0
  -10.2126   -3.8931   13.9156 H   0  0  0  0  0  0  0  0  0  0  0  0
  -11.8037   -4.6898   13.8006 H   0  0  0  0  0  0  0  0  0  0  0  0
  -11.6003   -5.6558    8.0670 H   0  0  0  0  0  0  0  0  0  0  0  0
  -10.0131   -4.8932    7.8022 H   0  0  0  0  0  0  0  0  0  0  0  0
  -11.5121   -3.9547    7.5477 H   0  0  0  0  0  0  0  0  0  0  0  0
   -9.7488   -2.5572    8.0529 H   0  0  0  0  0  0  0  0  0  0  0  0
   -8.3540   -2.1515    6.7084 H   0  0  0  0  0  0  0  0  0  0  0  0
   -6.9665   -3.6999    5.8875 H   0  0  0  0  0  0  0  0  0  0  0  0
   -9.0494   -6.9937    2.8837 H   0  0  0  0  0  0  0  0  0  0  0  0
   -9.3986   -5.8742    1.5537 H   0  0  0  0  0  0  0  0  0  0  0  0
  -11.5024   -6.7841    2.5112 H   0  0  0  0  0  0  0  0  0  0  0  0
  -11.0578   -6.1698    4.1071 H   0  0  0  0  0  0  0  0  0  0  0  0
  -11.4039   -5.0419    2.7920 H   0  0  0  0  0  0  0  0  0  0  0  0
   -4.0625    2.7255    3.6252 H   0  0  0  0  0  0  0  0  0  0  0  0
   -3.8614    5.2428    4.2062 H   0  0  0  0  0  0  0  0  0  0  0  0
   -7.0032    6.8859    5.3059 H   0  0  0  0  0  0  0  0  0  0  0  0
   -5.2567    7.1724    5.2551 H   0  0  0  0  0  0  0  0  0  0  0  0
   -6.7728    5.8518    7.5640 H   0  0  0  0  0  0  0  0  0  0  0  0
   -6.1718    7.5146    7.5535 H   0  0  0  0  0  0  0  0  0  0  0  0
   -5.0357    6.1604    7.5297 H   0  0  0  0  0  0  0  0  0  0  0  0
   -5.3211    2.0688    1.8259 H   0  0  0  0  0  0  0  0  0  0  0  0
   -4.6950   -1.9047   -0.7630 H   0  0  0  0  0  0  0  0  0  0  0  0
   -2.9259   -3.3785   -0.6401 H   0  0  0  0  0  0  0  0  0  0  0  0
   -3.5804   -7.2540   -3.5517 H   0  0  0  0  0  0  0  0  0  0  0  0
   -3.8872   -6.3424   -5.0407 H   0  0  0  0  0  0  0  0  0  0  0  0
   -1.4341   -6.1108   -5.4113 H   0  0  0  0  0  0  0  0  0  0  0  0
   -1.9031   -7.8124   -5.3076 H   0  0  0  0  0  0  0  0  0  0  0  0
   -1.1201   -7.0247   -3.9338 H   0  0  0  0  0  0  0  0  0  0  0  0
    0.2411    3.0526   -2.3830 H   0  0  0  0  0  0  0  0  0  0  0  0
   -0.0193    5.6332   -2.3710 H   0  0  0  0  0  0  0  0  0  0  0  0
   -1.8843    7.4470   -2.2814 H   0  0  0  0  0  0  0  0  0  0  0  0
   -3.5106    6.8583   -1.8997 H   0  0  0  0  0  0  0  0  0  0  0  0
   -3.9397    6.4518   -4.3191 H   0  0  0  0  0  0  0  0  0  0  0  0
   -3.5254    8.1439   -4.0219 H   0  0  0  0  0  0  0  0  0  0  0  0
   -2.3239    7.0464   -4.7109 H   0  0  0  0  0  0  0  0  0  0  0  0
    0.0948    1.9559   -4.4036 H   0  0  0  0  0  0  0  0  0  0  0  0
    2.0673    1.9336   -5.7412 H   0  0  0  0  0  0  0  0  0  0  0  0
    6.3187    3.8223   -5.9440 H   0  0  0  0  0  0  0  0  0  0  0  0
    1.7806    5.9125   -8.0712 H   0  0  0  0  0  0  0  0  0  0  0  0
    2.9679    7.0904   -7.4798 H   0  0  0  0  0  0  0  0  0  0  0  0
    2.6647    7.2803   -9.9443 H   0  0  0  0  0  0  0  0  0  0  0  0
    4.3126    6.7811   -9.5501 H   0  0  0  0  0  0  0  0  0  0  0  0
    3.1486    5.5921  -10.1411 H   0  0  0  0  0  0  0  0  0  0  0  0
    4.1821   -3.4838   -4.6561 H   0  0  0  0  0  0  0  0  0  0  0  0
    4.8498   -5.9234   -5.1972 H   0  0  0  0  0  0  0  0  0  0  0  0
    6.5516   -6.4196   -8.4764 H   0  0  0  0  0  0  0  0  0  0  0  0
    6.1649   -7.2885   -6.9826 H   0  0  0  0  0  0  0  0  0  0  0  0
    8.6815   -5.6136   -7.4695 H   0  0  0  0  0  0  0  0  0  0  0  0
    8.3092   -6.4774   -5.9754 H   0  0  0  0  0  0  0  0  0  0  0  0
    8.6059   -7.3795   -7.4659 H   0  0  0  0  0  0  0  0  0  0  0  0
    8.0613   -1.8132   -6.6109 H   0  0  0  0  0  0  0  0  0  0  0  0
   10.2800    2.3767   -7.2881 H   0  0  0  0  0  0  0  0  0  0  0  0
   11.4573    3.3840   -9.0635 H   0  0  0  0  0  0  0  0  0  0  0  0
   14.2375    7.4521   -6.8042 H   0  0  0  0  0  0  0  0  0  0  0  0
   12.9983    7.9232   -7.9827 H   0  0  0  0  0  0  0  0  0  0  0  0
   11.2378    7.6574   -6.2411 H   0  0  0  0  0  0  0  0  0  0  0  0
   12.4687    8.8097   -5.7138 H   0  0  0  0  0  0  0  0  0  0  0  0
   12.4620    7.1647   -5.0671 H   0  0  0  0  0  0  0  0  0  0  0  0
   12.3449   -3.2137   -7.7743 H   0  0  0  0  0  0  0  0  0  0  0  0
   12.9879   -5.4855   -6.7071 H   0  0  0  0  0  0  0  0  0  0  0  0
   14.7704   -5.3241   -3.5291 H   0  0  0  0  0  0  0  0  0  0  0  0
   14.4851   -6.4668   -4.8497 H   0  0  0  0  0  0  0  0  0  0  0  0
   16.8906   -6.4184   -4.2262 H   0  0  0  0  0  0  0  0  0  0  0  0
   16.6823   -5.7965   -5.8667 H   0  0  0  0  0  0  0  0  0  0  0  0
   16.9490   -4.6785   -4.5260 H   0  0  0  0  0  0  0  0  0  0  0  0
   16.4305   -1.2129   -6.5441 H   0  0  0  0  0  0  0  0  0  0  0  0
   17.8776    0.9261   -6.8164 H   0  0  0  0  0  0  0  0  0  0  0  0
  1  2  1  0  0  0  0
  2  3  1  0  0  0  0
  3  4  2  0  0  0  0
  4  5  1  0  0  0  0
  5  6  1  0  0  0  0
  6  7  2  0  0  0  0
  7  8  1  0  0  0  0
  8  9  1  0  0  0  0
  7 10  1  0  0  0  0
 10 11  1  0  0  0  0
 11 12  1  0  0  0  0
 10 13  2  0  0  0  0
  3 14  1  0  0  0  0
 14 15  1  0  0  0  0
 15 16  1  0  0  0  0
 16 17  2  0  0  0  0
 17 18  1  0  0  0  0
 18 19  1  0  0  0  0
 19 20  2  0  0  0  0
 20 21  1  0  0  0  0
 21 22  1  0  0  0  0
 20 23  1  0  0  0  0
 23 24  1  0  0  0  0
 24 25  1  0  0  0  0
 23 26  2  0  0  0  0
 16 27  1  0  0  0  0
 27 28  2  0  0  0  0
 28 29  1  0  0  0  0
 29 30  2  0  0  0  0
 30 31  1  0  0  0  0
 31 32  2  0  0  0  0
 32 33  1  0  0  0  0
 33 34  1  0  0  0  0
 33 35  2  0  0  0  0
 35 36  1  0  0  0  0
 36 37  1  0  0  0  0
 35 38  1  0  0  0  0
 30 39  1  0  0  0  0
 39 40  2  0  0  0  0
 40 41  1  0  0  0  0
 41 42  1  0  0  0  0
 42 43  2  0  0  0  0
 43 44  1  0  0  0  0
 44 45  2  0  0  0  0
 45 46  1  0  0  0  0
 46 47  1  0  0  0  0
 45 48  1  0  0  0  0
 41 49  2  0  0  0  0
 49 50  1  0  0  0  0
 40 51  1  0  0  0  0
 51 52  2  0  0  0  0
 52 53  1  0  0  0  0
 52 54  1  0  0  0  0
 54 55  2  0  0  0  0
 55 56  1  0  0  0  0
 56 57  2  0  0  0  0
 57 58  1  0  0  0  0
 58 59  2  0  0  0  0
 59 60  1  0  0  0  0
 60 61  1  0  0  0  0
 60 62  2  0  0  0  0
 62 63  1  0  0  0  0
 63 64  1  0  0  0  0
 62 65  1  0  0  0  0
 57 66  1  0  0  0  0
 66 67  2  0  0  0  0
 67 68  1  0  0  0  0
 68 69  1  0  0  0  0
 69 70  2  0  0  0  0
 70 71  1  0  0  0  0
 71 72  2  0  0  0  0
 72 73  1  0  0  0  0
 73 74  1  0  0  0  0
 72 75  1  0  0  0  0
 68 76  2  0  0  0  0
 76 77  1  0  0  0  0
 67 78  1  0  0  0  0
 78 79  2  0  0  0  0
 79 80  1  0  0  0  0
 79 81  1  0  0  0  0
 81 82  2  0  0  0  0
 82 83  1  0  0  0  0
 83 84  2  0  0  0  0
 84 85  1  0  0  0  0
 85 86  2  0  0  0  0
 86 87  1  0  0  0  0
 87 88  1  0  0  0  0
 87 89  2  0  0  0  0
 89 90  1  0  0  0  0
 90 91  1  0  0  0  0
 89 92  1  0  0  0  0
 84 93  1  0  0  0  0
 93 94  2  0  0  0  0
 94 95  1  0  0  0  0
 95 96  1  0  0  0  0
 96 97  2  0  0  0  0
 97 98  1  0  0  0  0
 98 99  2  0  0  0  0
 99100  1  0  0  0  0
100101  1  0  0  0  0
 99102  1  0  0  0  0
 95103  2  0  0  0  0
103104  1  0  0  0  0
 94105  1  0  0  0  0
105106  2  0  0  0  0
106107  1  0  0  0  0
106108  1  0  0  0  0
108109  2  0  0  0  0
109110  1  0  0  0  0
110111  2  0  0  0  0
111112  1  0  0  0  0
112113  2  0  0  0  0
113114  1  0  0  0  0
114115  1  0  0  0  0
114116  2  0  0  0  0
116117  1  0  0  0  0
117118  1  0  0  0  0
116119  1  0  0  0  0
111120  1  0  0  0  0
120121  2  0  0  0  0
121122  1  0  0  0  0
122123  1  0  0  0  0
123124  2  0  0  0  0
124125  1  0  0  0  0
125126  2  0  0  0  0
126127  1  0  0  0  0
127128  1  0  0  0  0
126129  1  0  0  0  0
122130  2  0  0  0  0
130131  1  0  0  0  0
121132  1  0  0  0  0
132133  2  0  0  0  0
133134  1  0  0  0  0
  5  1  2  0  0  0  0
 18 14  2  0  0  0  0
 50 27  1  0  0  0  0
 77 54  1  0  0  0  0
104 81  1  0  0  0  0
131108  1  0  0  0  0
 13  4  1  0  0  0  0
 26 17  1  0  0  0  0
 49 29  1  0  0  0  0
 76 56  1  0  0  0  0
103 83  1  0  0  0  0
130110  1  0  0  0  0
 38 31  1  0  0  0  0
 53 39  1  0  0  0  0
 65 58  1  0  0  0  0
 80 66  1  0  0  0  0
 92 85  1  0  0  0  0
107 93  1  0  0  0  0
119112  1  0  0  0  0
134120  1  0  0  0  0
 48 42  1  0  0  0  0
 75 69  1  0  0  0  0
102 96  1  0  0  0  0
129123  1  0  0  0  0
  1135  1  0  0  0  0
  6136  1  0  0  0  0
  9137  1  0  0  0  0
  9138  1  0  0  0  0
  9139  1  0  0  0  0
 12140  1  0  0  0  0
 12141  1  0  0  0  0
 12142  1  0  0  0  0
 13143  1  0  0  0  0
 19144  1  0  0  0  0
 22145  1  0  0  0  0
 22146  1  0  0  0  0
 22147  1  0  0  0  0
 25148  1  0  0  0  0
 25149  1  0  0  0  0
 25150  1  0  0  0  0
 26151  1  0  0  0  0
 28152  1  0  0  0  0
 32153  1  0  0  0  0
 36154  1  0  0  0  0
 36155  1  0  0  0  0
 37156  1  0  0  0  0
 37157  1  0  0  0  0
 37158  1  0  0  0  0
 43159  1  0  0  0  0
 44160  1  0  0  0  0
 46161  1  0  0  0  0
 46162  1  0  0  0  0
 47163  1  0  0  0  0
 47164  1  0  0  0  0
 47165  1  0  0  0  0
 51166  1  0  0  0  0
 55167  1  0  0  0  0
 59168  1  0  0  0  0
 63169  1  0  0  0  0
 63170  1  0  0  0  0
 64171  1  0  0  0  0
 64172  1  0  0  0  0
 64173  1  0  0  0  0
 70174  1  0  0  0  0
 71175  1  0  0  0  0
 73176  1  0  0  0  0
 73177  1  0  0  0  0
 74178  1  0  0  0  0
 74179  1  0  0  0  0
 74180  1  0  0  0  0
 78181  1  0  0  0  0
 82182  1  0  0  0  0
 86183  1  0  0  0  0
 90184  1  0  0  0  0
 90185  1  0  0  0  0
 91186  1  0  0  0  0
 91187  1  0  0  0  0
 91188  1  0  0  0  0
 97189  1  0  0  0  0
 98190  1  0  0  0  0
100191  1  0  0  0  0
100192  1  0  0  0  0
101193  1  0  0  0  0
101194  1  0  0  0  0
101195  1  0  0  0  0
105196  1  0  0  0  0
109197  1  0  0  0  0
113198  1  0  0  0  0
117199  1  0  0  0  0
117200  1  0  0  0  0
118201  1  0  0  0  0
118202  1  0  0  0  0
118203  1  0  0  0  0
124204  1  0  0  0  0
125205  1  0  0  0  0
127206  1  0  0  0  0
127207  1  0  0  0  0
128208  1  0  0  0  0
128209  1  0  0  0  0
128210  1  0  0  0  0
132211  1  0  0  0  0
133212  1  0  0  0  0
M  END
