
  xtb     03022205353D
 energy: -412.753207774458 gnorm: 0.000191880324 xtb: 6.4.1 (unknown)
212235  0     0  0            999 V2000
   -1.1731   -8.5331   14.1085 C   0  0  0  0  0  0  0  0  0  0  0  0
   -1.4846   -9.2347   12.5849 S   0  0  0  0  0  0  0  0  0  0  0  0
   -1.6358   -7.6806   11.8147 C   0  0  0  0  0  0  0  0  0  0  0  0
   -1.4381   -6.6579   12.7427 C   0  0  0  0  0  0  0  0  0  0  0  0
   -1.1730   -7.1589   14.0589 C   0  0  0  0  0  0  0  0  0  0  0  0
   -0.9441   -6.2595   15.1307 C   0  0  0  0  0  0  0  0  0  0  0  0
   -0.9658   -4.9162   14.9030 C   0  0  0  0  0  0  0  0  0  0  0  0
   -0.7626   -3.9506   15.8329 O   0  0  0  0  0  0  0  0  0  0  0  0
   -0.5088   -4.3467   17.1574 C   0  0  0  0  0  0  0  0  0  0  0  0
   -1.2163   -4.4089   13.5736 C   0  0  0  0  0  0  0  0  0  0  0  0
   -1.1938   -3.0581   13.4837 O   0  0  0  0  0  0  0  0  0  0  0  0
   -1.4180   -2.4681   12.2262 C   0  0  0  0  0  0  0  0  0  0  0  0
   -1.4473   -5.2617   12.5320 C   0  0  0  0  0  0  0  0  0  0  0  0
   -1.9142   -7.6357   10.4227 C   0  0  0  0  0  0  0  0  0  0  0  0
   -1.9250   -8.6992    9.5600 C   0  0  0  0  0  0  0  0  0  0  0  0
   -2.2249   -8.3578    8.2221 C   0  0  0  0  0  0  0  0  0  0  0  0
   -2.2790   -9.2028    7.0955 C   0  0  0  0  0  0  0  0  0  0  0  0
   -2.0741  -10.6369    7.2153 C   0  0  0  0  0  0  0  0  0  0  0  0
   -3.0222  -11.5873    8.3230 S   0  0  0  0  0  0  0  0  0  0  0  0
   -2.2496  -13.0609    7.8481 C   0  0  0  0  0  0  0  0  0  0  0  0
   -2.6573  -14.3707    8.4264 C   0  0  0  0  0  0  0  0  0  0  0  0
   -3.8250  -14.9752    7.6428 C   0  0  0  0  0  0  0  0  0  0  0  0
   -1.3202  -12.8158    6.8827 C   0  0  0  0  0  0  0  0  0  0  0  0
   -0.3493  -14.0321    6.1582 Cl  0  0  0  0  0  0  0  0  0  0  0  0
   -1.2130  -11.4448    6.5259 C   0  0  0  0  0  0  0  0  0  0  0  0
   -0.0407  -10.8863    5.4068 Cl  0  0  0  0  0  0  0  0  0  0  0  0
   -2.5388   -8.6031    5.8716 C   0  0  0  0  0  0  0  0  0  0  0  0
   -2.7555   -7.2104    5.7283 C   0  0  0  0  0  0  0  0  0  0  0  0
   -2.7381   -6.3693    6.8566 C   0  0  0  0  0  0  0  0  0  0  0  0
   -3.0013   -4.9471    6.7221 C   0  0  0  0  0  0  0  0  0  0  0  0
   -1.9141   -3.7542    7.3736 S   0  0  0  0  0  0  0  0  0  0  0  0
   -2.8598   -2.4406    6.7622 C   0  0  0  0  0  0  0  0  0  0  0  0
   -2.4328   -1.0231    6.9251 C   0  0  0  0  0  0  0  0  0  0  0  0
   -1.7374   -0.5112    5.6608 C   0  0  0  0  0  0  0  0  0  0  0  0
   -3.9518   -2.9143    6.0985 C   0  0  0  0  0  0  0  0  0  0  0  0
   -4.0397   -4.3312    6.0772 C   0  0  0  0  0  0  0  0  0  0  0  0
   -5.3735   -5.1550    5.3753 Cl  0  0  0  0  0  0  0  0  0  0  0  0
   -5.1197   -1.9023    5.3586 Cl  0  0  0  0  0  0  0  0  0  0  0  0
   -2.4456   -6.9670    8.0715 C   0  0  0  0  0  0  0  0  0  0  0  0
   -2.3054   -6.1383    9.5935 S   0  0  0  0  0  0  0  0  0  0  0  0
   -2.9207   -6.8379    4.3809 C   0  0  0  0  0  0  0  0  0  0  0  0
   -2.8782   -7.8846    3.4977 C   0  0  0  0  0  0  0  0  0  0  0  0
   -2.6395   -9.4090    4.3289 S   0  0  0  0  0  0  0  0  0  0  0  0
   -2.9593   -7.7381    2.0899 C   0  0  0  0  0  0  0  0  0  0  0  0
   -3.4046   -6.1712    1.4951 S   0  0  0  0  0  0  0  0  0  0  0  0
   -3.1026   -6.6118   -0.1568 C   0  0  0  0  0  0  0  0  0  0  0  0
   -2.7175   -7.9499   -0.2434 C   0  0  0  0  0  0  0  0  0  0  0  0
   -2.6459   -8.5935    1.0318 C   0  0  0  0  0  0  0  0  0  0  0  0
   -2.2439   -9.9431    1.1080 C   0  0  0  0  0  0  0  0  0  0  0  0
   -1.9301  -10.6294   -0.0321 C   0  0  0  0  0  0  0  0  0  0  0  0
   -1.5255  -11.9189   -0.0790 O   0  0  0  0  0  0  0  0  0  0  0  0
   -1.3930  -12.6204    1.1345 C   0  0  0  0  0  0  0  0  0  0  0  0
   -2.0184   -9.9844   -1.3197 C   0  0  0  0  0  0  0  0  0  0  0  0
   -1.6927  -10.7775   -2.3651 O   0  0  0  0  0  0  0  0  0  0  0  0
   -1.7400  -10.2273   -3.6600 C   0  0  0  0  0  0  0  0  0  0  0  0
   -2.4044   -8.6758   -1.4113 C   0  0  0  0  0  0  0  0  0  0  0  0
   -3.1658   -5.5645   -1.1093 C   0  0  0  0  0  0  0  0  0  0  0  0
   -3.6351   -4.3080   -0.8332 C   0  0  0  0  0  0  0  0  0  0  0  0
   -3.4012   -3.3671   -1.8537 C   0  0  0  0  0  0  0  0  0  0  0  0
   -3.6058   -1.9783   -1.7801 C   0  0  0  0  0  0  0  0  0  0  0  0
   -4.2330   -1.3912   -0.6056 C   0  0  0  0  0  0  0  0  0  0  0  0
   -5.8112   -1.9103   -0.0909 S   0  0  0  0  0  0  0  0  0  0  0  0
   -5.7848   -0.8840    1.3038 C   0  0  0  0  0  0  0  0  0  0  0  0
   -6.9273   -0.8482    2.2588 C   0  0  0  0  0  0  0  0  0  0  0  0
   -7.4556   -2.2459    2.5700 C   0  0  0  0  0  0  0  0  0  0  0  0
   -4.6180   -0.1820    1.3456 C   0  0  0  0  0  0  0  0  0  0  0  0
   -4.2140    0.9321    2.5860 Cl  0  0  0  0  0  0  0  0  0  0  0  0
   -3.7367   -0.4632    0.2660 C   0  0  0  0  0  0  0  0  0  0  0  0
   -2.1777    0.2419    0.1518 Cl  0  0  0  0  0  0  0  0  0  0  0  0
   -3.1083   -1.2205   -2.8269 C   0  0  0  0  0  0  0  0  0  0  0  0
   -2.4392   -1.7869   -3.9419 C   0  0  0  0  0  0  0  0  0  0  0  0
   -2.2643   -3.1832   -4.0290 C   0  0  0  0  0  0  0  0  0  0  0  0
   -1.5304   -3.7815   -5.1307 C   0  0  0  0  0  0  0  0  0  0  0  0
    0.0259   -3.1631   -5.6064 S   0  0  0  0  0  0  0  0  0  0  0  0
    0.2070   -4.3427   -6.8595 C   0  0  0  0  0  0  0  0  0  0  0  0
    1.4100   -4.3459   -7.7376 C   0  0  0  0  0  0  0  0  0  0  0  0
    1.6828   -2.9624   -8.3261 C   0  0  0  0  0  0  0  0  0  0  0  0
   -0.8772   -5.1678   -6.8863 C   0  0  0  0  0  0  0  0  0  0  0  0
   -1.8597   -4.8580   -5.9066 C   0  0  0  0  0  0  0  0  0  0  0  0
   -3.3420   -5.7112   -5.8000 Cl  0  0  0  0  0  0  0  0  0  0  0  0
   -1.0699   -6.4680   -7.9916 Cl  0  0  0  0  0  0  0  0  0  0  0  0
   -2.7445   -3.9419   -2.9700 C   0  0  0  0  0  0  0  0  0  0  0  0
   -2.4804   -5.6490   -2.7223 S   0  0  0  0  0  0  0  0  0  0  0  0
   -1.9556   -0.7873   -4.8192 C   0  0  0  0  0  0  0  0  0  0  0  0
   -2.1991    0.4829   -4.3855 C   0  0  0  0  0  0  0  0  0  0  0  0
   -3.1471    0.5143   -2.9137 S   0  0  0  0  0  0  0  0  0  0  0  0
   -1.6038    1.6885   -4.8519 C   0  0  0  0  0  0  0  0  0  0  0  0
   -1.5993    2.8835   -4.1950 C   0  0  0  0  0  0  0  0  0  0  0  0
   -0.6839    3.8190   -4.7282 C   0  0  0  0  0  0  0  0  0  0  0  0
   -0.3838    5.1019   -4.2375 C   0  0  0  0  0  0  0  0  0  0  0  0
   -1.0209    5.5954   -3.0279 C   0  0  0  0  0  0  0  0  0  0  0  0
   -1.0263    4.6270   -1.5810 S   0  0  0  0  0  0  0  0  0  0  0  0
   -1.9240    5.8099   -0.6927 C   0  0  0  0  0  0  0  0  0  0  0  0
   -2.3362    5.5493    0.7143 C   0  0  0  0  0  0  0  0  0  0  0  0
   -3.2049    4.2948    0.8160 C   0  0  0  0  0  0  0  0  0  0  0  0
   -2.1834    6.8910   -1.4805 C   0  0  0  0  0  0  0  0  0  0  0  0
   -3.0555    8.2744   -0.9584 Cl  0  0  0  0  0  0  0  0  0  0  0  0
   -1.6683    6.7773   -2.8013 C   0  0  0  0  0  0  0  0  0  0  0  0
   -1.9310    7.9784   -3.9949 Cl  0  0  0  0  0  0  0  0  0  0  0  0
    0.5841    5.8231   -4.9236 C   0  0  0  0  0  0  0  0  0  0  0  0
    1.2582    5.3143   -6.0626 C   0  0  0  0  0  0  0  0  0  0  0  0
    0.9672    4.0240   -6.5435 C   0  0  0  0  0  0  0  0  0  0  0  0
    1.6817    3.4653   -7.6797 C   0  0  0  0  0  0  0  0  0  0  0  0
    1.7836    4.3313   -9.1856 S   0  0  0  0  0  0  0  0  0  0  0  0
    2.7130    3.0803   -9.9378 C   0  0  0  0  0  0  0  0  0  0  0  0
    3.2328    3.2382  -11.3235 C   0  0  0  0  0  0  0  0  0  0  0  0
    4.4710    4.1383  -11.3377 C   0  0  0  0  0  0  0  0  0  0  0  0
    2.9246    2.0597   -9.0606 C   0  0  0  0  0  0  0  0  0  0  0  0
    2.3416    2.2713   -7.7817 C   0  0  0  0  0  0  0  0  0  0  0  0
    2.5619    1.1622   -6.4937 Cl  0  0  0  0  0  0  0  0  0  0  0  0
    3.8052    0.6367   -9.4384 Cl  0  0  0  0  0  0  0  0  0  0  0  0
   -0.0048    3.3052   -5.8612 C   0  0  0  0  0  0  0  0  0  0  0  0
   -0.5355    1.6900   -6.2372 S   0  0  0  0  0  0  0  0  0  0  0  0
    2.2607    6.2035   -6.5184 C   0  0  0  0  0  0  0  0  0  0  0  0
    2.3664    7.3375   -5.7692 C   0  0  0  0  0  0  0  0  0  0  0  0
    1.2080    7.3790   -4.4580 S   0  0  0  0  0  0  0  0  0  0  0  0
    3.3015    8.3994   -5.9402 C   0  0  0  0  0  0  0  0  0  0  0  0
    3.4991    9.4790   -5.1329 C   0  0  0  0  0  0  0  0  0  0  0  0
    4.5444   10.3292   -5.5726 C   0  0  0  0  0  0  0  0  0  0  0  0
    4.9995   11.5201   -4.9843 C   0  0  0  0  0  0  0  0  0  0  0  0
    4.3896   12.0460   -3.7737 C   0  0  0  0  0  0  0  0  0  0  0  0
    2.6766   12.3326   -3.6751 S   0  0  0  0  0  0  0  0  0  0  0  0
    2.7869   12.9179   -2.0510 C   0  0  0  0  0  0  0  0  0  0  0  0
    1.5859   13.4133   -1.3242 C   0  0  0  0  0  0  0  0  0  0  0  0
    1.3387   14.8943   -1.6212 C   0  0  0  0  0  0  0  0  0  0  0  0
    4.0818   12.8933   -1.6267 C   0  0  0  0  0  0  0  0  0  0  0  0
    4.5858   13.3969   -0.0659 Cl  0  0  0  0  0  0  0  0  0  0  0  0
    4.9926   12.3971   -2.5978 C   0  0  0  0  0  0  0  0  0  0  0  0
    6.6605   12.1855   -2.2673 Cl  0  0  0  0  0  0  0  0  0  0  0  0
    6.0460   12.1777   -5.6211 C   0  0  0  0  0  0  0  0  0  0  0  0
    6.6613   11.6894   -6.7989 C   0  0  0  0  0  0  0  0  0  0  0  0
    6.2236   10.4854   -7.3727 C   0  0  0  0  0  0  0  0  0  0  0  0
    6.8266    9.9461   -8.5818 C   0  0  0  0  0  0  0  0  0  0  0  0
    6.9473   10.8973  -10.0332 S   0  0  0  0  0  0  0  0  0  0  0  0
    7.6606    9.5963  -10.9239 C   0  0  0  0  0  0  0  0  0  0  0  0
    8.1003    9.7737  -12.3351 C   0  0  0  0  0  0  0  0  0  0  0  0
    9.5134   10.3590  -12.3948 C   0  0  0  0  0  0  0  0  0  0  0  0
    7.7998    8.5001  -10.1268 C   0  0  0  0  0  0  0  0  0  0  0  0
    7.3251    8.6919   -8.8012 C   0  0  0  0  0  0  0  0  0  0  0  0
    7.4641    7.4796   -7.5978 Cl  0  0  0  0  0  0  0  0  0  0  0  0
    8.4720    7.0125  -10.6556 Cl  0  0  0  0  0  0  0  0  0  0  0  0
    5.1656    9.8374   -6.7471 C   0  0  0  0  0  0  0  0  0  0  0  0
    4.4055    8.3734   -7.2989 S   0  0  0  0  0  0  0  0  0  0  0  0
    7.7020   12.5557   -7.2437 C   0  0  0  0  0  0  0  0  0  0  0  0
    7.8409   13.6487   -6.4656 C   0  0  0  0  0  0  0  0  0  0  0  0
    6.7381   13.6990   -5.1364 S   0  0  0  0  0  0  0  0  0  0  0  0
   -1.0046   -9.1632   14.9587 H   0  0  0  0  0  0  0  0  0  0  0  0
   -0.7536   -6.6707   16.1084 H   0  0  0  0  0  0  0  0  0  0  0  0
   -0.3787   -3.4245   17.7210 H   0  0  0  0  0  0  0  0  0  0  0  0
    0.4038   -4.9478   17.2289 H   0  0  0  0  0  0  0  0  0  0  0  0
   -1.3483   -4.9125   17.5749 H   0  0  0  0  0  0  0  0  0  0  0  0
   -0.6617   -2.7757   11.4967 H   0  0  0  0  0  0  0  0  0  0  0  0
   -2.4117   -2.7141   11.8381 H   0  0  0  0  0  0  0  0  0  0  0  0
   -1.3480   -1.3942   12.3906 H   0  0  0  0  0  0  0  0  0  0  0  0
   -1.6292   -4.8814   11.5426 H   0  0  0  0  0  0  0  0  0  0  0  0
   -1.7024   -9.7000    9.8834 H   0  0  0  0  0  0  0  0  0  0  0  0
   -1.8036  -15.0503    8.3908 H   0  0  0  0  0  0  0  0  0  0  0  0
   -2.9515  -14.2306    9.4678 H   0  0  0  0  0  0  0  0  0  0  0  0
   -4.6842  -14.3094    7.6729 H   0  0  0  0  0  0  0  0  0  0  0  0
   -4.1083  -15.9315    8.0738 H   0  0  0  0  0  0  0  0  0  0  0  0
   -3.5414  -15.1304    6.6049 H   0  0  0  0  0  0  0  0  0  0  0  0
   -1.7535   -0.9476    7.7753 H   0  0  0  0  0  0  0  0  0  0  0  0
   -3.3137   -0.4085    7.1248 H   0  0  0  0  0  0  0  0  0  0  0  0
   -0.8589   -1.1132    5.4413 H   0  0  0  0  0  0  0  0  0  0  0  0
   -2.4131   -0.5595    4.8110 H   0  0  0  0  0  0  0  0  0  0  0  0
   -1.4278    0.5212    5.7984 H   0  0  0  0  0  0  0  0  0  0  0  0
   -3.0204   -5.8191    4.0545 H   0  0  0  0  0  0  0  0  0  0  0  0
   -2.1880  -10.4130    2.0748 H   0  0  0  0  0  0  0  0  0  0  0  0
   -2.3504  -12.6984    1.6595 H   0  0  0  0  0  0  0  0  0  0  0  0
   -0.6586  -12.1473    1.7938 H   0  0  0  0  0  0  0  0  0  0  0  0
   -1.0472  -13.6158    0.8618 H   0  0  0  0  0  0  0  0  0  0  0  0
   -2.7519   -9.9018   -3.9209 H   0  0  0  0  0  0  0  0  0  0  0  0
   -1.0522   -9.3819   -3.7623 H   0  0  0  0  0  0  0  0  0  0  0  0
   -1.4332  -11.0280   -4.3305 H   0  0  0  0  0  0  0  0  0  0  0  0
   -2.4794   -8.1790   -2.3636 H   0  0  0  0  0  0  0  0  0  0  0  0
   -4.0918   -4.0616    0.1079 H   0  0  0  0  0  0  0  0  0  0  0  0
   -6.5915   -0.3591    3.1754 H   0  0  0  0  0  0  0  0  0  0  0  0
   -7.7347   -0.2439    1.8332 H   0  0  0  0  0  0  0  0  0  0  0  0
   -7.8166   -2.7254    1.6628 H   0  0  0  0  0  0  0  0  0  0  0  0
   -6.6695   -2.8629    2.9976 H   0  0  0  0  0  0  0  0  0  0  0  0
   -8.2740   -2.1857    3.2825 H   0  0  0  0  0  0  0  0  0  0  0  0
    1.2491   -5.0715   -8.5371 H   0  0  0  0  0  0  0  0  0  0  0  0
    2.2807   -4.6672   -7.1585 H   0  0  0  0  0  0  0  0  0  0  0  0
    2.5534   -2.9968   -8.9755 H   0  0  0  0  0  0  0  0  0  0  0  0
    0.8295   -2.6209   -8.9073 H   0  0  0  0  0  0  0  0  0  0  0  0
    1.8702   -2.2426   -7.5324 H   0  0  0  0  0  0  0  0  0  0  0  0
   -1.3997   -0.9847   -5.7172 H   0  0  0  0  0  0  0  0  0  0  0  0
   -2.2097    3.0608   -3.3290 H   0  0  0  0  0  0  0  0  0  0  0  0
   -2.8862    6.4181    1.0796 H   0  0  0  0  0  0  0  0  0  0  0  0
   -1.4463    5.4195    1.3359 H   0  0  0  0  0  0  0  0  0  0  0  0
   -3.5025    4.1282    1.8478 H   0  0  0  0  0  0  0  0  0  0  0  0
   -4.1008    4.4023    0.2092 H   0  0  0  0  0  0  0  0  0  0  0  0
   -2.6545    3.4234    0.4689 H   0  0  0  0  0  0  0  0  0  0  0  0
    2.4590    3.6770  -11.9562 H   0  0  0  0  0  0  0  0  0  0  0  0
    3.4889    2.2524  -11.7154 H   0  0  0  0  0  0  0  0  0  0  0  0
    5.2557    3.7108  -10.7185 H   0  0  0  0  0  0  0  0  0  0  0  0
    4.8461    4.2422  -12.3521 H   0  0  0  0  0  0  0  0  0  0  0  0
    4.2250    5.1256  -10.9533 H   0  0  0  0  0  0  0  0  0  0  0  0
    2.9022    6.0075   -7.3582 H   0  0  0  0  0  0  0  0  0  0  0  0
    2.9172    9.6503   -4.2455 H   0  0  0  0  0  0  0  0  0  0  0  0
    1.7445   13.2777   -0.2527 H   0  0  0  0  0  0  0  0  0  0  0  0
    0.7140   12.8309   -1.6264 H   0  0  0  0  0  0  0  0  0  0  0  0
    1.1764   15.0437   -2.6860 H   0  0  0  0  0  0  0  0  0  0  0  0
    0.4614   15.2412   -1.0819 H   0  0  0  0  0  0  0  0  0  0  0  0
    2.1954   15.4882   -1.3131 H   0  0  0  0  0  0  0  0  0  0  0  0
    8.0865    8.8013  -12.8307 H   0  0  0  0  0  0  0  0  0  0  0  0
    7.4080   10.4411  -12.8509 H   0  0  0  0  0  0  0  0  0  0  0  0
    9.5399   11.3314  -11.9087 H   0  0  0  0  0  0  0  0  0  0  0  0
    9.8257   10.4772  -13.4288 H   0  0  0  0  0  0  0  0  0  0  0  0
   10.2157    9.6991  -11.8918 H   0  0  0  0  0  0  0  0  0  0  0  0
    8.3099   12.3583   -8.1071 H   0  0  0  0  0  0  0  0  0  0  0  0
    8.5416   14.4526   -6.5798 H   0  0  0  0  0  0  0  0  0  0  0  0
  1  2  1  0  0  0  0
  2  3  1  0  0  0  0
  3  4  2  0  0  0  0
  4  5  1  0  0  0  0
  5  6  1  0  0  0  0
  6  7  2  0  0  0  0
  7  8  1  0  0  0  0
  8  9  1  0  0  0  0
  7 10  1  0  0  0  0
 10 11  1  0  0  0  0
 11 12  1  0  0  0  0
 10 13  2  0  0  0  0
  3 14  1  0  0  0  0
 14 15  2  0  0  0  0
 15 16  1  0  0  0  0
 16 17  2  0  0  0  0
 17 18  1  0  0  0  0
 18 19  1  0  0  0  0
 19 20  1  0  0  0  0
 20 21  1  0  0  0  0
 21 22  1  0  0  0  0
 20 23  2  0  0  0  0
 23 24  1  0  0  0  0
 23 25  1  0  0  0  0
 25 26  1  0  0  0  0
 17 27  1  0  0  0  0
 27 28  2  0  0  0  0
 28 29  1  0  0  0  0
 29 30  1  0  0  0  0
 30 31  1  0  0  0  0
 31 32  1  0  0  0  0
 32 33  1  0  0  0  0
 33 34  1  0  0  0  0
 32 35  2  0  0  0  0
 35 36  1  0  0  0  0
 36 37  1  0  0  0  0
 35 38  1  0  0  0  0
 29 39  2  0  0  0  0
 39 40  1  0  0  0  0
 28 41  1  0  0  0  0
 41 42  2  0  0  0  0
 42 43  1  0  0  0  0
 42 44  1  0  0  0  0
 44 45  1  0  0  0  0
 45 46  1  0  0  0  0
 46 47  2  0  0  0  0
 47 48  1  0  0  0  0
 48 49  1  0  0  0  0
 49 50  2  0  0  0  0
 50 51  1  0  0  0  0
 51 52  1  0  0  0  0
 50 53  1  0  0  0  0
 53 54  1  0  0  0  0
 54 55  1  0  0  0  0
 53 56  2  0  0  0  0
 46 57  1  0  0  0  0
 57 58  2  0  0  0  0
 58 59  1  0  0  0  0
 59 60  2  0  0  0  0
 60 61  1  0  0  0  0
 61 62  1  0  0  0  0
 62 63  1  0  0  0  0
 63 64  1  0  0  0  0
 64 65  1  0  0  0  0
 63 66  2  0  0  0  0
 66 67  1  0  0  0  0
 66 68  1  0  0  0  0
 68 69  1  0  0  0  0
 60 70  1  0  0  0  0
 70 71  2  0  0  0  0
 71 72  1  0  0  0  0
 72 73  1  0  0  0  0
 73 74  1  0  0  0  0
 74 75  1  0  0  0  0
 75 76  1  0  0  0  0
 76 77  1  0  0  0  0
 75 78  2  0  0  0  0
 78 79  1  0  0  0  0
 79 80  1  0  0  0  0
 78 81  1  0  0  0  0
 72 82  2  0  0  0  0
 82 83  1  0  0  0  0
 71 84  1  0  0  0  0
 84 85  2  0  0  0  0
 85 86  1  0  0  0  0
 85 87  1  0  0  0  0
 87 88  2  0  0  0  0
 88 89  1  0  0  0  0
 89 90  2  0  0  0  0
 90 91  1  0  0  0  0
 91 92  1  0  0  0  0
 92 93  1  0  0  0  0
 93 94  1  0  0  0  0
 94 95  1  0  0  0  0
 93 96  2  0  0  0  0
 96 97  1  0  0  0  0
 96 98  1  0  0  0  0
 98 99  1  0  0  0  0
 90100  1  0  0  0  0
100101  2  0  0  0  0
101102  1  0  0  0  0
102103  1  0  0  0  0
103104  1  0  0  0  0
104105  1  0  0  0  0
105106  1  0  0  0  0
106107  1  0  0  0  0
105108  2  0  0  0  0
108109  1  0  0  0  0
109110  1  0  0  0  0
108111  1  0  0  0  0
102112  2  0  0  0  0
112113  1  0  0  0  0
101114  1  0  0  0  0
114115  2  0  0  0  0
115116  1  0  0  0  0
115117  1  0  0  0  0
117118  2  0  0  0  0
118119  1  0  0  0  0
119120  2  0  0  0  0
120121  1  0  0  0  0
121122  1  0  0  0  0
122123  1  0  0  0  0
123124  1  0  0  0  0
124125  1  0  0  0  0
123126  2  0  0  0  0
126127  1  0  0  0  0
126128  1  0  0  0  0
128129  1  0  0  0  0
120130  1  0  0  0  0
130131  2  0  0  0  0
131132  1  0  0  0  0
132133  1  0  0  0  0
133134  1  0  0  0  0
134135  1  0  0  0  0
135136  1  0  0  0  0
136137  1  0  0  0  0
135138  2  0  0  0  0
138139  1  0  0  0  0
139140  1  0  0  0  0
138141  1  0  0  0  0
132142  2  0  0  0  0
142143  1  0  0  0  0
131144  1  0  0  0  0
144145  2  0  0  0  0
145146  1  0  0  0  0
  5  1  2  0  0  0  0
 40 14  1  0  0  0  0
 48 44  2  0  0  0  0
 83 57  1  0  0  0  0
113 87  1  0  0  0  0
143117  1  0  0  0  0
 13  4  1  0  0  0  0
 39 16  1  0  0  0  0
 56 47  1  0  0  0  0
 82 59  1  0  0  0  0
112 89  1  0  0  0  0
142119  1  0  0  0  0
 25 18  2  0  0  0  0
 43 27  1  0  0  0  0
 68 61  2  0  0  0  0
 86 70  1  0  0  0  0
 98 91  2  0  0  0  0
116100  1  0  0  0  0
128121  2  0  0  0  0
146130  1  0  0  0  0
 36 30  2  0  0  0  0
 79 73  2  0  0  0  0
109103  2  0  0  0  0
139133  2  0  0  0  0
  1147  1  0  0  0  0
  6148  1  0  0  0  0
  9149  1  0  0  0  0
  9150  1  0  0  0  0
  9151  1  0  0  0  0
 12152  1  0  0  0  0
 12153  1  0  0  0  0
 12154  1  0  0  0  0
 13155  1  0  0  0  0
 15156  1  0  0  0  0
 21157  1  0  0  0  0
 21158  1  0  0  0  0
 22159  1  0  0  0  0
 22160  1  0  0  0  0
 22161  1  0  0  0  0
 33162  1  0  0  0  0
 33163  1  0  0  0  0
 34164  1  0  0  0  0
 34165  1  0  0  0  0
 34166  1  0  0  0  0
 41167  1  0  0  0  0
 49168  1  0  0  0  0
 52169  1  0  0  0  0
 52170  1  0  0  0  0
 52171  1  0  0  0  0
 55172  1  0  0  0  0
 55173  1  0  0  0  0
 55174  1  0  0  0  0
 56175  1  0  0  0  0
 58176  1  0  0  0  0
 64177  1  0  0  0  0
 64178  1  0  0  0  0
 65179  1  0  0  0  0
 65180  1  0  0  0  0
 65181  1  0  0  0  0
 76182  1  0  0  0  0
 76183  1  0  0  0  0
 77184  1  0  0  0  0
 77185  1  0  0  0  0
 77186  1  0  0  0  0
 84187  1  0  0  0  0
 88188  1  0  0  0  0
 94189  1  0  0  0  0
 94190  1  0  0  0  0
 95191  1  0  0  0  0
 95192  1  0  0  0  0
 95193  1  0  0  0  0
106194  1  0  0  0  0
106195  1  0  0  0  0
107196  1  0  0  0  0
107197  1  0  0  0  0
107198  1  0  0  0  0
114199  1  0  0  0  0
118200  1  0  0  0  0
124201  1  0  0  0  0
124202  1  0  0  0  0
125203  1  0  0  0  0
125204  1  0  0  0  0
125205  1  0  0  0  0
136206  1  0  0  0  0
136207  1  0  0  0  0
137208  1  0  0  0  0
137209  1  0  0  0  0
137210  1  0  0  0  0
144211  1  0  0  0  0
145212  1  0  0  0  0
M  END
