88

C          9.34710        3.14220        0.00170
S          8.07610        2.34660        0.85360
C          7.00610        2.30850       -0.52820
C          7.63600        2.92900       -1.61020
C          8.96510        3.38290       -1.28450
N          9.48630        3.99400       -2.38590
C          8.52530        3.97020       -3.36960
N          8.78850        4.53280       -4.62390
O          7.92370        4.45230       -5.47940
O          9.88220        5.06150       -4.77160
C          7.37830        3.33900       -2.93400
C          5.72470        1.73180       -0.41560
S          4.94150        1.69420        1.13620
C          3.49490        0.96100        0.49420
C          3.64240        0.72200       -0.88490
C          4.90680        1.13990       -1.38980
C          5.24760        0.86660       -2.72920
C          4.34170        0.26680       -3.56330
O          4.55420       -0.03950       -4.85870
C          5.79120        0.29840       -5.44280
C          3.03950       -0.10080       -3.06970
O          2.23380       -0.67130       -3.98510
C          0.94690       -1.09030       -3.59090
C          2.71730        0.11530       -1.75430
C          2.42000        0.70050        1.35560
S          0.88480        0.02840        0.83710
C          0.17070        0.03950        2.43670
C          1.10780        0.53880        3.35420
C          2.34170        0.90630        2.73200
N          3.18980        1.35000        3.69420
C          2.54360        1.25480        4.89950
N          3.20920        1.63020        6.07910
O          4.35200        2.04130        5.94940
O          2.61340        1.51920        7.13140
C          1.26480        0.76150        4.73780
C         -1.13670       -0.43240        2.58270
S         -1.89180       -1.27540        1.23180
C         -3.40000       -1.55850        2.07260
C         -3.31660       -0.99980        3.35450
C         -2.05950       -0.37630        3.62400
N         -2.11830        0.15680        4.86950
C         -3.36300       -0.11200        5.38800
N         -3.68690        0.34960        6.67520
O         -4.78810        0.09130        7.11660
O         -2.82000        0.98590        7.25420
C         -4.12960       -0.82700        4.49200
C         -4.44930       -2.24470        1.46070
S         -5.97280       -2.58110        2.26310
C         -6.65330       -3.43280        0.89660
C         -5.72020       -3.46410       -0.15040
C         -4.50470       -2.79100        0.18220
N         -3.65320       -2.88820       -0.86700
C         -4.27850       -3.61870       -1.84570
N         -3.59850       -3.88020       -3.04820
O         -4.16180       -4.54080       -3.89540
O         -2.47290       -3.41240       -3.14410
C         -5.54550       -3.99540       -1.44870
C         -7.95670       -3.95940        0.98560
S         -8.73140       -4.15860        2.55150
C        -10.17320       -4.79750        1.89160
C        -10.10100       -4.86010        0.51860
C         -8.84480       -4.38200        0.00730
N         -8.89590       -4.44250       -1.34760
C        -10.12880       -4.94160       -1.70260
N        -10.43630       -5.09010       -3.07070
O        -11.52070       -5.54300       -3.36780
O         -9.57130       -4.74090       -3.85700
C        -10.89750       -5.22000       -0.59820
H         10.26240        3.37520        0.50420
H         10.38800        4.42700       -2.50220
H          6.47810        3.24060       -3.50470
H          6.24020        1.10320       -3.06700
H          6.62230       -0.21100       -4.94520
H          5.96320        1.37890       -5.42720
H          5.72810       -0.03900       -6.47540
H          0.34310       -0.24850       -3.23870
H          0.48880       -1.51710       -4.48060
H          0.99450       -1.85480       -2.80990
H          1.75740       -0.18760       -1.37590
H          4.13870        1.67800        3.59920
H          0.58700        0.57140        5.54400
H         -1.43540        0.71530        5.35710
H         -5.13360       -1.16310        4.64940
H         -2.71690       -2.52450       -0.95680
H         -6.20460       -4.60560       -2.03070
H        -10.97880       -5.08030        2.53730
H         -8.22270       -4.12330       -2.02650
H        -11.89100       -5.61790       -0.60190
