120

C         10.49240       -0.99910       -1.86110
S          9.10890       -1.83310       -2.43980
C          8.08580       -1.08600       -1.23330
C          8.83870       -0.23880       -0.43730
C         10.20540       -0.19500       -0.80210
C         11.20850        0.64470       -0.07320
C         10.51260        1.75890        0.70200
C          9.41400        1.14250        1.56990
N          8.85170        2.20580        2.43160
O          8.15290        3.03910        1.90500
O          9.14050        2.18000        3.60310
C          8.29930        0.56930        0.69950
C          6.68480       -1.33010       -1.19220
S          5.64200       -0.22970       -0.34350
C          4.18730       -1.08520       -0.75340
C          4.51660       -2.21090       -1.53130
C          5.91760       -2.34440       -1.77640
C          6.39070       -3.44650       -2.52140
C          5.52000       -4.36870       -3.02920
O          5.86590       -5.45580       -3.75880
C          7.22840       -5.66590       -4.03810
C          4.11010       -4.23280       -2.78870
O          3.34740       -5.20880       -3.33620
C          1.95260       -5.14250       -3.16750
C          3.63790       -3.18560       -2.04660
C          2.92850       -0.59330       -0.34020
S          1.46310       -1.21670       -1.04080
C          0.43030       -0.14320       -0.14490
C          1.20840        0.68440        0.67250
C          2.60960        0.43030        0.57250
C          3.49310        1.17100        1.38570
C          3.02580        2.14470        2.22600
O          3.78450        2.89930        3.05060
C          5.17850        2.70140        3.05970
C          1.61940        2.43920        2.27540
O          1.28300        3.44700        3.11380
C         -0.07570        3.78560        3.23980
C          0.74420        1.71640        1.51540
C         -0.97800       -0.26860       -0.24740
S         -2.02610        0.32090        1.02890
C         -3.47160       -0.28080        0.24770
C         -3.11990       -0.92720       -0.91650
C         -1.74180       -0.90430       -1.20760
C         -1.32520       -1.48900       -2.51750
C         -2.25940       -0.99190       -3.63440
C         -3.74680       -1.06420       -3.27720
N         -4.51460       -1.91880       -4.21520
O         -5.68910       -1.65800       -4.33090
O         -3.94730       -2.83670       -4.75320
C         -3.98000       -1.67070       -1.88240
C         -4.77320       -0.01160        0.77380
S         -6.12380        0.11840       -0.32100
C         -7.24230        0.42150        0.97600
C         -6.57580        0.43400        2.18620
C         -5.18660        0.21380        2.07140
C         -4.28260        0.17790        3.26540
C         -4.96330        0.74620        4.50570
C         -6.35600        0.13610        4.64810
N         -6.92760        0.57860        5.94000
O         -7.06770       -0.25960        6.79690
O         -7.19170        1.75040        6.05600
C         -7.24860        0.61950        3.50960
C         -8.62370        0.64870        0.68810
S         -9.65080        1.46370        1.84440
C        -10.98280        1.40110        0.77150
C        -10.67550        0.78700       -0.40400
C         -9.32820        0.35360       -0.46240
C         -8.78210       -0.33730       -1.67130
C         -9.89690       -0.85050       -2.57840
C        -10.92200        0.25820       -2.81970
N        -11.89800       -0.22180       -3.82410
O        -11.87700        0.30310       -4.91020
O        -12.63670       -1.11760       -3.49320
C        -11.65260        0.57570       -1.51810
H         11.43930       -1.15840       -2.33610
H         11.92260        1.06940       -0.78030
H         11.77090        0.01230        0.62110
H         10.06010        2.47420        0.01230
H         11.23660        2.28650        1.32600
H          9.83990        0.38820        2.23800
H          7.63040       -0.04440        1.31010
H          7.71250        1.40670        0.30410
H          7.44920       -3.55580       -2.67340
H          7.26830       -6.57500       -4.63550
H          7.65400       -4.83450       -4.60930
H          7.80920       -5.80800       -3.12090
H          1.54090       -4.21990       -3.58970
H          1.55130       -5.99870       -3.70680
H          1.67120       -5.21340       -2.11170
H          2.58670       -3.10860       -1.83900
H          4.54540        0.95800        1.35430
H          5.57190        3.40590        3.78960
H          5.62430        2.91300        2.08330
H          5.43540        1.68220        3.36720
H         -0.49270        4.13580        2.28990
H         -0.66770        2.93910        3.60360
H         -0.11080        4.59280        3.96920
H         -0.30840        1.93570        1.53690
H         -1.36800       -2.58030       -2.46010
H         -0.30370       -1.21110       -2.77040
H         -2.00190        0.04230       -3.86590
H         -2.07850       -1.59460       -4.52660
H         -4.22440       -0.08100       -3.30890
H         -5.03630       -1.63190       -1.62620
H         -3.66220       -2.71860       -1.89830
H         -3.37910        0.75390        3.06450
H         -3.97410       -0.85620        3.44860
H         -5.06440        1.82980        4.41840
H         -4.35750        0.52630        5.38690
H         -6.29780       -0.95570        4.68340
H         -7.47180        1.68010        3.67020
H         -8.19840        0.07820        3.52130
H        -11.92330        1.81580        1.07460
H         -8.14920        0.35840       -2.23150
H         -8.15020       -1.17700       -1.37510
H         -9.46260       -1.18200       -3.52320
H        -10.40280       -1.69910       -2.11340
H        -10.43910        1.14360       -3.24300
H        -12.30640       -0.26920       -1.27590
H        -12.28260        1.46120       -1.63280
