
  xtb     03032203103D
 energy: -256.802078441696 gnorm: 0.000217150382 xtb: 6.4.1 (unknown)
148159  0     0  0            999 V2000
   -2.5436    1.7944   11.0502 C   0  0  0  0  0  0  0  0  0  0  0  0
   -3.7506    1.5222    9.8574 S   0  0  0  0  0  0  0  0  0  0  0  0
   -2.5865    1.1020    8.6328 C   0  0  0  0  0  0  0  0  0  0  0  0
   -1.3069    1.1504    9.1813 C   0  0  0  0  0  0  0  0  0  0  0  0
   -1.2893    1.5654   10.5505 C   0  0  0  0  0  0  0  0  0  0  0  0
   -0.1074    1.7153   11.2171 N   0  0  0  0  0  0  0  0  0  0  0  0
    0.9687    1.3922   10.5702 C   0  0  0  0  0  0  0  0  0  0  0  0
    2.1746    1.5040   11.1223 O   0  0  0  0  0  0  0  0  0  0  0  0
    2.2326    2.0203   12.4481 C   0  0  0  0  0  0  0  0  0  0  0  0
    2.0508    3.5317   12.4835 C   0  0  0  0  0  0  0  0  0  0  0  0
    0.9303    0.8335    9.2195 C   0  0  0  0  0  0  0  0  0  0  0  0
    2.0821    0.3518    8.7538 O   0  0  0  0  0  0  0  0  0  0  0  0
    2.0377   -0.4777    7.5961 C   0  0  0  0  0  0  0  0  0  0  0  0
    2.0465    0.3070    6.2935 C   0  0  0  0  0  0  0  0  0  0  0  0
   -0.1776    0.7539    8.5458 N   0  0  0  0  0  0  0  0  0  0  0  0
   -2.8837    0.8282    7.2827 C   0  0  0  0  0  0  0  0  0  0  0  0
   -1.6181    1.0464    6.1165 S   0  0  0  0  0  0  0  0  0  0  0  0
   -2.6432    0.5575    4.7999 C   0  0  0  0  0  0  0  0  0  0  0  0
   -3.9309    0.2379    5.2610 C   0  0  0  0  0  0  0  0  0  0  0  0
   -4.0716    0.4132    6.6664 C   0  0  0  0  0  0  0  0  0  0  0  0
   -5.3079    0.1414    7.2850 C   0  0  0  0  0  0  0  0  0  0  0  0
   -6.3745   -0.2634    6.5290 C   0  0  0  0  0  0  0  0  0  0  0  0
   -7.6105   -0.5521    7.0087 O   0  0  0  0  0  0  0  0  0  0  0  0
   -7.8301   -0.4337    8.3926 C   0  0  0  0  0  0  0  0  0  0  0  0
   -6.2415   -0.4068    5.1054 C   0  0  0  0  0  0  0  0  0  0  0  0
   -7.3833   -0.7813    4.4745 O   0  0  0  0  0  0  0  0  0  0  0  0
   -7.3673   -0.8781    3.0722 C   0  0  0  0  0  0  0  0  0  0  0  0
   -5.0383   -0.1711    4.4942 C   0  0  0  0  0  0  0  0  0  0  0  0
   -2.0835    0.5316    3.5155 C   0  0  0  0  0  0  0  0  0  0  0  0
   -2.7153   -0.3289    2.1268 S   0  0  0  0  0  0  0  0  0  0  0  0
   -1.3539    0.0957    1.1305 C   0  0  0  0  0  0  0  0  0  0  0  0
   -0.4654    0.9007    1.8453 C   0  0  0  0  0  0  0  0  0  0  0  0
   -0.8736    1.1502    3.1739 C   0  0  0  0  0  0  0  0  0  0  0  0
   -0.1597    1.9710    3.9798 N   0  0  0  0  0  0  0  0  0  0  0  0
    0.9316    2.4800    3.4826 C   0  0  0  0  0  0  0  0  0  0  0  0
    1.6684    3.3431    4.1756 O   0  0  0  0  0  0  0  0  0  0  0  0
    1.1284    3.8014    5.4144 C   0  0  0  0  0  0  0  0  0  0  0  0
    2.2191    4.5508    6.1573 C   0  0  0  0  0  0  0  0  0  0  0  0
    1.3868    2.1610    2.1353 C   0  0  0  0  0  0  0  0  0  0  0  0
    2.5247    2.7172    1.7347 O   0  0  0  0  0  0  0  0  0  0  0  0
    2.9420    2.4438    0.3972 C   0  0  0  0  0  0  0  0  0  0  0  0
    3.5757    1.0673    0.2574 C   0  0  0  0  0  0  0  0  0  0  0  0
    0.6858    1.4001    1.3439 N   0  0  0  0  0  0  0  0  0  0  0  0
   -1.1674   -0.3381   -0.1807 C   0  0  0  0  0  0  0  0  0  0  0  0
    0.2527    0.1049   -1.0740 S   0  0  0  0  0  0  0  0  0  0  0  0
   -0.2178   -0.8438   -2.4694 C   0  0  0  0  0  0  0  0  0  0  0  0
   -1.4629   -1.4434   -2.2451 C   0  0  0  0  0  0  0  0  0  0  0  0
   -1.9830   -1.1691   -0.9513 C   0  0  0  0  0  0  0  0  0  0  0  0
   -3.1554   -1.6885   -0.5226 N   0  0  0  0  0  0  0  0  0  0  0  0
   -3.8077   -2.4329   -1.3689 C   0  0  0  0  0  0  0  0  0  0  0  0
   -4.9676   -3.0008   -1.0403 O   0  0  0  0  0  0  0  0  0  0  0  0
   -5.4252   -2.7906    0.2910 C   0  0  0  0  0  0  0  0  0  0  0  0
   -4.6585   -3.6338    1.3018 C   0  0  0  0  0  0  0  0  0  0  0  0
   -3.3165   -2.6535   -2.7199 C   0  0  0  0  0  0  0  0  0  0  0  0
   -4.0886   -3.3746   -3.5275 O   0  0  0  0  0  0  0  0  0  0  0  0
   -3.6061   -3.5675   -4.8570 C   0  0  0  0  0  0  0  0  0  0  0  0
   -3.8114   -2.3267   -5.7161 C   0  0  0  0  0  0  0  0  0  0  0  0
   -2.1806   -2.1704   -3.1284 N   0  0  0  0  0  0  0  0  0  0  0  0
    0.6511   -0.9159   -3.5703 C   0  0  0  0  0  0  0  0  0  0  0  0
    1.9817    0.2095   -3.6674 S   0  0  0  0  0  0  0  0  0  0  0  0
    2.5944   -0.4644   -5.1448 C   0  0  0  0  0  0  0  0  0  0  0  0
    1.8080   -1.5473   -5.5228 C   0  0  0  0  0  0  0  0  0  0  0  0
    0.7062   -1.8059   -4.6522 C   0  0  0  0  0  0  0  0  0  0  0  0
   -0.1008   -2.8584   -4.8796 N   0  0  0  0  0  0  0  0  0  0  0  0
    0.1717   -3.6606   -5.8716 C   0  0  0  0  0  0  0  0  0  0  0  0
   -0.6871   -4.6930   -5.9722 O   0  0  0  0  0  0  0  0  0  0  0  0
   -0.7991   -5.4786   -7.1480 C   0  0  0  0  0  0  0  0  0  0  0  0
   -1.3739   -4.6930   -8.3205 C   0  0  0  0  0  0  0  0  0  0  0  0
    1.3479   -3.4419   -6.6943 C   0  0  0  0  0  0  0  0  0  0  0  0
    1.6824   -4.3344   -7.6439 O   0  0  0  0  0  0  0  0  0  0  0  0
    2.8927   -4.0909   -8.3578 C   0  0  0  0  0  0  0  0  0  0  0  0
    4.1272   -4.4400   -7.5385 C   0  0  0  0  0  0  0  0  0  0  0  0
    2.1099   -2.4020   -6.5222 N   0  0  0  0  0  0  0  0  0  0  0  0
    3.7583   -0.0031   -5.8068 C   0  0  0  0  0  0  0  0  0  0  0  0
    5.1807    0.5226   -4.9550 S   0  0  0  0  0  0  0  0  0  0  0  0
    6.0914    0.6954   -6.3985 C   0  0  0  0  0  0  0  0  0  0  0  0
    5.3433    0.3800   -7.5015 C   0  0  0  0  0  0  0  0  0  0  0  0
    3.9959    0.0120   -7.1745 C   0  0  0  0  0  0  0  0  0  0  0  0
    3.0639   -0.1621   -8.1453 N   0  0  0  0  0  0  0  0  0  0  0  0
    3.4770   -0.0852   -9.3721 C   0  0  0  0  0  0  0  0  0  0  0  0
    2.6305   -0.1262  -10.4049 O   0  0  0  0  0  0  0  0  0  0  0  0
    1.2404   -0.0334  -10.1144 C   0  0  0  0  0  0  0  0  0  0  0  0
    0.6414   -1.3402   -9.6152 C   0  0  0  0  0  0  0  0  0  0  0  0
    4.8850    0.1228   -9.7043 C   0  0  0  0  0  0  0  0  0  0  0  0
    5.1973    0.0828  -10.9981 O   0  0  0  0  0  0  0  0  0  0  0  0
    6.5604    0.3138  -11.3396 C   0  0  0  0  0  0  0  0  0  0  0  0
    7.4356   -0.9011  -11.0624 C   0  0  0  0  0  0  0  0  0  0  0  0
    5.7728    0.3830   -8.7967 N   0  0  0  0  0  0  0  0  0  0  0  0
   -2.8242    2.1045   12.0351 H   0  0  0  0  0  0  0  0  0  0  0  0
    3.2248    1.7388   12.8079 H   0  0  0  0  0  0  0  0  0  0  0  0
    1.4611    1.5353   13.0549 H   0  0  0  0  0  0  0  0  0  0  0  0
    1.0491    3.7906   12.1515 H   0  0  0  0  0  0  0  0  0  0  0  0
    2.1910    3.8909   13.4989 H   0  0  0  0  0  0  0  0  0  0  0  0
    2.7776    4.0119   11.8327 H   0  0  0  0  0  0  0  0  0  0  0  0
    2.9353   -1.0970    7.6778 H   0  0  0  0  0  0  0  0  0  0  0  0
    1.1433   -1.1080    7.6429 H   0  0  0  0  0  0  0  0  0  0  0  0
    2.1818   -0.3788    5.4614 H   0  0  0  0  0  0  0  0  0  0  0  0
    1.1008    0.8241    6.1659 H   0  0  0  0  0  0  0  0  0  0  0  0
    2.8604    1.0277    6.2914 H   0  0  0  0  0  0  0  0  0  0  0  0
   -5.3917    0.2601    8.3517 H   0  0  0  0  0  0  0  0  0  0  0  0
   -7.1866   -1.1129    8.9612 H   0  0  0  0  0  0  0  0  0  0  0  0
   -7.6667    0.5918    8.7395 H   0  0  0  0  0  0  0  0  0  0  0  0
   -8.8722   -0.7075    8.5487 H   0  0  0  0  0  0  0  0  0  0  0  0
   -6.6736   -1.6518    2.7288 H   0  0  0  0  0  0  0  0  0  0  0  0
   -7.0992    0.0764    2.6079 H   0  0  0  0  0  0  0  0  0  0  0  0
   -8.3821   -1.1484    2.7853 H   0  0  0  0  0  0  0  0  0  0  0  0
   -4.9173   -0.2846    3.4302 H   0  0  0  0  0  0  0  0  0  0  0  0
    0.7625    2.9497    5.9944 H   0  0  0  0  0  0  0  0  0  0  0  0
    0.2738    4.4551    5.2008 H   0  0  0  0  0  0  0  0  0  0  0  0
    2.5857    5.3759    5.5528 H   0  0  0  0  0  0  0  0  0  0  0  0
    3.0498    3.8852    6.3746 H   0  0  0  0  0  0  0  0  0  0  0  0
    1.8229    4.9394    7.0910 H   0  0  0  0  0  0  0  0  0  0  0  0
    3.6659    3.2302    0.1731 H   0  0  0  0  0  0  0  0  0  0  0  0
    2.0796    2.5219   -0.2720 H   0  0  0  0  0  0  0  0  0  0  0  0
    2.8379    0.2987    0.4676 H   0  0  0  0  0  0  0  0  0  0  0  0
    4.4101    0.9638    0.9467 H   0  0  0  0  0  0  0  0  0  0  0  0
    3.9320    0.9392   -0.7604 H   0  0  0  0  0  0  0  0  0  0  0  0
   -6.4801   -3.0742    0.2641 H   0  0  0  0  0  0  0  0  0  0  0  0
   -5.3255   -1.7280    0.5379 H   0  0  0  0  0  0  0  0  0  0  0  0
   -4.6811   -4.6803    1.0081 H   0  0  0  0  0  0  0  0  0  0  0  0
   -5.1092   -3.5326    2.2852 H   0  0  0  0  0  0  0  0  0  0  0  0
   -3.6267   -3.2981    1.3539 H   0  0  0  0  0  0  0  0  0  0  0  0
   -2.5426   -3.8194   -4.8195 H   0  0  0  0  0  0  0  0  0  0  0  0
   -4.1905   -4.4085   -5.2378 H   0  0  0  0  0  0  0  0  0  0  0  0
   -4.8519   -2.0103   -5.6860 H   0  0  0  0  0  0  0  0  0  0  0  0
   -3.5375   -2.5446   -6.7444 H   0  0  0  0  0  0  0  0  0  0  0  0
   -3.1795   -1.5228   -5.3493 H   0  0  0  0  0  0  0  0  0  0  0  0
   -1.4888   -6.2747   -6.8544 H   0  0  0  0  0  0  0  0  0  0  0  0
    0.1632   -5.9212   -7.4179 H   0  0  0  0  0  0  0  0  0  0  0  0
   -0.6945   -3.8989   -8.6191 H   0  0  0  0  0  0  0  0  0  0  0  0
   -1.5241   -5.3595   -9.1649 H   0  0  0  0  0  0  0  0  0  0  0  0
   -2.3284   -4.2536   -8.0407 H   0  0  0  0  0  0  0  0  0  0  0  0
    2.9314   -3.0397   -8.6562 H   0  0  0  0  0  0  0  0  0  0  0  0
    2.8160   -4.7301   -9.2407 H   0  0  0  0  0  0  0  0  0  0  0  0
    5.0135   -4.3317   -8.1572 H   0  0  0  0  0  0  0  0  0  0  0  0
    4.2071   -3.7682   -6.6881 H   0  0  0  0  0  0  0  0  0  0  0  0
    4.0671   -5.4650   -7.1796 H   0  0  0  0  0  0  0  0  0  0  0  0
    7.1133    1.0110   -6.3573 H   0  0  0  0  0  0  0  0  0  0  0  0
    1.0850    0.7506   -9.3651 H   0  0  0  0  0  0  0  0  0  0  0  0
    0.7870    0.2635  -11.0636 H   0  0  0  0  0  0  0  0  0  0  0  0
   -0.4358   -1.2286   -9.5213 H   0  0  0  0  0  0  0  0  0  0  0  0
    1.0606   -1.5779   -8.6421 H   0  0  0  0  0  0  0  0  0  0  0  0
    0.8572   -2.1457  -10.3138 H   0  0  0  0  0  0  0  0  0  0  0  0
    6.5395    0.5436  -12.4073 H   0  0  0  0  0  0  0  0  0  0  0  0
    6.9286    1.1773  -10.7764 H   0  0  0  0  0  0  0  0  0  0  0  0
    7.0407   -1.7734  -11.5776 H   0  0  0  0  0  0  0  0  0  0  0  0
    8.4456   -0.7086  -11.4125 H   0  0  0  0  0  0  0  0  0  0  0  0
    7.4632   -1.0993   -9.9944 H   0  0  0  0  0  0  0  0  0  0  0  0
  1  2  1  0  0  0  0
  2  3  1  0  0  0  0
  3  4  2  0  0  0  0
  4  5  1  0  0  0  0
  5  6  1  0  0  0  0
  6  7  2  0  0  0  0
  7  8  1  0  0  0  0
  8  9  1  0  0  0  0
  9 10  1  0  0  0  0
  7 11  1  0  0  0  0
 11 12  1  0  0  0  0
 12 13  1  0  0  0  0
 13 14  1  0  0  0  0
 11 15  2  0  0  0  0
  3 16  1  0  0  0  0
 16 17  1  0  0  0  0
 17 18  1  0  0  0  0
 18 19  2  0  0  0  0
 19 20  1  0  0  0  0
 20 21  1  0  0  0  0
 21 22  2  0  0  0  0
 22 23  1  0  0  0  0
 23 24  1  0  0  0  0
 22 25  1  0  0  0  0
 25 26  1  0  0  0  0
 26 27  1  0  0  0  0
 25 28  2  0  0  0  0
 18 29  1  0  0  0  0
 29 30  1  0  0  0  0
 30 31  1  0  0  0  0
 31 32  2  0  0  0  0
 32 33  1  0  0  0  0
 33 34  1  0  0  0  0
 34 35  2  0  0  0  0
 35 36  1  0  0  0  0
 36 37  1  0  0  0  0
 37 38  1  0  0  0  0
 35 39  1  0  0  0  0
 39 40  1  0  0  0  0
 40 41  1  0  0  0  0
 41 42  1  0  0  0  0
 39 43  2  0  0  0  0
 31 44  1  0  0  0  0
 44 45  1  0  0  0  0
 45 46  1  0  0  0  0
 46 47  2  0  0  0  0
 47 48  1  0  0  0  0
 48 49  1  0  0  0  0
 49 50  2  0  0  0  0
 50 51  1  0  0  0  0
 51 52  1  0  0  0  0
 52 53  1  0  0  0  0
 50 54  1  0  0  0  0
 54 55  1  0  0  0  0
 55 56  1  0  0  0  0
 56 57  1  0  0  0  0
 54 58  2  0  0  0  0
 46 59  1  0  0  0  0
 59 60  1  0  0  0  0
 60 61  1  0  0  0  0
 61 62  2  0  0  0  0
 62 63  1  0  0  0  0
 63 64  1  0  0  0  0
 64 65  2  0  0  0  0
 65 66  1  0  0  0  0
 66 67  1  0  0  0  0
 67 68  1  0  0  0  0
 65 69  1  0  0  0  0
 69 70  1  0  0  0  0
 70 71  1  0  0  0  0
 71 72  1  0  0  0  0
 69 73  2  0  0  0  0
 61 74  1  0  0  0  0
 74 75  1  0  0  0  0
 75 76  1  0  0  0  0
 76 77  2  0  0  0  0
 77 78  1  0  0  0  0
 78 79  1  0  0  0  0
 79 80  2  0  0  0  0
 80 81  1  0  0  0  0
 81 82  1  0  0  0  0
 82 83  1  0  0  0  0
 80 84  1  0  0  0  0
 84 85  1  0  0  0  0
 85 86  1  0  0  0  0
 86 87  1  0  0  0  0
 84 88  2  0  0  0  0
  5  1  2  0  0  0  0
 20 16  2  0  0  0  0
 33 29  2  0  0  0  0
 48 44  2  0  0  0  0
 63 59  2  0  0  0  0
 78 74  2  0  0  0  0
 15  4  1  0  0  0  0
 28 19  1  0  0  0  0
 43 32  1  0  0  0  0
 58 47  1  0  0  0  0
 73 62  1  0  0  0  0
 88 77  1  0  0  0  0
  1 89  1  0  0  0  0
  9 90  1  0  0  0  0
  9 91  1  0  0  0  0
 10 92  1  0  0  0  0
 10 93  1  0  0  0  0
 10 94  1  0  0  0  0
 13 95  1  0  0  0  0
 13 96  1  0  0  0  0
 14 97  1  0  0  0  0
 14 98  1  0  0  0  0
 14 99  1  0  0  0  0
 21100  1  0  0  0  0
 24101  1  0  0  0  0
 24102  1  0  0  0  0
 24103  1  0  0  0  0
 27104  1  0  0  0  0
 27105  1  0  0  0  0
 27106  1  0  0  0  0
 28107  1  0  0  0  0
 37108  1  0  0  0  0
 37109  1  0  0  0  0
 38110  1  0  0  0  0
 38111  1  0  0  0  0
 38112  1  0  0  0  0
 41113  1  0  0  0  0
 41114  1  0  0  0  0
 42115  1  0  0  0  0
 42116  1  0  0  0  0
 42117  1  0  0  0  0
 52118  1  0  0  0  0
 52119  1  0  0  0  0
 53120  1  0  0  0  0
 53121  1  0  0  0  0
 53122  1  0  0  0  0
 56123  1  0  0  0  0
 56124  1  0  0  0  0
 57125  1  0  0  0  0
 57126  1  0  0  0  0
 57127  1  0  0  0  0
 67128  1  0  0  0  0
 67129  1  0  0  0  0
 68130  1  0  0  0  0
 68131  1  0  0  0  0
 68132  1  0  0  0  0
 71133  1  0  0  0  0
 71134  1  0  0  0  0
 72135  1  0  0  0  0
 72136  1  0  0  0  0
 72137  1  0  0  0  0
 76138  1  0  0  0  0
 82139  1  0  0  0  0
 82140  1  0  0  0  0
 83141  1  0  0  0  0
 83142  1  0  0  0  0
 83143  1  0  0  0  0
 86144  1  0  0  0  0
 86145  1  0  0  0  0
 87146  1  0  0  0  0
 87147  1  0  0  0  0
 87148  1  0  0  0  0
M  END
