
  xtb     03052208303D
 energy: -184.705226134343 gnorm: 0.000600053130 xtb: 6.4.1 (unknown)
113124  0     0  0            999 V2000
    3.9058    1.7912    2.4213 C   0  0  0  0  0  0  0  0  0  0  0  0
    2.8644    1.4267    3.7399 S   0  0  0  0  0  0  0  0  0  0  0  0
    2.4412   -0.1225    3.0812 C   0  0  0  0  0  0  0  0  0  0  0  0
    3.1237   -0.3598    1.8952 C   0  0  0  0  0  0  0  0  0  0  0  0
    3.9391    0.7644    1.5168 C   0  0  0  0  0  0  0  0  0  0  0  0
    4.6367    0.7525    0.2786 C   0  0  0  0  0  0  0  0  0  0  0  0
    4.5564   -0.3339   -0.5360 C   0  0  0  0  0  0  0  0  0  0  0  0
    5.1383   -0.4505   -1.7592 O   0  0  0  0  0  0  0  0  0  0  0  0
    5.8104    0.6702   -2.2765 C   0  0  0  0  0  0  0  0  0  0  0  0
    3.8006   -1.4949   -0.1259 C   0  0  0  0  0  0  0  0  0  0  0  0
    3.8659   -2.5272   -1.0150 O   0  0  0  0  0  0  0  0  0  0  0  0
    3.3028   -3.7598   -0.6448 C   0  0  0  0  0  0  0  0  0  0  0  0
    3.1109   -1.5013    1.0481 C   0  0  0  0  0  0  0  0  0  0  0  0
    1.4257   -0.8009    3.7127 N   0  0  0  0  0  0  0  0  0  0  0  0
    0.9961   -0.3243    5.0286 C   0  0  0  0  0  0  0  0  0  0  0  0
    0.0209   -1.2624    5.5038 N   0  0  0  0  0  0  0  0  0  0  0  0
    0.4118   -2.5515    4.9240 C   0  0  0  0  0  0  0  0  0  0  0  0
    1.1003   -2.2015    3.5799 C   0  0  0  0  0  0  0  0  0  0  0  0
    0.0785   -2.5493    2.5939 N   0  0  0  0  0  0  0  0  0  0  0  0
   -1.1580   -2.8702    3.2856 C   0  0  0  0  0  0  0  0  0  0  0  0
   -0.6792   -3.3995    4.5451 N   0  0  0  0  0  0  0  0  0  0  0  0
    0.0066   -1.8769    1.3890 C   0  0  0  0  0  0  0  0  0  0  0  0
    0.0307   -0.1270    1.2729 S   0  0  0  0  0  0  0  0  0  0  0  0
    0.0851   -0.1893   -0.4629 C   0  0  0  0  0  0  0  0  0  0  0  0
   -0.0313   -1.4836   -0.9191 C   0  0  0  0  0  0  0  0  0  0  0  0
   -0.0966   -2.4439    0.1399 C   0  0  0  0  0  0  0  0  0  0  0  0
   -0.2418   -3.8215   -0.1751 C   0  0  0  0  0  0  0  0  0  0  0  0
   -0.3241   -4.2109   -1.4777 C   0  0  0  0  0  0  0  0  0  0  0  0
   -0.4787   -5.4902   -1.9103 O   0  0  0  0  0  0  0  0  0  0  0  0
   -0.6234   -6.4995   -0.9447 C   0  0  0  0  0  0  0  0  0  0  0  0
   -0.2322   -3.2396   -2.5463 C   0  0  0  0  0  0  0  0  0  0  0  0
   -0.3056   -3.7838   -3.7941 O   0  0  0  0  0  0  0  0  0  0  0  0
   -0.1373   -2.9287   -4.8932 C   0  0  0  0  0  0  0  0  0  0  0  0
   -0.0833   -1.9166   -2.2680 C   0  0  0  0  0  0  0  0  0  0  0  0
    0.3266    0.9181   -1.2403 N   0  0  0  0  0  0  0  0  0  0  0  0
    1.6033    1.0859   -1.9414 C   0  0  0  0  0  0  0  0  0  0  0  0
    2.1971    2.3084   -1.4365 N   0  0  0  0  0  0  0  0  0  0  0  0
    1.0769    3.1593   -1.0909 C   0  0  0  0  0  0  0  0  0  0  0  0
   -0.1203    2.2030   -0.8160 C   0  0  0  0  0  0  0  0  0  0  0  0
   -1.2534    2.7017   -1.6388 N   0  0  0  0  0  0  0  0  0  0  0  0
   -0.8352    4.0304   -2.0517 C   0  0  0  0  0  0  0  0  0  0  0  0
    0.6061    3.9380   -2.2236 N   0  0  0  0  0  0  0  0  0  0  0  0
   -1.5930    1.7893   -2.6385 N   0  0  0  0  0  0  0  0  0  0  0  0
   -1.0598    1.8760   -3.9862 C   0  0  0  0  0  0  0  0  0  0  0  0
   -2.1811    2.1931   -4.8647 N   0  0  0  0  0  0  0  0  0  0  0  0
   -3.2982    1.4982   -4.2682 C   0  0  0  0  0  0  0  0  0  0  0  0
   -2.9738    1.3775   -2.7368 C   0  0  0  0  0  0  0  0  0  0  0  0
   -3.1282   -0.0298   -2.4637 N   0  0  0  0  0  0  0  0  0  0  0  0
   -3.5568   -0.7459   -3.6583 C   0  0  0  0  0  0  0  0  0  0  0  0
   -3.3741    0.1390   -4.7784 N   0  0  0  0  0  0  0  0  0  0  0  0
   -3.3269   -0.6227   -1.2455 C   0  0  0  0  0  0  0  0  0  0  0  0
   -3.6150   -2.3357   -1.2572 S   0  0  0  0  0  0  0  0  0  0  0  0
   -3.8105   -2.3956    0.4498 C   0  0  0  0  0  0  0  0  0  0  0  0
   -3.6567   -1.1576    1.0101 C   0  0  0  0  0  0  0  0  0  0  0  0
   -3.3564   -0.1265    0.0509 C   0  0  0  0  0  0  0  0  0  0  0  0
   -3.1536    1.1965    0.5262 C   0  0  0  0  0  0  0  0  0  0  0  0
   -3.2695    1.4792    1.8532 C   0  0  0  0  0  0  0  0  0  0  0  0
   -3.1025    2.7152    2.4174 O   0  0  0  0  0  0  0  0  0  0  0  0
   -2.9272    3.8132    1.5639 C   0  0  0  0  0  0  0  0  0  0  0  0
   -3.6230    0.4530    2.8021 C   0  0  0  0  0  0  0  0  0  0  0  0
   -3.7411    0.8930    4.0887 O   0  0  0  0  0  0  0  0  0  0  0  0
   -4.1914   -0.0147    5.0585 C   0  0  0  0  0  0  0  0  0  0  0  0
   -3.8094   -0.8271    2.3839 C   0  0  0  0  0  0  0  0  0  0  0  0
    4.4186    2.7301    2.3930 H   0  0  0  0  0  0  0  0  0  0  0  0
    5.2181    1.6219    0.0171 H   0  0  0  0  0  0  0  0  0  0  0  0
    6.1496    0.3772   -3.2687 H   0  0  0  0  0  0  0  0  0  0  0  0
    5.1397    1.5325   -2.3575 H   0  0  0  0  0  0  0  0  0  0  0  0
    6.6773    0.9382   -1.6632 H   0  0  0  0  0  0  0  0  0  0  0  0
    3.5225   -4.4403   -1.4660 H   0  0  0  0  0  0  0  0  0  0  0  0
    3.7555   -4.1426    0.2770 H   0  0  0  0  0  0  0  0  0  0  0  0
    2.2189   -3.6886   -0.5148 H   0  0  0  0  0  0  0  0  0  0  0  0
    2.5304   -2.3613    1.3311 H   0  0  0  0  0  0  0  0  0  0  0  0
    0.5861    0.6872    4.9582 H   0  0  0  0  0  0  0  0  0  0  0  0
    1.8564   -0.3095    5.7189 H   0  0  0  0  0  0  0  0  0  0  0  0
   -0.8949   -1.0039    5.1450 H   0  0  0  0  0  0  0  0  0  0  0  0
    1.0781   -3.0625    5.6271 H   0  0  0  0  0  0  0  0  0  0  0  0
    1.9989   -2.8000    3.3835 H   0  0  0  0  0  0  0  0  0  0  0  0
   -1.7100   -3.6343    2.7308 H   0  0  0  0  0  0  0  0  0  0  0  0
   -1.8061   -1.9739    3.3808 H   0  0  0  0  0  0  0  0  0  0  0  0
   -1.3949   -3.4624    5.2586 H   0  0  0  0  0  0  0  0  0  0  0  0
   -0.2920   -4.5226    0.6416 H   0  0  0  0  0  0  0  0  0  0  0  0
    0.2691   -6.5864   -0.3151 H   0  0  0  0  0  0  0  0  0  0  0  0
   -1.4970   -6.3225   -0.3086 H   0  0  0  0  0  0  0  0  0  0  0  0
   -0.7631   -7.4239   -1.5027 H   0  0  0  0  0  0  0  0  0  0  0  0
    0.8272   -2.4104   -4.8557 H   0  0  0  0  0  0  0  0  0  0  0  0
   -0.1720   -3.5680   -5.7742 H   0  0  0  0  0  0  0  0  0  0  0  0
   -0.9422   -2.1869   -4.9566 H   0  0  0  0  0  0  0  0  0  0  0  0
   -0.0251   -1.1650   -3.0367 H   0  0  0  0  0  0  0  0  0  0  0  0
    1.4093    1.2255   -3.0107 H   0  0  0  0  0  0  0  0  0  0  0  0
    2.2506    0.2212   -1.7940 H   0  0  0  0  0  0  0  0  0  0  0  0
    2.7507    2.1140   -0.6063 H   0  0  0  0  0  0  0  0  0  0  0  0
    1.3247    3.7838   -0.2197 H   0  0  0  0  0  0  0  0  0  0  0  0
   -0.4329    2.1931    0.2342 H   0  0  0  0  0  0  0  0  0  0  0  0
   -1.3242    4.3460   -2.9755 H   0  0  0  0  0  0  0  0  0  0  0  0
   -1.1248    4.7302   -1.2441 H   0  0  0  0  0  0  0  0  0  0  0  0
    1.0658    4.8352   -2.3077 H   0  0  0  0  0  0  0  0  0  0  0  0
   -0.6835    0.8852   -4.2783 H   0  0  0  0  0  0  0  0  0  0  0  0
   -0.2501    2.5991   -4.0619 H   0  0  0  0  0  0  0  0  0  0  0  0
   -2.3527    3.1919   -4.8985 H   0  0  0  0  0  0  0  0  0  0  0  0
   -4.2451    2.0128   -4.4578 H   0  0  0  0  0  0  0  0  0  0  0  0
   -3.6215    1.9929   -2.1037 H   0  0  0  0  0  0  0  0  0  0  0  0
   -2.9933   -1.6783   -3.7740 H   0  0  0  0  0  0  0  0  0  0  0  0
   -4.6267   -1.0061   -3.5673 H   0  0  0  0  0  0  0  0  0  0  0  0
   -2.5175   -0.0558   -5.2836 H   0  0  0  0  0  0  0  0  0  0  0  0
   -4.0416   -3.3260    0.9255 H   0  0  0  0  0  0  0  0  0  0  0  0
   -2.8739    1.9644   -0.1721 H   0  0  0  0  0  0  0  0  0  0  0  0
   -1.9940    3.7452    0.9944 H   0  0  0  0  0  0  0  0  0  0  0  0
   -3.7628    3.9145    0.8620 H   0  0  0  0  0  0  0  0  0  0  0  0
   -2.8918    4.6873    2.2131 H   0  0  0  0  0  0  0  0  0  0  0  0
   -4.2613    0.5518    5.9859 H   0  0  0  0  0  0  0  0  0  0  0  0
   -3.4903   -0.8466    5.1996 H   0  0  0  0  0  0  0  0  0  0  0  0
   -5.1764   -0.4211    4.8043 H   0  0  0  0  0  0  0  0  0  0  0  0
   -4.1023   -1.6158    3.0597 H   0  0  0  0  0  0  0  0  0  0  0  0
  1  2  1  0  0  0  0
  2  3  1  0  0  0  0
  3  4  2  0  0  0  0
  4  5  1  0  0  0  0
  5  6  1  0  0  0  0
  6  7  2  0  0  0  0
  7  8  1  0  0  0  0
  8  9  1  0  0  0  0
  7 10  1  0  0  0  0
 10 11  1  0  0  0  0
 11 12  1  0  0  0  0
 10 13  2  0  0  0  0
  3 14  1  0  0  0  0
 14 15  1  0  0  0  0
 15 16  1  0  0  0  0
 16 17  1  0  0  0  0
 17 18  1  0  0  0  0
 18 19  1  0  0  0  0
 19 20  1  0  0  0  0
 20 21  1  0  0  0  0
 19 22  1  0  0  0  0
 22 23  1  0  0  0  0
 23 24  1  0  0  0  0
 24 25  2  0  0  0  0
 25 26  1  0  0  0  0
 26 27  1  0  0  0  0
 27 28  2  0  0  0  0
 28 29  1  0  0  0  0
 29 30  1  0  0  0  0
 28 31  1  0  0  0  0
 31 32  1  0  0  0  0
 32 33  1  0  0  0  0
 31 34  2  0  0  0  0
 24 35  1  0  0  0  0
 35 36  1  0  0  0  0
 36 37  1  0  0  0  0
 37 38  1  0  0  0  0
 38 39  1  0  0  0  0
 39 40  1  0  0  0  0
 40 41  1  0  0  0  0
 41 42  1  0  0  0  0
 40 43  1  0  0  0  0
 43 44  1  0  0  0  0
 44 45  1  0  0  0  0
 45 46  1  0  0  0  0
 46 47  1  0  0  0  0
 47 48  1  0  0  0  0
 48 49  1  0  0  0  0
 49 50  1  0  0  0  0
 48 51  1  0  0  0  0
 51 52  1  0  0  0  0
 52 53  1  0  0  0  0
 53 54  2  0  0  0  0
 54 55  1  0  0  0  0
 55 56  1  0  0  0  0
 56 57  2  0  0  0  0
 57 58  1  0  0  0  0
 58 59  1  0  0  0  0
 57 60  1  0  0  0  0
 60 61  1  0  0  0  0
 61 62  1  0  0  0  0
 60 63  2  0  0  0  0
  5  1  2  0  0  0  0
 18 14  1  0  0  0  0
 26 22  2  0  0  0  0
 39 35  1  0  0  0  0
 47 43  1  0  0  0  0
 55 51  2  0  0  0  0
 13  4  1  0  0  0  0
 21 17  1  0  0  0  0
 34 25  1  0  0  0  0
 42 38  1  0  0  0  0
 50 46  1  0  0  0  0
 63 54  1  0  0  0  0
  1 64  1  0  0  0  0
  6 65  1  0  0  0  0
  9 66  1  0  0  0  0
  9 67  1  0  0  0  0
  9 68  1  0  0  0  0
 12 69  1  0  0  0  0
 12 70  1  0  0  0  0
 12 71  1  0  0  0  0
 13 72  1  0  0  0  0
 15 73  1  0  0  0  0
 15 74  1  0  0  0  0
 16 75  1  0  0  0  0
 17 76  1  0  0  0  0
 18 77  1  0  0  0  0
 20 78  1  0  0  0  0
 20 79  1  0  0  0  0
 21 80  1  0  0  0  0
 27 81  1  0  0  0  0
 30 82  1  0  0  0  0
 30 83  1  0  0  0  0
 30 84  1  0  0  0  0
 33 85  1  0  0  0  0
 33 86  1  0  0  0  0
 33 87  1  0  0  0  0
 34 88  1  0  0  0  0
 36 89  1  0  0  0  0
 36 90  1  0  0  0  0
 37 91  1  0  0  0  0
 38 92  1  0  0  0  0
 39 93  1  0  0  0  0
 41 94  1  0  0  0  0
 41 95  1  0  0  0  0
 42 96  1  0  0  0  0
 44 97  1  0  0  0  0
 44 98  1  0  0  0  0
 45 99  1  0  0  0  0
 46100  1  0  0  0  0
 47101  1  0  0  0  0
 49102  1  0  0  0  0
 49103  1  0  0  0  0
 50104  1  0  0  0  0
 53105  1  0  0  0  0
 56106  1  0  0  0  0
 59107  1  0  0  0  0
 59108  1  0  0  0  0
 59109  1  0  0  0  0
 62110  1  0  0  0  0
 62111  1  0  0  0  0
 62112  1  0  0  0  0
 63113  1  0  0  0  0
M  END
