113

C          2.90760        0.25080       11.82820
C          3.59230        0.94620       10.82710
N          4.55860        1.87670       10.88350
N          4.79240        2.16920        9.63520
C          5.81790        3.10130        9.26210
C          7.03100        2.35370        8.71780
N          4.09100        1.54230        8.73480
C          3.29890        0.72730        9.44630
C          2.32190       -0.19990        9.04200
C          1.66340       -0.87200       10.05090
C          1.95430       -0.64550       11.41930
Cl         1.07880       -1.53730       12.60480
Cl         0.49020       -2.06210        9.64940
C          2.02620       -0.40520        7.62020
C          0.72820       -0.20600        7.11820
N         -0.40530        0.17570        7.72520
N         -1.28450        0.20840        6.76530
C         -2.66580        0.49300        7.02710
C         -3.40720       -0.79940        7.35680
N         -0.87130       -0.09980        5.56960
C          0.42910       -0.38340        5.73520
C          1.41890       -0.76600        4.81280
C          2.68560       -0.95610        5.32540
C          2.98190       -0.77950        6.69820
Cl         4.58240       -1.10370        7.22990
Cl         3.94500       -1.48220        4.28130
C          1.09560       -0.92000        3.39130
C          1.76580       -0.16460        2.41270
N          2.73950        0.75210        2.51510
N          2.94890        1.13280        1.28740
C          3.91940        2.14090        0.97130
C          3.28180        3.52580        1.02440
N          2.21460        0.58490        0.36190
C          1.42930       -0.27200        1.03100
C          0.41460       -1.13780        0.58600
C         -0.22490       -1.87430        1.56150
C          0.10770       -1.76720        2.93260
Cl        -0.72190       -2.77400        4.04990
Cl        -1.43640       -3.00240        1.10270
C          0.05460       -1.19740       -0.83320
C         -1.24950       -0.89220       -1.26100
N         -2.35530       -0.58610       -0.56650
N         -3.27370       -0.43730       -1.47950
C         -4.63220       -0.13130       -1.13010
C         -5.03860        1.22840       -1.68520
N         -2.90520       -0.59270       -2.71980
C         -1.59790       -0.88230       -2.64360
C         -0.65840       -1.18820       -3.65470
C          0.60580       -1.53130       -3.19820
C          0.95400       -1.52020       -1.82890
Cl         2.55450       -1.97180       -1.38900
Cl         1.83200       -1.95680       -4.33080
C         -1.05320       -1.15530       -5.04390
S         -0.67050       -2.44130       -6.12990
C         -1.51480       -1.69730       -7.43750
C         -2.09780       -0.50070       -7.04140
C         -1.82040       -0.18230       -5.67620
C         -2.25080        1.05800       -5.15130
C         -2.99520        1.90100       -5.92330
O         -3.44120        3.12740       -5.54570
C         -3.01070        3.63750       -4.30960
C         -3.38400        1.51940       -7.25950
O         -4.18110        2.42080       -7.88480
C         -4.55810        2.16150       -9.21460
C         -2.94200        0.34620       -7.79790
C         -1.53090       -2.35090       -8.72630
C         -1.77590       -3.73880       -8.80760
N         -2.03180       -4.63560       -7.84530
N         -2.18620       -5.75810       -8.48840
C         -2.42470       -6.99040       -7.79310
C         -1.11360       -7.55570       -7.25520
N         -2.06870       -5.71970       -9.78710
C         -1.80420       -4.43150      -10.05490
C         -1.58510       -3.75430      -11.25870
C         -1.31790       -2.41210      -11.16920
C         -1.27150       -1.72160       -9.93470
Cl        -0.78860       -0.06360       -9.95540
Cl        -1.01070       -1.52790      -12.61850
H          3.12430        0.41330       12.87020
H          6.07440        3.66940       10.15740
H          5.41070        3.76570        8.49660
H          7.79320        3.06160        8.40540
H          6.73810        1.74820        7.86370
H          7.44860        1.70300        9.48230
H         -2.70650        1.18490        7.87010
H         -3.08210        0.95670        6.13110
H         -3.33850       -1.49240        6.52180
H         -4.45410       -0.58670        7.55310
H         -2.97150       -1.26530        8.23720
H          4.29530        1.93010       -0.03140
H          4.72500        2.06140        1.70320
H          2.88900        3.71890        2.01970
H          2.46920        3.59140        0.30510
H          4.02330        4.28290        0.78620
H         -4.68510       -0.15150       -0.04050
H         -5.27680       -0.91030       -1.54630
H         -4.41460        2.01300       -1.26260
H         -6.07460        1.43550       -1.43360
H         -4.93290        1.22820       -2.76740
H         -1.97020        1.31650       -4.14530
H         -3.37190        3.03050       -3.47340
H         -3.43600        4.63740       -4.23910
H         -1.91840        3.70110       -4.26180
H         -5.16920        1.25600       -9.28970
H         -5.14770        3.02180       -9.52670
H         -3.68440        2.06270       -9.86670
H         -3.22490        0.04290       -8.79120
H         -2.88190       -7.67930       -8.50510
H         -3.11240       -6.78270       -6.97070
H         -1.30360       -8.48010       -6.71780
H         -0.65210       -6.84180       -6.57740
H         -0.42730       -7.76000       -8.07330
H         -1.61450       -4.26620      -12.20490
