
  xtb     03012222083D
 energy: -192.260242086167 gnorm: 0.000241161375 xtb: 6.4.1 (unknown)
123134  0     0  0            999 V2000
    0.7450    2.3193    1.4656 C   0  0  0  0  0  0  0  0  0  0  0  0
   -0.5212    1.7128    0.5036 S   0  0  0  0  0  0  0  0  0  0  0  0
   -0.0063    2.5895   -0.9072 C   0  0  0  0  0  0  0  0  0  0  0  0
    1.1637    3.3199   -0.5973 C   0  0  0  0  0  0  0  0  0  0  0  0
    1.5747    3.1701    0.7642 C   0  0  0  0  0  0  0  0  0  0  0  0
    2.7056    3.8632    1.2490 C   0  0  0  0  0  0  0  0  0  0  0  0
    3.4290    4.6614    0.4094 C   0  0  0  0  0  0  0  0  0  0  0  0
    4.6309    5.4223    0.8818 C   0  0  0  0  0  0  0  0  0  0  0  0
    3.0377    4.7792   -0.9457 C   0  0  0  0  0  0  0  0  0  0  0  0
    1.9383    4.1370   -1.4400 C   0  0  0  0  0  0  0  0  0  0  0  0
   -0.6450    2.6441   -2.1583 C   0  0  0  0  0  0  0  0  0  0  0  0
   -1.7479    2.0601   -2.7361 C   0  0  0  0  0  0  0  0  0  0  0  0
   -2.6609    1.0811   -2.3357 C   0  0  0  0  0  0  0  0  0  0  0  0
   -2.6793    0.3015   -0.7888 S   0  0  0  0  0  0  0  0  0  0  0  0
   -4.0266   -0.7269   -1.1879 C   0  0  0  0  0  0  0  0  0  0  0  0
   -4.4447   -0.4776   -2.5163 C   0  0  0  0  0  0  0  0  0  0  0  0
   -3.6989    0.5536   -3.1508 C   0  0  0  0  0  0  0  0  0  0  0  0
   -4.0346    0.9420   -4.4565 C   0  0  0  0  0  0  0  0  0  0  0  0
   -5.0706    0.3318   -5.1215 C   0  0  0  0  0  0  0  0  0  0  0  0
   -5.4541    0.7490   -6.5073 C   0  0  0  0  0  0  0  0  0  0  0  0
   -5.7870   -0.7019   -4.4889 C   0  0  0  0  0  0  0  0  0  0  0  0
   -5.4884   -1.1022   -3.2139 C   0  0  0  0  0  0  0  0  0  0  0  0
   -4.5069   -1.6426   -0.2493 C   0  0  0  0  0  0  0  0  0  0  0  0
   -4.0376   -1.6272    1.0465 C   0  0  0  0  0  0  0  0  0  0  0  0
   -4.1391   -2.5440    2.0860 C   0  0  0  0  0  0  0  0  0  0  0  0
   -3.1762   -2.1587    3.4960 S   0  0  0  0  0  0  0  0  0  0  0  0
   -3.2431   -3.7736    4.1202 C   0  0  0  0  0  0  0  0  0  0  0  0
   -4.2007   -4.5185    3.3868 C   0  0  0  0  0  0  0  0  0  0  0  0
   -4.6940   -3.8393    2.2352 C   0  0  0  0  0  0  0  0  0  0  0  0
   -5.6070   -4.4874    1.3927 C   0  0  0  0  0  0  0  0  0  0  0  0
   -6.0231   -5.7689    1.6663 C   0  0  0  0  0  0  0  0  0  0  0  0
   -7.0069   -6.4733    0.7829 C   0  0  0  0  0  0  0  0  0  0  0  0
   -5.5159   -6.4349    2.7977 C   0  0  0  0  0  0  0  0  0  0  0  0
   -4.6190   -5.8335    3.6390 C   0  0  0  0  0  0  0  0  0  0  0  0
   -2.4659   -4.2126    5.2039 C   0  0  0  0  0  0  0  0  0  0  0  0
   -1.1989   -3.8181    5.5781 C   0  0  0  0  0  0  0  0  0  0  0  0
   -0.2219   -3.1277    4.8483 C   0  0  0  0  0  0  0  0  0  0  0  0
   -0.3880   -2.7083    3.1732 S   0  0  0  0  0  0  0  0  0  0  0  0
    1.2337   -2.0766    3.0342 C   0  0  0  0  0  0  0  0  0  0  0  0
    1.9296   -2.2950    4.2418 C   0  0  0  0  0  0  0  0  0  0  0  0
    1.1041   -2.8419    5.2635 C   0  0  0  0  0  0  0  0  0  0  0  0
    1.6462   -3.0688    6.5405 C   0  0  0  0  0  0  0  0  0  0  0  0
    2.9737   -2.8255    6.7858 C   0  0  0  0  0  0  0  0  0  0  0  0
    3.5987   -3.0010    7.9795 O   0  0  0  0  0  0  0  0  0  0  0  0
    2.8404   -3.4635    9.0680 C   0  0  0  0  0  0  0  0  0  0  0  0
    3.8271   -2.3822    5.7254 C   0  0  0  0  0  0  0  0  0  0  0  0
    5.1381   -2.2553    6.0663 O   0  0  0  0  0  0  0  0  0  0  0  0
    6.0405   -1.8152    5.0834 C   0  0  0  0  0  0  0  0  0  0  0  0
    3.3064   -2.1298    4.4831 C   0  0  0  0  0  0  0  0  0  0  0  0
    1.5262   -1.4800    1.8001 C   0  0  0  0  0  0  0  0  0  0  0  0
    0.4644   -1.9029    0.4830 S   0  0  0  0  0  0  0  0  0  0  0  0
    1.2445   -0.8352   -0.6494 C   0  0  0  0  0  0  0  0  0  0  0  0
    2.3384   -0.1956   -0.0258 C   0  0  0  0  0  0  0  0  0  0  0  0
    2.4636   -0.5143    1.3616 C   0  0  0  0  0  0  0  0  0  0  0  0
    3.4049    0.1801    2.1385 C   0  0  0  0  0  0  0  0  0  0  0  0
    4.2991    1.0425    1.5540 C   0  0  0  0  0  0  0  0  0  0  0  0
    5.3506    1.7324    2.3690 C   0  0  0  0  0  0  0  0  0  0  0  0
    4.2460    1.2531    0.1635 C   0  0  0  0  0  0  0  0  0  0  0  0
    3.2731    0.6777   -0.6059 C   0  0  0  0  0  0  0  0  0  0  0  0
    0.6437   -0.7650   -1.9105 C   0  0  0  0  0  0  0  0  0  0  0  0
    0.8635    0.0853   -2.9595 C   0  0  0  0  0  0  0  0  0  0  0  0
    0.0878    0.0350   -4.1292 C   0  0  0  0  0  0  0  0  0  0  0  0
   -1.1208   -1.1887   -4.3698 S   0  0  0  0  0  0  0  0  0  0  0  0
   -1.6072   -0.5591   -5.9085 C   0  0  0  0  0  0  0  0  0  0  0  0
   -0.8891    0.6041   -6.2101 C   0  0  0  0  0  0  0  0  0  0  0  0
    0.0862    0.9282   -5.2165 C   0  0  0  0  0  0  0  0  0  0  0  0
    0.8939    2.0683   -5.3711 C   0  0  0  0  0  0  0  0  0  0  0  0
    0.7284    2.8950   -6.4507 C   0  0  0  0  0  0  0  0  0  0  0  0
    1.5687    4.1210   -6.6378 C   0  0  0  0  0  0  0  0  0  0  0  0
   -0.2754    2.5986   -7.4010 C   0  0  0  0  0  0  0  0  0  0  0  0
   -1.0636    1.4902   -7.2948 C   0  0  0  0  0  0  0  0  0  0  0  0
   -2.5911   -1.3025   -6.6338 C   0  0  0  0  0  0  0  0  0  0  0  0
   -2.8216   -1.2730   -7.9485 C   0  0  0  0  0  0  0  0  0  0  0  0
    0.8196    2.0234    2.4927 H   0  0  0  0  0  0  0  0  0  0  0  0
    2.9763    3.7512    2.2883 H   0  0  0  0  0  0  0  0  0  0  0  0
    4.5111    6.4852    0.6743 H   0  0  0  0  0  0  0  0  0  0  0  0
    4.7794    5.2930    1.9511 H   0  0  0  0  0  0  0  0  0  0  0  0
    5.5261    5.0838    0.3593 H   0  0  0  0  0  0  0  0  0  0  0  0
    3.6298    5.4066   -1.5969 H   0  0  0  0  0  0  0  0  0  0  0  0
    1.6665    4.2624   -2.4780 H   0  0  0  0  0  0  0  0  0  0  0  0
   -0.1473    3.3395   -2.8245 H   0  0  0  0  0  0  0  0  0  0  0  0
   -1.9319    2.4062   -3.7468 H   0  0  0  0  0  0  0  0  0  0  0  0
   -3.4830    1.7324   -4.9438 H   0  0  0  0  0  0  0  0  0  0  0  0
   -5.3055   -0.0750   -7.2042 H   0  0  0  0  0  0  0  0  0  0  0  0
   -4.8531    1.5919   -6.8388 H   0  0  0  0  0  0  0  0  0  0  0  0
   -6.5056    1.0322   -6.5411 H   0  0  0  0  0  0  0  0  0  0  0  0
   -6.5929   -1.1785   -5.0283 H   0  0  0  0  0  0  0  0  0  0  0  0
   -6.0531   -1.8911   -2.7405 H   0  0  0  0  0  0  0  0  0  0  0  0
   -5.2247   -2.3744   -0.5845 H   0  0  0  0  0  0  0  0  0  0  0  0
   -3.3944   -0.7862    1.2863 H   0  0  0  0  0  0  0  0  0  0  0  0
   -6.0002   -3.9687    0.5331 H   0  0  0  0  0  0  0  0  0  0  0  0
   -7.3235   -5.8342   -0.0375 H   0  0  0  0  0  0  0  0  0  0  0  0
   -6.5619   -7.3773    0.3676 H   0  0  0  0  0  0  0  0  0  0  0  0
   -7.8864   -6.7690    1.3539 H   0  0  0  0  0  0  0  0  0  0  0  0
   -5.8501   -7.4427    2.9991 H   0  0  0  0  0  0  0  0  0  0  0  0
   -4.2419   -6.3596    4.5029 H   0  0  0  0  0  0  0  0  0  0  0  0
   -2.9092   -5.0015    5.8013 H   0  0  0  0  0  0  0  0  0  0  0  0
   -0.8574   -4.1945    6.5347 H   0  0  0  0  0  0  0  0  0  0  0  0
    1.0045   -3.4439    7.3201 H   0  0  0  0  0  0  0  0  0  0  0  0
    2.0266   -2.7731    9.3147 H   0  0  0  0  0  0  0  0  0  0  0  0
    3.5327   -3.5185    9.9065 H   0  0  0  0  0  0  0  0  0  0  0  0
    2.4254   -4.4588    8.8760 H   0  0  0  0  0  0  0  0  0  0  0  0
    5.7737   -0.8226    4.7051 H   0  0  0  0  0  0  0  0  0  0  0  0
    7.0099   -1.7645    5.5765 H   0  0  0  0  0  0  0  0  0  0  0  0
    6.0977   -2.5160    4.2437 H   0  0  0  0  0  0  0  0  0  0  0  0
    3.9461   -1.8557    3.6626 H   0  0  0  0  0  0  0  0  0  0  0  0
    3.4046    0.0504    3.2088 H   0  0  0  0  0  0  0  0  0  0  0  0
    6.3006    1.2036    2.2751 H   0  0  0  0  0  0  0  0  0  0  0  0
    5.0768    1.7552    3.4216 H   0  0  0  0  0  0  0  0  0  0  0  0
    5.5014    2.7505    2.0190 H   0  0  0  0  0  0  0  0  0  0  0  0
    4.9716    1.9104   -0.2925 H   0  0  0  0  0  0  0  0  0  0  0  0
    3.2322    0.8830   -1.6626 H   0  0  0  0  0  0  0  0  0  0  0  0
   -0.1719   -1.4701   -2.0387 H   0  0  0  0  0  0  0  0  0  0  0  0
    1.6173    0.8538   -2.9064 H   0  0  0  0  0  0  0  0  0  0  0  0
    1.6424    2.2916   -4.6250 H   0  0  0  0  0  0  0  0  0  0  0  0
    0.9435    5.0140   -6.6355 H   0  0  0  0  0  0  0  0  0  0  0  0
    2.0868    4.0825   -7.5955 H   0  0  0  0  0  0  0  0  0  0  0  0
    2.3086    4.2122   -5.8463 H   0  0  0  0  0  0  0  0  0  0  0  0
   -0.4158    3.2800   -8.2282 H   0  0  0  0  0  0  0  0  0  0  0  0
   -1.8402    1.3041   -8.0187 H   0  0  0  0  0  0  0  0  0  0  0  0
   -3.1614   -1.9902   -6.0199 H   0  0  0  0  0  0  0  0  0  0  0  0
   -3.5807   -1.8964   -8.3886 H   0  0  0  0  0  0  0  0  0  0  0  0
   -2.2515   -0.6654   -8.6274 H   0  0  0  0  0  0  0  0  0  0  0  0
  1  2  1  0  0  0  0
  2  3  1  0  0  0  0
  3  4  2  0  0  0  0
  4  5  1  0  0  0  0
  5  6  1  0  0  0  0
  6  7  2  0  0  0  0
  7  8  1  0  0  0  0
  7  9  1  0  0  0  0
  9 10  2  0  0  0  0
  3 11  1  0  0  0  0
 11 12  2  0  0  0  0
 12 13  1  0  0  0  0
 13 14  1  0  0  0  0
 14 15  1  0  0  0  0
 15 16  2  0  0  0  0
 16 17  1  0  0  0  0
 17 18  1  0  0  0  0
 18 19  2  0  0  0  0
 19 20  1  0  0  0  0
 19 21  1  0  0  0  0
 21 22  2  0  0  0  0
 15 23  1  0  0  0  0
 23 24  2  0  0  0  0
 24 25  1  0  0  0  0
 25 26  1  0  0  0  0
 26 27  1  0  0  0  0
 27 28  2  0  0  0  0
 28 29  1  0  0  0  0
 29 30  1  0  0  0  0
 30 31  2  0  0  0  0
 31 32  1  0  0  0  0
 31 33  1  0  0  0  0
 33 34  2  0  0  0  0
 27 35  1  0  0  0  0
 35 36  2  0  0  0  0
 36 37  1  0  0  0  0
 37 38  1  0  0  0  0
 38 39  1  0  0  0  0
 39 40  2  0  0  0  0
 40 41  1  0  0  0  0
 41 42  1  0  0  0  0
 42 43  2  0  0  0  0
 43 44  1  0  0  0  0
 44 45  1  0  0  0  0
 43 46  1  0  0  0  0
 46 47  1  0  0  0  0
 47 48  1  0  0  0  0
 46 49  2  0  0  0  0
 39 50  1  0  0  0  0
 50 51  1  0  0  0  0
 51 52  1  0  0  0  0
 52 53  2  0  0  0  0
 53 54  1  0  0  0  0
 54 55  1  0  0  0  0
 55 56  2  0  0  0  0
 56 57  1  0  0  0  0
 56 58  1  0  0  0  0
 58 59  2  0  0  0  0
 52 60  1  0  0  0  0
 60 61  2  0  0  0  0
 61 62  1  0  0  0  0
 62 63  1  0  0  0  0
 63 64  1  0  0  0  0
 64 65  2  0  0  0  0
 65 66  1  0  0  0  0
 66 67  1  0  0  0  0
 67 68  2  0  0  0  0
 68 69  1  0  0  0  0
 68 70  1  0  0  0  0
 70 71  2  0  0  0  0
 64 72  1  0  0  0  0
 72 73  2  0  0  0  0
  5  1  2  0  0  0  0
 17 13  2  0  0  0  0
 29 25  2  0  0  0  0
 41 37  2  0  0  0  0
 54 50  2  0  0  0  0
 66 62  2  0  0  0  0
 10  4  1  0  0  0  0
 22 16  1  0  0  0  0
 34 28  1  0  0  0  0
 49 40  1  0  0  0  0
 59 53  1  0  0  0  0
 71 65  1  0  0  0  0
  1 74  1  0  0  0  0
  6 75  1  0  0  0  0
  8 76  1  0  0  0  0
  8 77  1  0  0  0  0
  8 78  1  0  0  0  0
  9 79  1  0  0  0  0
 10 80  1  0  0  0  0
 11 81  1  0  0  0  0
 12 82  1  0  0  0  0
 18 83  1  0  0  0  0
 20 84  1  0  0  0  0
 20 85  1  0  0  0  0
 20 86  1  0  0  0  0
 21 87  1  0  0  0  0
 22 88  1  0  0  0  0
 23 89  1  0  0  0  0
 24 90  1  0  0  0  0
 30 91  1  0  0  0  0
 32 92  1  0  0  0  0
 32 93  1  0  0  0  0
 32 94  1  0  0  0  0
 33 95  1  0  0  0  0
 34 96  1  0  0  0  0
 35 97  1  0  0  0  0
 36 98  1  0  0  0  0
 42 99  1  0  0  0  0
 45100  1  0  0  0  0
 45101  1  0  0  0  0
 45102  1  0  0  0  0
 48103  1  0  0  0  0
 48104  1  0  0  0  0
 48105  1  0  0  0  0
 49106  1  0  0  0  0
 55107  1  0  0  0  0
 57108  1  0  0  0  0
 57109  1  0  0  0  0
 57110  1  0  0  0  0
 58111  1  0  0  0  0
 59112  1  0  0  0  0
 60113  1  0  0  0  0
 61114  1  0  0  0  0
 67115  1  0  0  0  0
 69116  1  0  0  0  0
 69117  1  0  0  0  0
 69118  1  0  0  0  0
 70119  1  0  0  0  0
 71120  1  0  0  0  0
 72121  1  0  0  0  0
 73122  1  0  0  0  0
 73123  1  0  0  0  0
M  END
