83

C          6.55500        8.73490        1.70720
C          7.02120        7.45690        1.43040
C          6.16750        6.28220        1.52680
N          6.84590        5.16000        1.26590
S          8.35680        5.53850        0.90480
N          8.27230        7.12720        1.07320
C          4.81980        6.36770        1.91450
C          4.35830        7.66570        2.19060
N          3.10700        8.01050        2.51170
S          3.03520        9.59720        2.69400
N          4.55700        9.96400        2.36340
C          5.22200        8.83240        2.08310
C          3.97630        5.20400        2.01490
C          3.07620        5.00640        3.07550
C          2.22360        3.83210        3.19710
N          1.46300        3.91230        4.28870
S          1.79770        5.26880        5.08570
N          2.92260        5.84080        4.10580
C          2.21760        2.79080        2.23030
C          3.10400        3.03330        1.14530
N          3.24260        2.23130        0.09180
S          4.32010        2.86150       -0.92140
N          4.67590        4.18010       -0.08820
C          3.97340        4.18610        1.04810
C          1.40170        1.63210        2.20550
S          1.15450        0.86050        0.66780
C          0.08930       -0.34890        1.31740
C         -0.07320       -0.15240        2.71050
C          0.67540        0.95010        3.21120
C          0.67330        1.20710        4.59060
C         -0.11190        0.47070        5.44360
O         -0.18740        0.65330        6.78270
C          0.57500        1.68630        7.35970
C         -0.94080       -0.57130        4.92470
O         -1.70570       -1.20990        5.84070
C         -2.52300       -2.27000        5.40500
C         -0.90790       -0.86530        3.58340
C         -0.42570       -1.31820        0.42430
C         -0.95250       -2.60060        0.73940
C         -1.47480       -3.50160       -0.27560
N         -1.82980       -4.67880        0.24030
S         -1.55970       -4.67020        1.81540
N         -0.96820       -3.17930        1.94000
C         -1.50050       -3.19500       -1.65010
C         -0.91840       -1.95750       -1.98020
N         -0.83350       -1.43000       -3.20320
S         -0.13640        0.00690       -3.11360
N          0.07330        0.06130       -1.51990
C         -0.39130       -1.06050       -0.97430
C         -2.06600       -4.08070       -2.62550
C         -3.26320       -4.78650       -2.39500
C         -3.85220       -5.66790       -3.38680
N         -5.03120       -6.14840       -2.97850
S         -5.34940       -5.57450       -1.51990
N         -4.04400       -4.66960       -1.31740
C         -3.26630       -5.88640       -4.64490
C         -2.06620       -5.19230       -4.87240
N         -1.28370       -5.31520       -5.94970
S          0.02110       -4.41140       -5.74930
N         -0.29970       -3.82850       -4.29430
C         -1.47870       -4.30410       -3.88550
C         -3.85640       -6.75530       -5.63360
C         -3.91670       -6.41210       -6.99390
C         -4.51740       -7.28980       -7.98740
N         -4.48380       -6.74140       -9.21220
S         -3.80300       -5.29770       -9.10950
N         -3.50740       -5.26190       -7.53990
C         -5.06470       -8.52090       -7.65270
C         -5.00900       -8.87100       -6.31060
N         -5.45150      -10.01690       -5.76900
S         -5.13360       -9.99970       -4.20150
N         -4.42710       -8.57100       -4.09590
C         -4.41390       -8.00160       -5.30610
H          7.18950        9.60050        1.63290
H          1.27890        2.01160        4.96190
H          0.31540        2.66140        6.93570
H          1.64800        1.51140        7.23180
H          0.33050        1.67200        8.42060
H         -1.93250       -3.06870        4.94540
H         -3.01400       -2.64750        6.30050
H         -3.28020       -1.92560        4.69330
H         -1.50130       -1.66570        3.18530
H         -5.50660       -9.16650       -8.39130
