96

C          8.01370        1.99540        5.99290
S          7.26290        2.14830        7.54630
C          5.71600        1.49430        7.01950
C          5.85290        1.16660        5.69560
C          7.11840        1.45850        5.13120
O          7.07720        1.10880        3.81330
C          5.83420        0.61240        3.57570
O          5.44610        0.24760        2.51550
O          5.09140        0.59960        4.71040
C          4.62720        1.38960        7.94030
C          3.31230        1.29010        7.63170
C          2.73390        1.43550        6.33760
S          1.42540        0.40140        5.85520
C          1.45810        0.97640        4.21770
C          2.45290        1.94920        4.05770
C          3.11750        2.25940        5.27930
C          4.05830        3.31490        5.31280
C          4.47500        3.88720        4.14390
O          5.38950        4.88040        4.03730
C          5.94430        5.40910        5.21650
C          3.97120        3.40020        2.88260
O          4.57810        3.92740        1.79450
C          4.29200        3.35770        0.53770
C          2.95150        2.48930        2.85310
C          0.59200        0.42080        3.24570
S          0.12920       -1.24740        3.34080
C         -0.75680       -1.16600        1.84460
C         -0.72130        0.13140        1.31100
C          0.01820        1.03610        2.12350
C          0.03310        2.40960        1.80020
C         -0.58090        2.85190        0.66070
O         -0.62570        4.14030        0.24500
C         -0.01670        5.12340        1.04670
C         -1.25640        1.92160       -0.20560
O         -1.79620        2.47680       -1.31200
C         -2.48960        1.64340       -2.21030
C         -1.33640        0.59620        0.13340
C         -1.37740       -2.33450        1.37140
S         -2.20440       -2.50740       -0.17210
C         -2.62090       -4.20810        0.06540
C         -2.12360       -4.56930        1.29840
C         -1.44950       -3.56360        1.99660
O         -1.02000       -4.08610        3.18370
C         -1.42480       -5.38500        3.20720
O         -1.22170       -6.13960        4.09650
O         -2.09940       -5.69700        2.06350
C         -3.32500       -4.97290       -0.88510
C         -3.70190       -4.50210       -2.10200
C         -4.40160       -5.27240       -3.05660
S         -4.79560       -4.62770       -4.64270
C         -5.59620       -6.08580       -5.20740
C         -5.54770       -6.98780       -4.16400
C         -4.88980       -6.55970       -3.00570
O         -4.92590       -7.58280       -2.10040
C         -5.59330       -8.61030       -2.69420
O         -5.80870       -9.65810       -2.18740
O         -5.97990       -8.26460       -3.95530
C         -6.27680       -6.31030       -6.43250
C         -6.30880       -5.64010       -7.60860
C         -5.57530       -4.53310       -8.11620
S         -4.14010       -3.76490       -7.46180
C         -3.92190       -2.67100       -8.81370
C         -4.92970       -2.91610       -9.70950
C         -5.82020       -3.93350       -9.33220
O         -6.75140       -4.06470      -10.32140
C         -6.43980       -3.14800      -11.27970
O         -7.04740       -2.98950      -12.28350
O         -5.33330       -2.43890      -10.92430
C         -2.83620       -1.73530       -8.85400
C         -2.62870       -0.89850       -9.86950
H          9.02560        2.30380        5.83970
H          4.91810        1.36020        8.98090
H          2.62950        1.02750        8.42970
H          4.43790        3.63940        6.26720
H          5.17520        5.84700        5.86080
H          6.49660        4.64930        5.78020
H          6.63200        6.18810        4.89280
H          4.48110        2.28000        0.54260
H          4.96570        3.84550       -0.16430
H          3.25620        3.54560        0.23490
H          2.55620        2.12680        1.92030
H          0.51350        3.09400        2.47810
H          1.05730        4.94350        1.16280
H         -0.17030        6.06490        0.52270
H         -0.48100        5.17810        2.03640
H         -3.36070        1.18030       -1.73670
H         -1.83940        0.86080       -2.61360
H         -2.81930        2.29430       -3.01800
H         -1.87250       -0.10270       -0.48440
H         -3.55140       -5.99110       -0.59960
H         -3.45710       -3.48760       -2.38420
H         -6.89150       -7.20180       -6.38180
H         -7.00510       -6.01750       -8.34850
H         -2.18170       -1.75160       -7.99420
H         -1.80310       -0.20990       -9.86770
H         -3.27910       -0.88430      -10.72720
