
  xtb     03022209123D
 energy: -149.879793591235 gnorm: 0.000564961489 xtb: 6.4.1 (unknown)
 88 94  0     0  0            999 V2000
    0.5826    6.3333   -4.0734 C   0  0  0  0  0  0  0  0  0  0  0  0
   -0.1862    6.4400   -2.9530 N   0  0  0  0  0  0  0  0  0  0  0  0
   -0.4135    5.2191   -2.4123 C   0  0  0  0  0  0  0  0  0  0  0  0
    0.2480    4.2701   -3.2255 C   0  0  0  0  0  0  0  0  0  0  0  0
    0.8696    5.0204   -4.2705 C   0  0  0  0  0  0  0  0  0  0  0  0
    0.3410    2.8374   -3.0942 C   0  0  0  0  0  0  0  0  0  0  0  0
   -0.1955    2.1697   -2.2067 O   0  0  0  0  0  0  0  0  0  0  0  0
    1.1687    2.1295   -4.1380 C   0  0  0  0  0  0  0  0  0  0  0  0
   -1.2048    5.0923   -1.2310 C   0  0  0  0  0  0  0  0  0  0  0  0
   -1.5405    3.8753   -0.7193 N   0  0  0  0  0  0  0  0  0  0  0  0
   -2.2885    4.0110    0.3999 C   0  0  0  0  0  0  0  0  0  0  0  0
   -2.4413    5.3885    0.6349 C   0  0  0  0  0  0  0  0  0  0  0  0
   -1.7732    6.0543   -0.4117 C   0  0  0  0  0  0  0  0  0  0  0  0
   -3.0568    6.1267    1.7418 C   0  0  0  0  0  0  0  0  0  0  0  0
   -3.5437    7.2248    1.5725 O   0  0  0  0  0  0  0  0  0  0  0  0
   -2.9527    5.5191    3.1238 C   0  0  0  0  0  0  0  0  0  0  0  0
   -2.8484    2.8467    1.0209 C   0  0  0  0  0  0  0  0  0  0  0  0
   -2.3487    1.5940    0.7538 N   0  0  0  0  0  0  0  0  0  0  0  0
   -3.0779    0.6395    1.3931 C   0  0  0  0  0  0  0  0  0  0  0  0
   -4.0869    1.2993    2.1112 C   0  0  0  0  0  0  0  0  0  0  0  0
   -3.9295    2.6815    1.8576 C   0  0  0  0  0  0  0  0  0  0  0  0
   -5.0600    0.7128    3.0315 C   0  0  0  0  0  0  0  0  0  0  0  0
   -5.0331   -0.4469    3.3846 O   0  0  0  0  0  0  0  0  0  0  0  0
   -6.1063    1.6722    3.5558 C   0  0  0  0  0  0  0  0  0  0  0  0
   -2.7683   -0.7504    1.2315 C   0  0  0  0  0  0  0  0  0  0  0  0
   -1.5133   -1.1667    0.8545 N   0  0  0  0  0  0  0  0  0  0  0  0
   -1.4736   -2.5243    0.7373 C   0  0  0  0  0  0  0  0  0  0  0  0
   -2.7554   -3.0005    1.0256 C   0  0  0  0  0  0  0  0  0  0  0  0
   -3.5540   -1.8791    1.3317 C   0  0  0  0  0  0  0  0  0  0  0  0
   -3.2682   -4.3745    1.1077 C   0  0  0  0  0  0  0  0  0  0  0  0
   -4.4390   -4.6205    0.9225 O   0  0  0  0  0  0  0  0  0  0  0  0
   -2.2852   -5.4594    1.4895 C   0  0  0  0  0  0  0  0  0  0  0  0
   -0.2592   -3.1764    0.3355 C   0  0  0  0  0  0  0  0  0  0  0  0
   -0.2410   -4.4166   -0.8711 S   0  0  0  0  0  0  0  0  0  0  0  0
    1.4838   -4.5572   -0.8175 C   0  0  0  0  0  0  0  0  0  0  0  0
    2.0283   -3.6785    0.1134 C   0  0  0  0  0  0  0  0  0  0  0  0
    1.0318   -2.8813    0.7606 C   0  0  0  0  0  0  0  0  0  0  0  0
    1.4102   -1.9728    1.7800 C   0  0  0  0  0  0  0  0  0  0  0  0
    2.7213   -1.8508    2.1342 C   0  0  0  0  0  0  0  0  0  0  0  0
    3.2066   -1.0263    3.0963 O   0  0  0  0  0  0  0  0  0  0  0  0
    2.2950   -0.2484    3.8302 C   0  0  0  0  0  0  0  0  0  0  0  0
    3.7273   -2.6592    1.4895 C   0  0  0  0  0  0  0  0  0  0  0  0
    4.9833   -2.4552    1.9639 O   0  0  0  0  0  0  0  0  0  0  0  0
    6.0289   -3.2412    1.4531 C   0  0  0  0  0  0  0  0  0  0  0  0
    3.3818   -3.5494    0.5153 C   0  0  0  0  0  0  0  0  0  0  0  0
    2.1249   -5.5012   -1.6843 C   0  0  0  0  0  0  0  0  0  0  0  0
    3.4070   -5.3487   -2.1540 N   0  0  0  0  0  0  0  0  0  0  0  0
    3.7314   -6.3839   -2.9576 C   0  0  0  0  0  0  0  0  0  0  0  0
    2.6506   -7.2457   -3.0165 C   0  0  0  0  0  0  0  0  0  0  0  0
    1.6335   -6.6740   -2.2137 C   0  0  0  0  0  0  0  0  0  0  0  0
    2.5328   -8.5093   -3.7450 C   0  0  0  0  0  0  0  0  0  0  0  0
    1.5248   -9.1803   -3.7210 O   0  0  0  0  0  0  0  0  0  0  0  0
    3.7570   -8.9264   -4.5315 C   0  0  0  0  0  0  0  0  0  0  0  0
    0.8639    7.1977   -4.6409 H   0  0  0  0  0  0  0  0  0  0  0  0
   -0.5546    7.2968   -2.5742 H   0  0  0  0  0  0  0  0  0  0  0  0
    1.4567    4.6253   -5.0734 H   0  0  0  0  0  0  0  0  0  0  0  0
    1.1784    1.0635   -3.9238 H   0  0  0  0  0  0  0  0  0  0  0  0
    2.1878    2.5089   -4.1348 H   0  0  0  0  0  0  0  0  0  0  0  0
    0.7406    2.2920   -5.1245 H   0  0  0  0  0  0  0  0  0  0  0  0
   -1.2122    3.0201   -1.1797 H   0  0  0  0  0  0  0  0  0  0  0  0
   -1.7094    7.1206   -0.5001 H   0  0  0  0  0  0  0  0  0  0  0  0
   -2.3480    6.1912    3.7318 H   0  0  0  0  0  0  0  0  0  0  0  0
   -3.9383    5.4780    3.5824 H   0  0  0  0  0  0  0  0  0  0  0  0
   -2.5000    4.5343    3.1125 H   0  0  0  0  0  0  0  0  0  0  0  0
   -1.6012    1.4077    0.1044 H   0  0  0  0  0  0  0  0  0  0  0  0
   -4.5513    3.4689    2.2271 H   0  0  0  0  0  0  0  0  0  0  0  0
   -6.6135    2.1661    2.7310 H   0  0  0  0  0  0  0  0  0  0  0  0
   -6.8280    1.1217    4.1533 H   0  0  0  0  0  0  0  0  0  0  0  0
   -5.6335    2.4289    4.1782 H   0  0  0  0  0  0  0  0  0  0  0  0
   -0.7229   -0.5728    0.6627 H   0  0  0  0  0  0  0  0  0  0  0  0
   -4.5820   -1.9206    1.6233 H   0  0  0  0  0  0  0  0  0  0  0  0
   -2.0142   -6.0225    0.5983 H   0  0  0  0  0  0  0  0  0  0  0  0
   -2.7787   -6.1473    2.1725 H   0  0  0  0  0  0  0  0  0  0  0  0
   -1.3882   -5.0563    1.9491 H   0  0  0  0  0  0  0  0  0  0  0  0
    0.6408   -1.4227    2.2967 H   0  0  0  0  0  0  0  0  0  0  0  0
    1.7638    0.4625    3.1877 H   0  0  0  0  0  0  0  0  0  0  0  0
    1.5668   -0.8716    4.3593 H   0  0  0  0  0  0  0  0  0  0  0  0
    2.8934    0.3008    4.5549 H   0  0  0  0  0  0  0  0  0  0  0  0
    6.1758   -3.0691    0.3809 H   0  0  0  0  0  0  0  0  0  0  0  0
    5.8553   -4.3081    1.6294 H   0  0  0  0  0  0  0  0  0  0  0  0
    6.9219   -2.9285    1.9913 H   0  0  0  0  0  0  0  0  0  0  0  0
    4.1225   -4.2012    0.0831 H   0  0  0  0  0  0  0  0  0  0  0  0
    3.9817   -4.5402   -1.9835 H   0  0  0  0  0  0  0  0  0  0  0  0
    4.6943   -6.4424   -3.4253 H   0  0  0  0  0  0  0  0  0  0  0  0
    0.6648   -7.0980   -2.0449 H   0  0  0  0  0  0  0  0  0  0  0  0
    3.9961   -8.1682   -5.2736 H   0  0  0  0  0  0  0  0  0  0  0  0
    4.6071   -9.0368   -3.8622 H   0  0  0  0  0  0  0  0  0  0  0  0
    3.5637   -9.8723   -5.0300 H   0  0  0  0  0  0  0  0  0  0  0  0
  1  2  1  0  0  0  0
  2  3  1  0  0  0  0
  3  4  2  0  0  0  0
  4  5  1  0  0  0  0
  4  6  1  0  0  0  0
  6  7  2  0  0  0  0
  6  8  1  0  0  0  0
  3  9  1  0  0  0  0
  9 10  1  0  0  0  0
 10 11  1  0  0  0  0
 11 12  2  0  0  0  0
 12 13  1  0  0  0  0
 12 14  1  0  0  0  0
 14 15  2  0  0  0  0
 14 16  1  0  0  0  0
 11 17  1  0  0  0  0
 17 18  1  0  0  0  0
 18 19  1  0  0  0  0
 19 20  2  0  0  0  0
 20 21  1  0  0  0  0
 20 22  1  0  0  0  0
 22 23  2  0  0  0  0
 22 24  1  0  0  0  0
 19 25  1  0  0  0  0
 25 26  1  0  0  0  0
 26 27  1  0  0  0  0
 27 28  2  0  0  0  0
 28 29  1  0  0  0  0
 28 30  1  0  0  0  0
 30 31  2  0  0  0  0
 30 32  1  0  0  0  0
 27 33  1  0  0  0  0
 33 34  1  0  0  0  0
 34 35  1  0  0  0  0
 35 36  2  0  0  0  0
 36 37  1  0  0  0  0
 37 38  1  0  0  0  0
 38 39  2  0  0  0  0
 39 40  1  0  0  0  0
 40 41  1  0  0  0  0
 39 42  1  0  0  0  0
 42 43  1  0  0  0  0
 43 44  1  0  0  0  0
 42 45  2  0  0  0  0
 35 46  1  0  0  0  0
 46 47  1  0  0  0  0
 47 48  1  0  0  0  0
 48 49  2  0  0  0  0
 49 50  1  0  0  0  0
 49 51  1  0  0  0  0
 51 52  2  0  0  0  0
 51 53  1  0  0  0  0
  5  1  2  0  0  0  0
 13  9  2  0  0  0  0
 21 17  2  0  0  0  0
 29 25  2  0  0  0  0
 37 33  2  0  0  0  0
 50 46  2  0  0  0  0
 45 36  1  0  0  0  0
  1 54  1  0  0  0  0
  2 55  1  0  0  0  0
  5 56  1  0  0  0  0
  8 57  1  0  0  0  0
  8 58  1  0  0  0  0
  8 59  1  0  0  0  0
 10 60  1  0  0  0  0
 13 61  1  0  0  0  0
 16 62  1  0  0  0  0
 16 63  1  0  0  0  0
 16 64  1  0  0  0  0
 18 65  1  0  0  0  0
 21 66  1  0  0  0  0
 24 67  1  0  0  0  0
 24 68  1  0  0  0  0
 24 69  1  0  0  0  0
 26 70  1  0  0  0  0
 29 71  1  0  0  0  0
 32 72  1  0  0  0  0
 32 73  1  0  0  0  0
 32 74  1  0  0  0  0
 38 75  1  0  0  0  0
 41 76  1  0  0  0  0
 41 77  1  0  0  0  0
 41 78  1  0  0  0  0
 44 79  1  0  0  0  0
 44 80  1  0  0  0  0
 44 81  1  0  0  0  0
 45 82  1  0  0  0  0
 47 83  1  0  0  0  0
 48 84  1  0  0  0  0
 50 85  1  0  0  0  0
 53 86  1  0  0  0  0
 53 87  1  0  0  0  0
 53 88  1  0  0  0  0
M  END
