
  xtb     03042218413D
 energy: -234.787133232882 gnorm: 0.000366495165 xtb: 6.4.1 (unknown)
116127  0     0  0            999 V2000
    1.3438   -0.0251    1.5313 C   0  0  0  0  0  0  0  0  0  0  0  0
    1.4277   -1.7290    1.6670 S   0  0  0  0  0  0  0  0  0  0  0  0
    0.9773   -1.9588    0.0060 C   0  0  0  0  0  0  0  0  0  0  0  0
    0.7512   -0.7173   -0.5879 C   0  0  0  0  0  0  0  0  0  0  0  0
    0.9785    0.3810    0.2770 C   0  0  0  0  0  0  0  0  0  0  0  0
    0.7378    2.0991   -0.0822 S   0  0  0  0  0  0  0  0  0  0  0  0
    1.3432    2.2938   -1.7428 C   0  0  0  0  0  0  0  0  0  0  0  0
    1.2133    3.3458   -2.3010 O   0  0  0  0  0  0  0  0  0  0  0  0
    1.9408    1.0599   -2.3683 C   0  0  0  0  0  0  0  0  0  0  0  0
    0.7538    0.2033   -2.7873 C   0  0  0  0  0  0  0  0  0  0  0  0
    0.2331    0.2835   -3.8621 O   0  0  0  0  0  0  0  0  0  0  0  0
    0.2821   -0.6518   -1.8738 O   0  0  0  0  0  0  0  0  0  0  0  0
    0.8699   -3.1663   -0.7386 C   0  0  0  0  0  0  0  0  0  0  0  0
    0.9967   -4.4892   -0.4636 C   0  0  0  0  0  0  0  0  0  0  0  0
    1.2511   -5.2521    0.7034 C   0  0  0  0  0  0  0  0  0  0  0  0
    1.6507   -4.6418    2.2806 S   0  0  0  0  0  0  0  0  0  0  0  0
    1.6290   -6.2214    3.0045 C   0  0  0  0  0  0  0  0  0  0  0  0
    1.3958   -7.1803    2.0280 C   0  0  0  0  0  0  0  0  0  0  0  0
    1.1735   -6.6457    0.7446 C   0  0  0  0  0  0  0  0  0  0  0  0
    0.6606   -7.5865   -0.6623 S   0  0  0  0  0  0  0  0  0  0  0  0
    1.7384   -9.0153   -0.6669 C   0  0  0  0  0  0  0  0  0  0  0  0
    1.6118   -9.8214   -1.5354 O   0  0  0  0  0  0  0  0  0  0  0  0
    2.7050   -9.0981    0.4844 C   0  0  0  0  0  0  0  0  0  0  0  0
    1.8982   -9.4970    1.7158 C   0  0  0  0  0  0  0  0  0  0  0  0
    1.7700  -10.6226    2.0880 O   0  0  0  0  0  0  0  0  0  0  0  0
    1.3022   -8.4968    2.3911 O   0  0  0  0  0  0  0  0  0  0  0  0
    1.9108   -6.4884    4.3809 C   0  0  0  0  0  0  0  0  0  0  0  0
    1.7340   -5.6482    5.4270 C   0  0  0  0  0  0  0  0  0  0  0  0
    1.0251   -4.4093    5.3596 C   0  0  0  0  0  0  0  0  0  0  0  0
   -0.4369   -4.2607    4.4240 S   0  0  0  0  0  0  0  0  0  0  0  0
   -0.4635   -2.5323    4.6036 C   0  0  0  0  0  0  0  0  0  0  0  0
    0.5250   -2.1364    5.5024 C   0  0  0  0  0  0  0  0  0  0  0  0
    1.3543   -3.1908    5.9292 C   0  0  0  0  0  0  0  0  0  0  0  0
    2.7311   -3.0187    7.0233 S   0  0  0  0  0  0  0  0  0  0  0  0
    3.6236   -1.6225    6.3612 C   0  0  0  0  0  0  0  0  0  0  0  0
    4.6233   -1.2639    6.9060 O   0  0  0  0  0  0  0  0  0  0  0  0
    3.0114   -0.9663    5.1473 C   0  0  0  0  0  0  0  0  0  0  0  0
    1.8175   -0.1416    5.6177 C   0  0  0  0  0  0  0  0  0  0  0  0
    1.8670    1.0354    5.8186 O   0  0  0  0  0  0  0  0  0  0  0  0
    0.6682   -0.8067    5.8134 O   0  0  0  0  0  0  0  0  0  0  0  0
   -1.2164   -1.6977    3.7581 C   0  0  0  0  0  0  0  0  0  0  0  0
   -1.7751   -2.1626    2.5999 C   0  0  0  0  0  0  0  0  0  0  0  0
   -2.2209   -1.3713    1.5406 C   0  0  0  0  0  0  0  0  0  0  0  0
   -2.3081    0.3636    1.6585 S   0  0  0  0  0  0  0  0  0  0  0  0
   -2.5209    0.5676   -0.0603 C   0  0  0  0  0  0  0  0  0  0  0  0
   -2.5784   -0.6961   -0.6951 C   0  0  0  0  0  0  0  0  0  0  0  0
   -2.4352   -1.7810    0.2108 C   0  0  0  0  0  0  0  0  0  0  0  0
   -2.4444   -3.1052   -0.2615 C   0  0  0  0  0  0  0  0  0  0  0  0
   -2.5424   -3.3540   -1.6056 C   0  0  0  0  0  0  0  0  0  0  0  0
   -2.5399   -4.5763   -2.1778 O   0  0  0  0  0  0  0  0  0  0  0  0
   -2.5300   -5.7124   -1.3475 C   0  0  0  0  0  0  0  0  0  0  0  0
   -2.6563   -2.2592   -2.5315 C   0  0  0  0  0  0  0  0  0  0  0  0
   -2.7074   -2.6187   -3.8255 O   0  0  0  0  0  0  0  0  0  0  0  0
   -2.6955   -1.6064   -4.8123 C   0  0  0  0  0  0  0  0  0  0  0  0
   -2.7108   -0.9683   -2.0683 C   0  0  0  0  0  0  0  0  0  0  0  0
   -2.4713    1.8461   -0.6350 C   0  0  0  0  0  0  0  0  0  0  0  0
   -2.1506    2.0260   -2.3400 S   0  0  0  0  0  0  0  0  0  0  0  0
   -1.8913    3.7365   -2.2185 C   0  0  0  0  0  0  0  0  0  0  0  0
   -2.1570    4.1761   -0.9106 C   0  0  0  0  0  0  0  0  0  0  0  0
   -2.4833    3.1153   -0.0173 C   0  0  0  0  0  0  0  0  0  0  0  0
   -2.7784    3.4101    1.3251 C   0  0  0  0  0  0  0  0  0  0  0  0
   -2.7289    4.7028    1.7807 C   0  0  0  0  0  0  0  0  0  0  0  0
   -2.9840    5.0935    3.0459 O   0  0  0  0  0  0  0  0  0  0  0  0
   -3.2764    4.1102    4.0110 C   0  0  0  0  0  0  0  0  0  0  0  0
   -2.4006    5.7718    0.8785 C   0  0  0  0  0  0  0  0  0  0  0  0
   -2.4024    7.0000    1.4383 O   0  0  0  0  0  0  0  0  0  0  0  0
   -2.0766    8.1070    0.6313 C   0  0  0  0  0  0  0  0  0  0  0  0
   -2.1348    5.5016   -0.4378 C   0  0  0  0  0  0  0  0  0  0  0  0
   -1.3493    4.4314   -3.3202 C   0  0  0  0  0  0  0  0  0  0  0  0
   -0.6698    6.0279   -3.1644 S   0  0  0  0  0  0  0  0  0  0  0  0
   -0.0984    6.0424   -4.7985 C   0  0  0  0  0  0  0  0  0  0  0  0
   -0.4390    4.8620   -5.4310 C   0  0  0  0  0  0  0  0  0  0  0  0
   -1.1471    3.9552   -4.6143 C   0  0  0  0  0  0  0  0  0  0  0  0
   -1.8800    2.4675   -5.2153 S   0  0  0  0  0  0  0  0  0  0  0  0
   -0.5764    1.6609   -6.1382 C   0  0  0  0  0  0  0  0  0  0  0  0
   -0.8144    0.6308   -6.6869 O   0  0  0  0  0  0  0  0  0  0  0  0
    0.7121    2.4362   -6.2085 C   0  0  0  0  0  0  0  0  0  0  0  0
    0.4848    3.5606   -7.2111 C   0  0  0  0  0  0  0  0  0  0  0  0
    0.7892    3.4912   -8.3638 O   0  0  0  0  0  0  0  0  0  0  0  0
   -0.1097    4.6746   -6.7485 O   0  0  0  0  0  0  0  0  0  0  0  0
    0.6076    7.1454   -5.3811 C   0  0  0  0  0  0  0  0  0  0  0  0
    0.9111    8.2715   -4.7393 C   0  0  0  0  0  0  0  0  0  0  0  0
    1.5481    0.6010    2.3758 H   0  0  0  0  0  0  0  0  0  0  0  0
    2.5837    0.5231   -1.6697 H   0  0  0  0  0  0  0  0  0  0  0  0
    2.4952    1.3532   -3.2609 H   0  0  0  0  0  0  0  0  0  0  0  0
    0.6167   -2.9490   -1.7704 H   0  0  0  0  0  0  0  0  0  0  0  0
    0.8409   -5.1336   -1.3225 H   0  0  0  0  0  0  0  0  0  0  0  0
    3.4228   -9.8916    0.2714 H   0  0  0  0  0  0  0  0  0  0  0  0
    3.2118   -8.1448    0.6465 H   0  0  0  0  0  0  0  0  0  0  0  0
    2.3347   -7.4663    4.5679 H   0  0  0  0  0  0  0  0  0  0  0  0
    2.1567   -5.9136    6.3865 H   0  0  0  0  0  0  0  0  0  0  0  0
    2.6981   -1.7082    4.4090 H   0  0  0  0  0  0  0  0  0  0  0  0
    3.7521   -0.2850    4.7259 H   0  0  0  0  0  0  0  0  0  0  0  0
   -1.2012   -0.6384    3.9734 H   0  0  0  0  0  0  0  0  0  0  0  0
   -1.7507   -3.2304    2.4252 H   0  0  0  0  0  0  0  0  0  0  0  0
   -2.3617   -3.9133    0.4459 H   0  0  0  0  0  0  0  0  0  0  0  0
   -3.4093   -5.7385   -0.6963 H   0  0  0  0  0  0  0  0  0  0  0  0
   -1.6234   -5.7580   -0.7353 H   0  0  0  0  0  0  0  0  0  0  0  0
   -2.5515   -6.5678   -2.0198 H   0  0  0  0  0  0  0  0  0  0  0  0
   -1.8157   -0.9646   -4.7175 H   0  0  0  0  0  0  0  0  0  0  0  0
   -3.6018   -0.9955   -4.7703 H   0  0  0  0  0  0  0  0  0  0  0  0
   -2.6575   -2.1273   -5.7665 H   0  0  0  0  0  0  0  0  0  0  0  0
   -2.8511   -0.1645   -2.7668 H   0  0  0  0  0  0  0  0  0  0  0  0
   -3.0685    2.6154    1.9886 H   0  0  0  0  0  0  0  0  0  0  0  0
   -4.2032    3.5782    3.7738 H   0  0  0  0  0  0  0  0  0  0  0  0
   -2.4583    3.3900    4.1086 H   0  0  0  0  0  0  0  0  0  0  0  0
   -3.3991    4.6488    4.9488 H   0  0  0  0  0  0  0  0  0  0  0  0
   -1.0727    8.0102    0.2065 H   0  0  0  0  0  0  0  0  0  0  0  0
   -2.8013    8.2404   -0.1780 H   0  0  0  0  0  0  0  0  0  0  0  0
   -2.1105    8.9705    1.2930 H   0  0  0  0  0  0  0  0  0  0  0  0
   -1.9264    6.2996   -1.1275 H   0  0  0  0  0  0  0  0  0  0  0  0
    0.9831    2.8333   -5.2285 H   0  0  0  0  0  0  0  0  0  0  0  0
    1.4885    1.7763   -6.5965 H   0  0  0  0  0  0  0  0  0  0  0  0
    0.8836    7.0006   -6.4171 H   0  0  0  0  0  0  0  0  0  0  0  0
    1.4412    9.0703   -5.2251 H   0  0  0  0  0  0  0  0  0  0  0  0
    0.6345    8.4205   -3.7083 H   0  0  0  0  0  0  0  0  0  0  0  0
  1  2  1  0  0  0  0
  2  3  1  0  0  0  0
  3  4  2  0  0  0  0
  4  5  1  0  0  0  0
  5  6  1  0  0  0  0
  6  7  1  0  0  0  0
  7  8  2  0  0  0  0
  7  9  1  0  0  0  0
  9 10  1  0  0  0  0
 10 11  2  0  0  0  0
 10 12  1  0  0  0  0
  3 13  1  0  0  0  0
 13 14  2  0  0  0  0
 14 15  1  0  0  0  0
 15 16  1  0  0  0  0
 16 17  1  0  0  0  0
 17 18  2  0  0  0  0
 18 19  1  0  0  0  0
 19 20  1  0  0  0  0
 20 21  1  0  0  0  0
 21 22  2  0  0  0  0
 21 23  1  0  0  0  0
 23 24  1  0  0  0  0
 24 25  2  0  0  0  0
 24 26  1  0  0  0  0
 17 27  1  0  0  0  0
 27 28  2  0  0  0  0
 28 29  1  0  0  0  0
 29 30  1  0  0  0  0
 30 31  1  0  0  0  0
 31 32  2  0  0  0  0
 32 33  1  0  0  0  0
 33 34  1  0  0  0  0
 34 35  1  0  0  0  0
 35 36  2  0  0  0  0
 35 37  1  0  0  0  0
 37 38  1  0  0  0  0
 38 39  2  0  0  0  0
 38 40  1  0  0  0  0
 31 41  1  0  0  0  0
 41 42  2  0  0  0  0
 42 43  1  0  0  0  0
 43 44  1  0  0  0  0
 44 45  1  0  0  0  0
 45 46  2  0  0  0  0
 46 47  1  0  0  0  0
 47 48  1  0  0  0  0
 48 49  2  0  0  0  0
 49 50  1  0  0  0  0
 50 51  1  0  0  0  0
 49 52  1  0  0  0  0
 52 53  1  0  0  0  0
 53 54  1  0  0  0  0
 52 55  2  0  0  0  0
 45 56  1  0  0  0  0
 56 57  1  0  0  0  0
 57 58  1  0  0  0  0
 58 59  2  0  0  0  0
 59 60  1  0  0  0  0
 60 61  1  0  0  0  0
 61 62  2  0  0  0  0
 62 63  1  0  0  0  0
 63 64  1  0  0  0  0
 62 65  1  0  0  0  0
 65 66  1  0  0  0  0
 66 67  1  0  0  0  0
 65 68  2  0  0  0  0
 58 69  1  0  0  0  0
 69 70  1  0  0  0  0
 70 71  1  0  0  0  0
 71 72  2  0  0  0  0
 72 73  1  0  0  0  0
 73 74  1  0  0  0  0
 74 75  1  0  0  0  0
 75 76  2  0  0  0  0
 75 77  1  0  0  0  0
 77 78  1  0  0  0  0
 78 79  2  0  0  0  0
 78 80  1  0  0  0  0
 71 81  1  0  0  0  0
 81 82  2  0  0  0  0
  5  1  2  0  0  0  0
 19 15  2  0  0  0  0
 33 29  2  0  0  0  0
 47 43  2  0  0  0  0
 60 56  2  0  0  0  0
 73 69  2  0  0  0  0
 12  4  1  0  0  0  0
 26 18  1  0  0  0  0
 40 32  1  0  0  0  0
 55 46  1  0  0  0  0
 68 59  1  0  0  0  0
 80 72  1  0  0  0  0
  1 83  1  0  0  0  0
  9 84  1  0  0  0  0
  9 85  1  0  0  0  0
 13 86  1  0  0  0  0
 14 87  1  0  0  0  0
 23 88  1  0  0  0  0
 23 89  1  0  0  0  0
 27 90  1  0  0  0  0
 28 91  1  0  0  0  0
 37 92  1  0  0  0  0
 37 93  1  0  0  0  0
 41 94  1  0  0  0  0
 42 95  1  0  0  0  0
 48 96  1  0  0  0  0
 51 97  1  0  0  0  0
 51 98  1  0  0  0  0
 51 99  1  0  0  0  0
 54100  1  0  0  0  0
 54101  1  0  0  0  0
 54102  1  0  0  0  0
 55103  1  0  0  0  0
 61104  1  0  0  0  0
 64105  1  0  0  0  0
 64106  1  0  0  0  0
 64107  1  0  0  0  0
 67108  1  0  0  0  0
 67109  1  0  0  0  0
 67110  1  0  0  0  0
 68111  1  0  0  0  0
 77112  1  0  0  0  0
 77113  1  0  0  0  0
 81114  1  0  0  0  0
 82115  1  0  0  0  0
 82116  1  0  0  0  0
M  END
