
  xtb     03012223253D
 energy: -317.521719157848 gnorm: 0.000431069944 xtb: 6.4.1 (unknown)
170187  0     0  0            999 V2000
  -10.9789    3.9217   -0.8409 C   0  0  0  0  0  0  0  0  0  0  0  0
  -10.3829    4.8728   -1.5888 C   0  0  0  0  0  0  0  0  0  0  0  0
   -9.0002    4.6133   -1.8138 C   0  0  0  0  0  0  0  0  0  0  0  0
   -8.0669    5.4066   -2.5029 C   0  0  0  0  0  0  0  0  0  0  0  0
   -8.4666    6.5981   -3.2325 C   0  0  0  0  0  0  0  0  0  0  0  0
   -7.6542    8.1189   -3.0088 S   0  0  0  0  0  0  0  0  0  0  0  0
   -8.6380    8.9092   -4.1942 C   0  0  0  0  0  0  0  0  0  0  0  0
   -8.4047   10.3337   -4.5590 C   0  0  0  0  0  0  0  0  0  0  0  0
   -7.2004   10.4652   -5.4945 C   0  0  0  0  0  0  0  0  0  0  0  0
   -9.5323    8.0309   -4.7281 C   0  0  0  0  0  0  0  0  0  0  0  0
  -10.6706    8.4422   -5.9449 Cl  0  0  0  0  0  0  0  0  0  0  0  0
   -9.4412    6.7212   -4.1834 C   0  0  0  0  0  0  0  0  0  0  0  0
  -10.4108    5.4202   -4.7448 Cl  0  0  0  0  0  0  0  0  0  0  0  0
   -6.7448    4.9903   -2.4696 C   0  0  0  0  0  0  0  0  0  0  0  0
   -6.3246    3.7968   -1.8359 C   0  0  0  0  0  0  0  0  0  0  0  0
   -7.2653    2.9749   -1.1894 C   0  0  0  0  0  0  0  0  0  0  0  0
   -6.8558    1.7352   -0.5512 C   0  0  0  0  0  0  0  0  0  0  0  0
   -5.5506    1.7014    0.6009 S   0  0  0  0  0  0  0  0  0  0  0  0
   -5.6832   -0.0091    0.8285 C   0  0  0  0  0  0  0  0  0  0  0  0
   -4.7316   -0.7430    1.7071 C   0  0  0  0  0  0  0  0  0  0  0  0
   -3.3939   -0.9676    0.9975 C   0  0  0  0  0  0  0  0  0  0  0  0
   -6.6854   -0.5092    0.0525 C   0  0  0  0  0  0  0  0  0  0  0  0
   -7.3554    0.4744   -0.7248 C   0  0  0  0  0  0  0  0  0  0  0  0
   -8.5987    0.0740   -1.8339 Cl  0  0  0  0  0  0  0  0  0  0  0  0
   -7.1153   -2.1699   -0.0017 Cl  0  0  0  0  0  0  0  0  0  0  0  0
   -8.5841    3.4158   -1.1838 C   0  0  0  0  0  0  0  0  0  0  0  0
   -9.9119    2.6490   -0.3600 S   0  0  0  0  0  0  0  0  0  0  0  0
   -4.9386    3.5798   -1.9906 C   0  0  0  0  0  0  0  0  0  0  0  0
   -4.2881    4.5628   -2.6882 C   0  0  0  0  0  0  0  0  0  0  0  0
   -5.4029    5.8112   -3.2184 S   0  0  0  0  0  0  0  0  0  0  0  0
   -2.8968    4.5874   -2.9532 C   0  0  0  0  0  0  0  0  0  0  0  0
   -1.9571    3.2199   -2.4355 S   0  0  0  0  0  0  0  0  0  0  0  0
   -0.4760    3.8944   -3.0369 C   0  0  0  0  0  0  0  0  0  0  0  0
   -0.6984    5.1657   -3.5714 C   0  0  0  0  0  0  0  0  0  0  0  0
   -2.0742    5.5474   -3.5483 C   0  0  0  0  0  0  0  0  0  0  0  0
   -2.4505    6.8043   -4.0678 C   0  0  0  0  0  0  0  0  0  0  0  0
   -1.5013    7.6644   -4.5447 C   0  0  0  0  0  0  0  0  0  0  0  0
   -1.7504    8.8917   -5.0621 O   0  0  0  0  0  0  0  0  0  0  0  0
   -3.0856    9.3328   -5.1105 C   0  0  0  0  0  0  0  0  0  0  0  0
   -0.1064    7.3103   -4.4911 C   0  0  0  0  0  0  0  0  0  0  0  0
    0.7363    8.2794   -4.9340 O   0  0  0  0  0  0  0  0  0  0  0  0
    2.1194    8.0511   -4.8414 C   0  0  0  0  0  0  0  0  0  0  0  0
    0.2757    6.0889   -4.0132 C   0  0  0  0  0  0  0  0  0  0  0  0
    0.7081    3.1252   -2.9143 C   0  0  0  0  0  0  0  0  0  0  0  0
    0.8788    2.0853   -1.5343 S   0  0  0  0  0  0  0  0  0  0  0  0
    2.4162    1.4806   -2.0666 C   0  0  0  0  0  0  0  0  0  0  0  0
    2.7543    2.0275   -3.3090 C   0  0  0  0  0  0  0  0  0  0  0  0
    1.7882    2.9631   -3.7869 C   0  0  0  0  0  0  0  0  0  0  0  0
    1.9304    3.5128   -5.0806 C   0  0  0  0  0  0  0  0  0  0  0  0
    3.0062    3.1779   -5.8535 C   0  0  0  0  0  0  0  0  0  0  0  0
    3.2489    3.6430   -7.1053 O   0  0  0  0  0  0  0  0  0  0  0  0
    2.3009    4.4969   -7.6947 C   0  0  0  0  0  0  0  0  0  0  0  0
    3.9771    2.2287   -5.3746 C   0  0  0  0  0  0  0  0  0  0  0  0
    4.9719    1.9540   -6.2569 O   0  0  0  0  0  0  0  0  0  0  0  0
    5.9103    0.9646   -5.9176 C   0  0  0  0  0  0  0  0  0  0  0  0
    3.8344    1.6578   -4.1415 C   0  0  0  0  0  0  0  0  0  0  0  0
    3.0750    0.5075   -1.2746 C   0  0  0  0  0  0  0  0  0  0  0  0
    2.1142   -0.6315   -0.3832 S   0  0  0  0  0  0  0  0  0  0  0  0
    3.5077   -1.4845    0.1912 C   0  0  0  0  0  0  0  0  0  0  0  0
    4.6831   -0.8679   -0.2431 C   0  0  0  0  0  0  0  0  0  0  0  0
    4.4371    0.2758   -1.0602 C   0  0  0  0  0  0  0  0  0  0  0  0
    5.5199    1.0861   -1.4687 C   0  0  0  0  0  0  0  0  0  0  0  0
    6.7988    0.7356   -1.1392 C   0  0  0  0  0  0  0  0  0  0  0  0
    7.9152    1.4333   -1.4747 O   0  0  0  0  0  0  0  0  0  0  0  0
    7.7596    2.6475   -2.1641 C   0  0  0  0  0  0  0  0  0  0  0  0
    7.0498   -0.4402   -0.3464 C   0  0  0  0  0  0  0  0  0  0  0  0
    8.3600   -0.6680   -0.0815 O   0  0  0  0  0  0  0  0  0  0  0  0
    8.6916   -1.7516    0.7517 C   0  0  0  0  0  0  0  0  0  0  0  0
    6.0102   -1.2043    0.1042 C   0  0  0  0  0  0  0  0  0  0  0  0
    3.3472   -2.6453    0.9938 C   0  0  0  0  0  0  0  0  0  0  0  0
    4.1696   -3.7317    1.0928 C   0  0  0  0  0  0  0  0  0  0  0  0
    3.7194   -4.7060    2.0133 C   0  0  0  0  0  0  0  0  0  0  0  0
    4.3661   -5.8974    2.3900 C   0  0  0  0  0  0  0  0  0  0  0  0
    5.6540   -6.2637    1.8269 C   0  0  0  0  0  0  0  0  0  0  0  0
    6.9836   -5.1368    1.8061 S   0  0  0  0  0  0  0  0  0  0  0  0
    8.0535   -6.2794    1.0687 C   0  0  0  0  0  0  0  0  0  0  0  0
    9.4491   -5.9148    0.6970 C   0  0  0  0  0  0  0  0  0  0  0  0
    9.5406   -5.5296   -0.7819 C   0  0  0  0  0  0  0  0  0  0  0  0
    7.4029   -7.4558    0.8491 C   0  0  0  0  0  0  0  0  0  0  0  0
    8.1370   -8.8273    0.1266 Cl  0  0  0  0  0  0  0  0  0  0  0  0
    6.0475   -7.4527    1.2777 C   0  0  0  0  0  0  0  0  0  0  0  0
    5.0115   -8.7938    1.0262 Cl  0  0  0  0  0  0  0  0  0  0  0  0
    3.7389   -6.6750    3.3551 C   0  0  0  0  0  0  0  0  0  0  0  0
    2.4922   -6.3281    3.9322 C   0  0  0  0  0  0  0  0  0  0  0  0
    1.8314   -5.1497    3.5356 C   0  0  0  0  0  0  0  0  0  0  0  0
    0.5743   -4.7473    4.1425 C   0  0  0  0  0  0  0  0  0  0  0  0
    0.3909   -4.7168    5.8763 S   0  0  0  0  0  0  0  0  0  0  0  0
   -1.2246   -4.1049    5.7836 C   0  0  0  0  0  0  0  0  0  0  0  0
   -2.0436   -3.8715    7.0060 C   0  0  0  0  0  0  0  0  0  0  0  0
   -3.0070   -5.0344    7.2571 C   0  0  0  0  0  0  0  0  0  0  0  0
   -1.5904   -3.9488    4.4810 C   0  0  0  0  0  0  0  0  0  0  0  0
   -0.5783   -4.3087    3.5498 C   0  0  0  0  0  0  0  0  0  0  0  0
   -0.8542   -4.2722    1.8587 Cl  0  0  0  0  0  0  0  0  0  0  0  0
   -3.1274   -3.3667    3.9914 Cl  0  0  0  0  0  0  0  0  0  0  0  0
    2.4719   -4.3591    2.5893 C   0  0  0  0  0  0  0  0  0  0  0  0
    1.9279   -2.8105    2.0135 S   0  0  0  0  0  0  0  0  0  0  0  0
    2.0766   -7.2744    4.8986 C   0  0  0  0  0  0  0  0  0  0  0  0
    2.9784   -8.2765    5.1150 C   0  0  0  0  0  0  0  0  0  0  0  0
    4.3811   -8.1235    4.0726 S   0  0  0  0  0  0  0  0  0  0  0  0
    2.8851   -9.3543    6.0417 C   0  0  0  0  0  0  0  0  0  0  0  0
    3.6525  -10.8746    5.7118 S   0  0  0  0  0  0  0  0  0  0  0  0
    3.0535  -11.5696    7.1506 C   0  0  0  0  0  0  0  0  0  0  0  0
    2.3046  -10.6810    7.8869 C   0  0  0  0  0  0  0  0  0  0  0  0
    2.2122   -9.3960    7.2607 C   0  0  0  0  0  0  0  0  0  0  0  0
    1.5465   -8.3454    7.9328 C   0  0  0  0  0  0  0  0  0  0  0  0
    0.9516   -8.5798    9.1388 C   0  0  0  0  0  0  0  0  0  0  0  0
    0.2926   -7.6546    9.8795 O   0  0  0  0  0  0  0  0  0  0  0  0
    0.2417   -6.3325    9.4041 C   0  0  0  0  0  0  0  0  0  0  0  0
    0.9915   -9.8933    9.7407 C   0  0  0  0  0  0  0  0  0  0  0  0
    0.3349   -9.9757   10.9253 O   0  0  0  0  0  0  0  0  0  0  0  0
    0.3370  -11.2079   11.6010 C   0  0  0  0  0  0  0  0  0  0  0  0
    1.6654  -10.9090    9.1319 C   0  0  0  0  0  0  0  0  0  0  0  0
  -12.0036    3.8764   -0.5276 H   0  0  0  0  0  0  0  0  0  0  0  0
  -10.8899    5.7448   -1.9587 H   0  0  0  0  0  0  0  0  0  0  0  0
   -9.2983   10.7192   -5.0524 H   0  0  0  0  0  0  0  0  0  0  0  0
   -8.2248   10.9167   -3.6539 H   0  0  0  0  0  0  0  0  0  0  0  0
   -7.0396   11.5081   -5.7534 H   0  0  0  0  0  0  0  0  0  0  0  0
   -6.3046   10.0816   -5.0113 H   0  0  0  0  0  0  0  0  0  0  0  0
   -7.3707    9.9014   -6.4082 H   0  0  0  0  0  0  0  0  0  0  0  0
   -5.1724   -1.7054    1.9732 H   0  0  0  0  0  0  0  0  0  0  0  0
   -4.5632   -0.1713    2.6218 H   0  0  0  0  0  0  0  0  0  0  0  0
   -2.9385   -0.0156    0.7348 H   0  0  0  0  0  0  0  0  0  0  0  0
   -2.7136   -1.5111    1.6470 H   0  0  0  0  0  0  0  0  0  0  0  0
   -3.5416   -1.5457    0.0887 H   0  0  0  0  0  0  0  0  0  0  0  0
   -4.4217    2.7236   -1.5979 H   0  0  0  0  0  0  0  0  0  0  0  0
   -3.4917    7.0746   -4.0679 H   0  0  0  0  0  0  0  0  0  0  0  0
   -3.7019    8.6792   -5.7365 H   0  0  0  0  0  0  0  0  0  0  0  0
   -3.5248    9.3910   -4.1091 H   0  0  0  0  0  0  0  0  0  0  0  0
   -3.0500   10.3280   -5.5504 H   0  0  0  0  0  0  0  0  0  0  0  0
    2.5934    8.9545   -5.2210 H   0  0  0  0  0  0  0  0  0  0  0  0
    2.4312    7.8839   -3.8052 H   0  0  0  0  0  0  0  0  0  0  0  0
    2.4321    7.1958   -5.4511 H   0  0  0  0  0  0  0  0  0  0  0  0
    1.3144    5.8178   -3.9283 H   0  0  0  0  0  0  0  0  0  0  0  0
    1.1545    4.1598   -5.4521 H   0  0  0  0  0  0  0  0  0  0  0  0
    2.6867    4.7246   -8.6868 H   0  0  0  0  0  0  0  0  0  0  0  0
    1.3239    4.0118   -7.7862 H   0  0  0  0  0  0  0  0  0  0  0  0
    2.1861    5.4282   -7.1290 H   0  0  0  0  0  0  0  0  0  0  0  0
    6.5920    0.9033   -6.7641 H   0  0  0  0  0  0  0  0  0  0  0  0
    6.4751    1.2315   -5.0174 H   0  0  0  0  0  0  0  0  0  0  0  0
    5.4322   -0.0081   -5.7637 H   0  0  0  0  0  0  0  0  0  0  0  0
    4.5076    0.8904   -3.8000 H   0  0  0  0  0  0  0  0  0  0  0  0
    5.3075    1.9957   -2.0044 H   0  0  0  0  0  0  0  0  0  0  0  0
    7.1715    3.3668   -1.5848 H   0  0  0  0  0  0  0  0  0  0  0  0
    7.2850    2.5028   -3.1412 H   0  0  0  0  0  0  0  0  0  0  0  0
    8.7664    3.0355   -2.3083 H   0  0  0  0  0  0  0  0  0  0  0  0
    8.3506   -2.7039    0.3328 H   0  0  0  0  0  0  0  0  0  0  0  0
    9.7782   -1.7509    0.8146 H   0  0  0  0  0  0  0  0  0  0  0  0
    8.2673   -1.6338    1.7538 H   0  0  0  0  0  0  0  0  0  0  0  0
    6.1789   -2.0421    0.7578 H   0  0  0  0  0  0  0  0  0  0  0  0
    5.0440   -3.8568    0.4837 H   0  0  0  0  0  0  0  0  0  0  0  0
    9.7818   -5.0811    1.3174 H   0  0  0  0  0  0  0  0  0  0  0  0
   10.0982   -6.7727    0.8846 H   0  0  0  0  0  0  0  0  0  0  0  0
    8.8903   -4.6855   -0.9990 H   0  0  0  0  0  0  0  0  0  0  0  0
    9.2397   -6.3663   -1.4066 H   0  0  0  0  0  0  0  0  0  0  0  0
   10.5613   -5.2554   -1.0338 H   0  0  0  0  0  0  0  0  0  0  0  0
   -2.6188   -2.9525    6.8732 H   0  0  0  0  0  0  0  0  0  0  0  0
   -1.3813   -3.7483    7.8644 H   0  0  0  0  0  0  0  0  0  0  0  0
   -3.5858   -4.8505    8.1580 H   0  0  0  0  0  0  0  0  0  0  0  0
   -2.4604   -5.9664    7.3801 H   0  0  0  0  0  0  0  0  0  0  0  0
   -3.6909   -5.1437    6.4198 H   0  0  0  0  0  0  0  0  0  0  0  0
    1.1181   -7.2432    5.3798 H   0  0  0  0  0  0  0  0  0  0  0  0
    3.2787  -12.5918    7.3802 H   0  0  0  0  0  0  0  0  0  0  0  0
    1.5475   -7.3623    7.4944 H   0  0  0  0  0  0  0  0  0  0  0  0
    1.2422   -5.8960    9.3192 H   0  0  0  0  0  0  0  0  0  0  0  0
   -0.3354   -5.7781   10.1422 H   0  0  0  0  0  0  0  0  0  0  0  0
   -0.2545   -6.2707    8.4302 H   0  0  0  0  0  0  0  0  0  0  0  0
   -0.2427  -11.0474   12.5084 H   0  0  0  0  0  0  0  0  0  0  0  0
    1.3528  -11.5172   11.8689 H   0  0  0  0  0  0  0  0  0  0  0  0
   -0.1345  -11.9949   11.0031 H   0  0  0  0  0  0  0  0  0  0  0  0
    1.7371  -11.8909    9.5700 H   0  0  0  0  0  0  0  0  0  0  0  0
  1  2  2  0  0  0  0
  2  3  1  0  0  0  0
  3  4  2  0  0  0  0
  4  5  1  0  0  0  0
  5  6  1  0  0  0  0
  6  7  1  0  0  0  0
  7  8  1  0  0  0  0
  8  9  1  0  0  0  0
  7 10  2  0  0  0  0
 10 11  1  0  0  0  0
 10 12  1  0  0  0  0
 12 13  1  0  0  0  0
  4 14  1  0  0  0  0
 14 15  2  0  0  0  0
 15 16  1  0  0  0  0
 16 17  1  0  0  0  0
 17 18  1  0  0  0  0
 18 19  1  0  0  0  0
 19 20  1  0  0  0  0
 20 21  1  0  0  0  0
 19 22  2  0  0  0  0
 22 23  1  0  0  0  0
 23 24  1  0  0  0  0
 22 25  1  0  0  0  0
 16 26  2  0  0  0  0
 26 27  1  0  0  0  0
 15 28  1  0  0  0  0
 28 29  2  0  0  0  0
 29 30  1  0  0  0  0
 29 31  1  0  0  0  0
 31 32  1  0  0  0  0
 32 33  1  0  0  0  0
 33 34  2  0  0  0  0
 34 35  1  0  0  0  0
 35 36  1  0  0  0  0
 36 37  2  0  0  0  0
 37 38  1  0  0  0  0
 38 39  1  0  0  0  0
 37 40  1  0  0  0  0
 40 41  1  0  0  0  0
 41 42  1  0  0  0  0
 40 43  2  0  0  0  0
 33 44  1  0  0  0  0
 44 45  1  0  0  0  0
 45 46  1  0  0  0  0
 46 47  2  0  0  0  0
 47 48  1  0  0  0  0
 48 49  1  0  0  0  0
 49 50  2  0  0  0  0
 50 51  1  0  0  0  0
 51 52  1  0  0  0  0
 50 53  1  0  0  0  0
 53 54  1  0  0  0  0
 54 55  1  0  0  0  0
 53 56  2  0  0  0  0
 46 57  1  0  0  0  0
 57 58  1  0  0  0  0
 58 59  1  0  0  0  0
 59 60  2  0  0  0  0
 60 61  1  0  0  0  0
 61 62  1  0  0  0  0
 62 63  2  0  0  0  0
 63 64  1  0  0  0  0
 64 65  1  0  0  0  0
 63 66  1  0  0  0  0
 66 67  1  0  0  0  0
 67 68  1  0  0  0  0
 66 69  2  0  0  0  0
 59 70  1  0  0  0  0
 70 71  2  0  0  0  0
 71 72  1  0  0  0  0
 72 73  2  0  0  0  0
 73 74  1  0  0  0  0
 74 75  1  0  0  0  0
 75 76  1  0  0  0  0
 76 77  1  0  0  0  0
 77 78  1  0  0  0  0
 76 79  2  0  0  0  0
 79 80  1  0  0  0  0
 79 81  1  0  0  0  0
 81 82  1  0  0  0  0
 73 83  1  0  0  0  0
 83 84  2  0  0  0  0
 84 85  1  0  0  0  0
 85 86  1  0  0  0  0
 86 87  1  0  0  0  0
 87 88  1  0  0  0  0
 88 89  1  0  0  0  0
 89 90  1  0  0  0  0
 88 91  2  0  0  0  0
 91 92  1  0  0  0  0
 92 93  1  0  0  0  0
 91 94  1  0  0  0  0
 85 95  2  0  0  0  0
 95 96  1  0  0  0  0
 84 97  1  0  0  0  0
 97 98  2  0  0  0  0
 98 99  1  0  0  0  0
 98100  1  0  0  0  0
100101  1  0  0  0  0
101102  1  0  0  0  0
102103  2  0  0  0  0
103104  1  0  0  0  0
104105  1  0  0  0  0
105106  2  0  0  0  0
106107  1  0  0  0  0
107108  1  0  0  0  0
106109  1  0  0  0  0
109110  1  0  0  0  0
110111  1  0  0  0  0
109112  2  0  0  0  0
 27  1  1  0  0  0  0
 35 31  2  0  0  0  0
 48 44  2  0  0  0  0
 61 57  2  0  0  0  0
 96 70  1  0  0  0  0
104100  2  0  0  0  0
 26  3  1  0  0  0  0
 43 34  1  0  0  0  0
 56 47  1  0  0  0  0
 69 60  1  0  0  0  0
 95 72  1  0  0  0  0
112103  1  0  0  0  0
 12  5  2  0  0  0  0
 30 14  1  0  0  0  0
 81 74  2  0  0  0  0
 99 83  1  0  0  0  0
 23 17  2  0  0  0  0
 92 86  2  0  0  0  0
  1113  1  0  0  0  0
  2114  1  0  0  0  0
  8115  1  0  0  0  0
  8116  1  0  0  0  0
  9117  1  0  0  0  0
  9118  1  0  0  0  0
  9119  1  0  0  0  0
 20120  1  0  0  0  0
 20121  1  0  0  0  0
 21122  1  0  0  0  0
 21123  1  0  0  0  0
 21124  1  0  0  0  0
 28125  1  0  0  0  0
 36126  1  0  0  0  0
 39127  1  0  0  0  0
 39128  1  0  0  0  0
 39129  1  0  0  0  0
 42130  1  0  0  0  0
 42131  1  0  0  0  0
 42132  1  0  0  0  0
 43133  1  0  0  0  0
 49134  1  0  0  0  0
 52135  1  0  0  0  0
 52136  1  0  0  0  0
 52137  1  0  0  0  0
 55138  1  0  0  0  0
 55139  1  0  0  0  0
 55140  1  0  0  0  0
 56141  1  0  0  0  0
 62142  1  0  0  0  0
 65143  1  0  0  0  0
 65144  1  0  0  0  0
 65145  1  0  0  0  0
 68146  1  0  0  0  0
 68147  1  0  0  0  0
 68148  1  0  0  0  0
 69149  1  0  0  0  0
 71150  1  0  0  0  0
 77151  1  0  0  0  0
 77152  1  0  0  0  0
 78153  1  0  0  0  0
 78154  1  0  0  0  0
 78155  1  0  0  0  0
 89156  1  0  0  0  0
 89157  1  0  0  0  0
 90158  1  0  0  0  0
 90159  1  0  0  0  0
 90160  1  0  0  0  0
 97161  1  0  0  0  0
102162  1  0  0  0  0
105163  1  0  0  0  0
108164  1  0  0  0  0
108165  1  0  0  0  0
108166  1  0  0  0  0
111167  1  0  0  0  0
111168  1  0  0  0  0
111169  1  0  0  0  0
112170  1  0  0  0  0
M  END
