104

C          4.65380        1.34910       -8.42760
S          3.77480       -0.09040       -8.15530
C          3.45950        0.31920       -6.49530
C          3.99980        1.57030       -6.19610
C          4.70160        2.14360       -7.30570
C          5.33680        3.39980       -7.15800
C          5.25990        4.08490       -5.97870
O          5.89440        5.27450       -5.74810
C          6.66440        5.83560       -6.78110
C          4.47340        3.55560       -4.89420
O          4.30790        4.15460       -3.67870
C          4.38260        5.55740       -3.54130
C          3.86030        2.33720       -5.02320
C          2.74240       -0.57860       -5.65660
S          1.41380       -1.49720       -6.30390
C          1.07190       -2.22090       -4.76550
C          1.99200       -1.79960       -3.79780
C          2.93900       -0.86620       -4.30300
C          3.94650       -0.38150       -3.43730
C          3.95460       -0.75700       -2.12380
O          4.83270       -0.30480       -1.19050
C          5.76690        0.67370       -1.57790
C          2.99360       -1.70640       -1.61970
O          3.15890       -2.03390       -0.31630
C          2.32350       -3.02480        0.23210
C          2.03970       -2.21930       -2.45240
C         -0.02560       -2.99590       -4.46640
C         -0.99400       -3.58850       -4.02350
C         -2.02090       -4.07780       -3.23950
S         -1.71920       -4.09220       -1.51400
C         -3.39190       -4.50940       -1.20360
C         -4.08680       -4.68520       -2.37850
C         -3.31870       -4.44370       -3.52210
C         -3.77770       -4.47850        0.12410
C         -3.87750       -4.27010        1.31850
C         -3.84010       -3.90640        2.65410
C         -4.84850       -3.85930        3.55560
C         -4.54960       -3.32640        4.80590
C         -4.12090       -2.79380        5.81040
C         -3.48130       -2.11160        6.83070
S         -1.89600       -1.46170        6.47970
C         -1.79540       -0.78560        8.08220
C         -2.92300       -1.07290        8.82160
C         -3.87140       -1.81670        8.11730
C         -0.66560       -0.06660        8.43370
C          0.36820        0.54360        8.62010
C          1.55850        1.21580        8.87630
C          2.48470        1.46910        7.92130
C          2.33610        1.13790        6.57740
C          2.24760        0.88560        5.39220
C          2.14220        0.62640        4.03470
S          0.60150        0.26790        3.29610
C          1.36120        0.14710        1.72630
C          2.72200        0.35850        1.80400
C          3.15810        0.63120        3.10000
C          0.60360       -0.12350        0.59860
C         -0.07630       -0.36100       -0.37980
C         -0.87470       -0.65450       -1.48120
C         -2.20730       -0.87200       -1.36870
C         -2.86940       -0.77930       -0.14850
C         -3.43000       -0.67010        0.92300
C         -4.00690       -0.43930        2.16100
S         -3.04350        0.24710        3.44360
C         -4.43540        0.29880        4.49250
C         -5.55250       -0.21230        3.87100
C         -5.31220       -0.62660        2.55940
C         -4.32590        0.83000        5.77100
C         -4.16910        1.32140        6.86740
C         -3.99960        1.86920        8.14640
C         -4.97680        1.96610        9.04570
H          5.08450        1.53450       -9.39090
H          5.88750        3.78670       -7.99970
H          6.05170        6.06990       -7.65770
H          7.07450        6.75750       -6.37150
H          7.48430        5.17320       -7.07640
H          3.83360        6.07000       -4.33420
H          3.91590        5.77470       -2.58020
H          5.41630        5.90920       -3.53210
H          3.25310        1.98450       -4.20580
H          4.69920        0.27640       -3.83530
H          5.27310        1.56670       -1.97520
H          6.31370        0.93230       -0.67240
H          6.46810        0.28640       -2.32440
H          1.27210       -2.72310        0.20690
H          2.64310       -3.13700        1.26660
H          2.44160       -3.97850       -0.29250
H          1.31310       -2.93980       -2.11400
H         -5.12840       -4.95370       -2.40070
H         -3.69830       -4.50380       -4.52680
H         -2.85680       -3.57390        2.97590
H         -5.85330       -4.18510        3.32970
H         -3.04870       -0.74380        9.83810
H         -4.81690       -2.12930        8.52360
H          1.73530        1.52870        9.89750
H          3.40860        1.96700        8.18970
H          3.36680        0.29540        0.94580
H          4.18250        0.82660        3.36440
H         -0.38760       -0.72190       -2.44440
H         -2.79840       -1.11210       -2.24260
H         -6.50910       -0.27230        4.35920
H         -6.05970       -1.04460        1.90840
H         -2.99660        2.21590        8.36830
H         -4.80540        2.39370       10.01840
H         -5.97490        1.62110        8.83260
