
  xtb     03042205113D
 energy: -424.161441492590 gnorm: 0.000521052289 xtb: 6.4.1 (unknown)
244267  0     0  0            999 V2000
    3.4753    5.5018   17.5892 C   0  0  0  0  0  0  0  0  0  0  0  0
    4.1653    5.5447   16.4320 C   0  0  0  0  0  0  0  0  0  0  0  0
    3.6448    4.6588   15.4415 C   0  0  0  0  0  0  0  0  0  0  0  0
    4.1133    4.4461   14.1365 C   0  0  0  0  0  0  0  0  0  0  0  0
    5.3180    5.1178   13.6321 C   0  0  0  0  0  0  0  0  0  0  0  0
    6.5169    5.0644   14.3424 C   0  0  0  0  0  0  0  0  0  0  0  0
    7.6449    5.6931   13.8633 C   0  0  0  0  0  0  0  0  0  0  0  0
    7.6309    6.3967   12.6582 C   0  0  0  0  0  0  0  0  0  0  0  0
    9.1536    7.1285   12.1494 S   0  0  0  0  0  0  0  0  0  0  0  0
    8.6536    8.5681   11.1225 C   0  0  0  0  0  0  0  0  0  0  0  0
    9.8058    9.5517   11.0683 C   0  0  0  0  0  0  0  0  0  0  0  0
    6.4349    6.4172   11.9470 C   0  0  0  0  0  0  0  0  0  0  0  0
    6.3441    7.0446   10.7535 F   0  0  0  0  0  0  0  0  0  0  0  0
    5.2943    5.8014   12.4222 C   0  0  0  0  0  0  0  0  0  0  0  0
    3.3927    3.5554   13.3547 C   0  0  0  0  0  0  0  0  0  0  0  0
    2.2613    2.8482   13.8310 C   0  0  0  0  0  0  0  0  0  0  0  0
    1.8034    3.0463   15.1429 C   0  0  0  0  0  0  0  0  0  0  0  0
    0.6429    2.3116   15.6598 C   0  0  0  0  0  0  0  0  0  0  0  0
    0.5614    0.9271   15.5415 C   0  0  0  0  0  0  0  0  0  0  0  0
   -0.5371    0.2301   16.0069 C   0  0  0  0  0  0  0  0  0  0  0  0
   -1.5974    0.8954   16.6116 C   0  0  0  0  0  0  0  0  0  0  0  0
   -3.0740    0.1518   17.2164 S   0  0  0  0  0  0  0  0  0  0  0  0
   -2.7741   -1.6438   17.0797 C   0  0  0  0  0  0  0  0  0  0  0  0
   -1.8343   -2.1562   18.1549 C   0  0  0  0  0  0  0  0  0  0  0  0
   -1.4979    2.2836   16.7308 C   0  0  0  0  0  0  0  0  0  0  0  0
   -0.4092    2.9893   16.2730 C   0  0  0  0  0  0  0  0  0  0  0  0
   -2.5110    2.9625   17.3061 F   0  0  0  0  0  0  0  0  0  0  0  0
    2.5027    3.9667   15.9111 C   0  0  0  0  0  0  0  0  0  0  0  0
    2.1439    4.3967   17.5642 S   0  0  0  0  0  0  0  0  0  0  0  0
    1.7094    2.0042   12.8336 C   0  0  0  0  0  0  0  0  0  0  0  0
    2.3908    2.0322   11.6547 C   0  0  0  0  0  0  0  0  0  0  0  0
    3.7625    3.1236   11.7042 S   0  0  0  0  0  0  0  0  0  0  0  0
    2.0895    1.3033   10.4670 C   0  0  0  0  0  0  0  0  0  0  0  0
    2.6832    1.4004    9.2447 C   0  0  0  0  0  0  0  0  0  0  0  0
    2.1236    0.5353    8.2703 C   0  0  0  0  0  0  0  0  0  0  0  0
    2.4773    0.4100    6.9161 C   0  0  0  0  0  0  0  0  0  0  0  0
    3.4945    1.2718    6.3029 C   0  0  0  0  0  0  0  0  0  0  0  0
    4.5287    0.7350    5.5431 C   0  0  0  0  0  0  0  0  0  0  0  0
    5.4776    1.5460    4.9508 C   0  0  0  0  0  0  0  0  0  0  0  0
    5.4246    2.9274    5.0958 C   0  0  0  0  0  0  0  0  0  0  0  0
    6.5458    4.0804    4.3791 S   0  0  0  0  0  0  0  0  0  0  0  0
    7.9488    3.0540    3.8192 C   0  0  0  0  0  0  0  0  0  0  0  0
    8.7693    2.5223    4.9789 C   0  0  0  0  0  0  0  0  0  0  0  0
    4.3729    3.4531    5.8500 C   0  0  0  0  0  0  0  0  0  0  0  0
    4.2766    4.7896    5.9951 F   0  0  0  0  0  0  0  0  0  0  0  0
    3.4243    2.6565    6.4490 C   0  0  0  0  0  0  0  0  0  0  0  0
    1.7924   -0.5442    6.1803 C   0  0  0  0  0  0  0  0  0  0  0  0
    0.7569   -1.3461    6.7210 C   0  0  0  0  0  0  0  0  0  0  0  0
    0.3850   -1.2027    8.0684 C   0  0  0  0  0  0  0  0  0  0  0  0
   -0.7074   -1.9935    8.6485 C   0  0  0  0  0  0  0  0  0  0  0  0
   -1.9592   -2.0392    8.0409 C   0  0  0  0  0  0  0  0  0  0  0  0
   -2.9878   -2.7909    8.5752 C   0  0  0  0  0  0  0  0  0  0  0  0
   -2.7981   -3.5347    9.7344 C   0  0  0  0  0  0  0  0  0  0  0  0
   -4.0189   -4.5372   10.5167 S   0  0  0  0  0  0  0  0  0  0  0  0
   -5.2943   -4.7712    9.2308 C   0  0  0  0  0  0  0  0  0  0  0  0
   -4.8051   -5.6315    8.0813 C   0  0  0  0  0  0  0  0  0  0  0  0
   -1.5458   -3.4595   10.3462 C   0  0  0  0  0  0  0  0  0  0  0  0
   -0.5145   -2.7095    9.8279 C   0  0  0  0  0  0  0  0  0  0  0  0
   -1.3307   -4.1533   11.4830 F   0  0  0  0  0  0  0  0  0  0  0  0
    1.0925   -0.2719    8.8122 C   0  0  0  0  0  0  0  0  0  0  0  0
    0.8067    0.1066   10.4907 S   0  0  0  0  0  0  0  0  0  0  0  0
    0.2086   -2.2281    5.7582 C   0  0  0  0  0  0  0  0  0  0  0  0
    0.7630   -2.1046    4.5157 C   0  0  0  0  0  0  0  0  0  0  0  0
    2.0220   -0.8783    4.4841 S   0  0  0  0  0  0  0  0  0  0  0  0
    0.4090   -2.7696    3.3081 C   0  0  0  0  0  0  0  0  0  0  0  0
    0.7086   -1.9825    1.7968 S   0  0  0  0  0  0  0  0  0  0  0  0
   -0.0991   -3.2187    0.8932 C   0  0  0  0  0  0  0  0  0  0  0  0
   -0.5313   -4.2468    1.7359 C   0  0  0  0  0  0  0  0  0  0  0  0
   -0.2425   -3.9896    3.1114 C   0  0  0  0  0  0  0  0  0  0  0  0
   -0.5831   -4.9539    4.0860 C   0  0  0  0  0  0  0  0  0  0  0  0
   -1.2218   -6.1052    3.7212 C   0  0  0  0  0  0  0  0  0  0  0  0
   -1.6097   -7.0897    4.5683 O   0  0  0  0  0  0  0  0  0  0  0  0
   -1.3408   -6.9363    5.9396 C   0  0  0  0  0  0  0  0  0  0  0  0
   -1.5172   -6.3634    2.3352 C   0  0  0  0  0  0  0  0  0  0  0  0
   -2.1348   -7.5469    2.1061 O   0  0  0  0  0  0  0  0  0  0  0  0
   -2.4599   -7.8875    0.7805 C   0  0  0  0  0  0  0  0  0  0  0  0
   -1.1568   -5.4605    1.3747 C   0  0  0  0  0  0  0  0  0  0  0  0
   -0.2967   -3.0301   -0.5024 C   0  0  0  0  0  0  0  0  0  0  0  0
   -1.2427   -3.5784   -1.3222 C   0  0  0  0  0  0  0  0  0  0  0  0
   -1.2057   -3.0883   -2.6500 C   0  0  0  0  0  0  0  0  0  0  0  0
   -2.0545   -3.4451   -3.7131 C   0  0  0  0  0  0  0  0  0  0  0  0
   -3.0120   -4.5460   -3.5641 C   0  0  0  0  0  0  0  0  0  0  0  0
   -2.5954   -5.7707   -3.0388 C   0  0  0  0  0  0  0  0  0  0  0  0
   -3.4817   -6.8146   -2.8956 C   0  0  0  0  0  0  0  0  0  0  0  0
   -4.8227   -6.6828   -3.2578 C   0  0  0  0  0  0  0  0  0  0  0  0
   -5.8657   -8.0770   -2.9688 S   0  0  0  0  0  0  0  0  0  0  0  0
   -7.1461   -7.9646   -4.2813 C   0  0  0  0  0  0  0  0  0  0  0  0
   -7.7359   -9.3430   -4.5055 C   0  0  0  0  0  0  0  0  0  0  0  0
   -5.2275   -5.4529   -3.7676 C   0  0  0  0  0  0  0  0  0  0  0  0
   -6.5187   -5.2334   -4.1046 F   0  0  0  0  0  0  0  0  0  0  0  0
   -4.3441   -4.4051   -3.9355 C   0  0  0  0  0  0  0  0  0  0  0  0
   -1.9156   -2.7192   -4.8863 C   0  0  0  0  0  0  0  0  0  0  0  0
   -0.9236   -1.7218   -5.0564 C   0  0  0  0  0  0  0  0  0  0  0  0
   -0.0240   -1.4177   -4.0182 C   0  0  0  0  0  0  0  0  0  0  0  0
    1.0322   -0.4193   -4.2177 C   0  0  0  0  0  0  0  0  0  0  0  0
    1.2533    0.6055   -3.2990 C   0  0  0  0  0  0  0  0  0  0  0  0
    2.2090    1.5693   -3.5383 C   0  0  0  0  0  0  0  0  0  0  0  0
    2.9885    1.5511   -4.6942 C   0  0  0  0  0  0  0  0  0  0  0  0
    4.1795    2.8337   -4.9076 S   0  0  0  0  0  0  0  0  0  0  0  0
    4.1503    3.1419   -6.7203 C   0  0  0  0  0  0  0  0  0  0  0  0
    4.5939    4.5660   -6.9847 C   0  0  0  0  0  0  0  0  0  0  0  0
    2.7921    0.4936   -5.5784 C   0  0  0  0  0  0  0  0  0  0  0  0
    1.8297   -0.4694   -5.3584 C   0  0  0  0  0  0  0  0  0  0  0  0
    3.5507    0.3683   -6.6916 F   0  0  0  0  0  0  0  0  0  0  0  0
   -0.2121   -2.0926   -2.8233 C   0  0  0  0  0  0  0  0  0  0  0  0
    0.7046   -1.8644   -1.3578 S   0  0  0  0  0  0  0  0  0  0  0  0
   -1.0181   -1.0956   -6.3221 C   0  0  0  0  0  0  0  0  0  0  0  0
   -2.0118   -1.5947   -7.1121 C   0  0  0  0  0  0  0  0  0  0  0  0
   -2.8884   -2.8907   -6.3260 S   0  0  0  0  0  0  0  0  0  0  0  0
   -2.3707   -1.1136   -8.4074 C   0  0  0  0  0  0  0  0  0  0  0  0
   -1.6357   -0.2629   -9.1806 C   0  0  0  0  0  0  0  0  0  0  0  0
   -2.2876    0.1277  -10.3745 C   0  0  0  0  0  0  0  0  0  0  0  0
   -1.8295    1.0280  -11.3518 C   0  0  0  0  0  0  0  0  0  0  0  0
   -0.5478    1.7278  -11.2071 C   0  0  0  0  0  0  0  0  0  0  0  0
    0.3781    1.7530  -12.2456 C   0  0  0  0  0  0  0  0  0  0  0  0
    1.5844    2.4132  -12.1142 C   0  0  0  0  0  0  0  0  0  0  0  0
    1.9067    3.0810  -10.9387 C   0  0  0  0  0  0  0  0  0  0  0  0
    3.4117    3.9493  -10.6422 S   0  0  0  0  0  0  0  0  0  0  0  0
    4.0788    4.2557  -12.3134 C   0  0  0  0  0  0  0  0  0  0  0  0
    3.2216    5.2228  -13.1077 C   0  0  0  0  0  0  0  0  0  0  0  0
    0.9737    3.0398   -9.9023 C   0  0  0  0  0  0  0  0  0  0  0  0
    1.2576    3.6625   -8.7383 F   0  0  0  0  0  0  0  0  0  0  0  0
   -0.2320    2.3870  -10.0199 C   0  0  0  0  0  0  0  0  0  0  0  0
   -2.6626    1.2357  -12.4374 C   0  0  0  0  0  0  0  0  0  0  0  0
   -3.9330    0.6243  -12.5792 C   0  0  0  0  0  0  0  0  0  0  0  0
   -4.3982   -0.2600  -11.5904 C   0  0  0  0  0  0  0  0  0  0  0  0
   -5.7302   -0.8711  -11.6577 C   0  0  0  0  0  0  0  0  0  0  0  0
   -5.8989   -2.2390  -11.4642 C   0  0  0  0  0  0  0  0  0  0  0  0
   -7.1541   -2.8139  -11.4810 C   0  0  0  0  0  0  0  0  0  0  0  0
   -8.2904   -2.0377  -11.6775 C   0  0  0  0  0  0  0  0  0  0  0  0
   -9.9418   -2.6531  -11.7095 S   0  0  0  0  0  0  0  0  0  0  0  0
   -9.8313   -4.2317  -10.7966 C   0  0  0  0  0  0  0  0  0  0  0  0
   -9.4839   -4.0276   -9.3345 C   0  0  0  0  0  0  0  0  0  0  0  0
   -8.1057   -0.6707  -11.8895 C   0  0  0  0  0  0  0  0  0  0  0  0
   -6.8595   -0.0859  -11.8830 C   0  0  0  0  0  0  0  0  0  0  0  0
   -9.1831    0.1132  -12.0961 F   0  0  0  0  0  0  0  0  0  0  0  0
   -3.5498   -0.4983  -10.5188 C   0  0  0  0  0  0  0  0  0  0  0  0
   -3.9045   -1.5200   -9.1480 S   0  0  0  0  0  0  0  0  0  0  0  0
   -4.5788    1.0245  -13.7736 C   0  0  0  0  0  0  0  0  0  0  0  0
   -3.8771    1.9336  -14.5176 C   0  0  0  0  0  0  0  0  0  0  0  0
   -2.3393    2.3218  -13.7622 S   0  0  0  0  0  0  0  0  0  0  0  0
   -4.2921    2.5201  -15.7441 C   0  0  0  0  0  0  0  0  0  0  0  0
   -5.8222    2.0358  -16.4199 S   0  0  0  0  0  0  0  0  0  0  0  0
   -5.6513    3.0847  -17.7536 C   0  0  0  0  0  0  0  0  0  0  0  0
   -4.4750    3.7954  -17.7097 C   0  0  0  0  0  0  0  0  0  0  0  0
   -3.6846    3.4769  -16.5573 C   0  0  0  0  0  0  0  0  0  0  0  0
   -2.4471    4.1334  -16.3772 C   0  0  0  0  0  0  0  0  0  0  0  0
   -2.0188    5.0554  -17.2887 C   0  0  0  0  0  0  0  0  0  0  0  0
   -0.8525    5.7420  -17.2130 O   0  0  0  0  0  0  0  0  0  0  0  0
   -0.0087    5.5041  -16.1139 C   0  0  0  0  0  0  0  0  0  0  0  0
   -2.8180    5.3750  -18.4486 C   0  0  0  0  0  0  0  0  0  0  0  0
   -2.2644    6.3095  -19.2608 O   0  0  0  0  0  0  0  0  0  0  0  0
   -2.9755    6.6947  -20.4104 C   0  0  0  0  0  0  0  0  0  0  0  0
   -4.0150    4.7547  -18.6467 C   0  0  0  0  0  0  0  0  0  0  0  0
    3.6543    6.0644   18.4847 H   0  0  0  0  0  0  0  0  0  0  0  0
    5.0102    6.1874   16.2631 H   0  0  0  0  0  0  0  0  0  0  0  0
    6.5639    4.5122   15.2687 H   0  0  0  0  0  0  0  0  0  0  0  0
    8.5707    5.6504   14.4161 H   0  0  0  0  0  0  0  0  0  0  0  0
    7.7786    9.0130   11.5940 H   0  0  0  0  0  0  0  0  0  0  0  0
    8.3957    8.2095   10.1273 H   0  0  0  0  0  0  0  0  0  0  0  0
   10.0646    9.8948   12.0677 H   0  0  0  0  0  0  0  0  0  0  0  0
    9.5238   10.4114   10.4642 H   0  0  0  0  0  0  0  0  0  0  0  0
   10.6837    9.0871   10.6252 H   0  0  0  0  0  0  0  0  0  0  0  0
    4.3914    5.8701   11.8359 H   0  0  0  0  0  0  0  0  0  0  0  0
    1.3792    0.3816   15.0951 H   0  0  0  0  0  0  0  0  0  0  0  0
   -0.5594   -0.8403   15.8847 H   0  0  0  0  0  0  0  0  0  0  0  0
   -2.4200   -1.8620   16.0732 H   0  0  0  0  0  0  0  0  0  0  0  0
   -3.7673   -2.0773   17.1975 H   0  0  0  0  0  0  0  0  0  0  0  0
   -1.7041   -3.2316   18.0496 H   0  0  0  0  0  0  0  0  0  0  0  0
   -0.8592   -1.6789   18.0854 H   0  0  0  0  0  0  0  0  0  0  0  0
   -2.2453   -1.9498   19.1403 H   0  0  0  0  0  0  0  0  0  0  0  0
   -0.3991    4.0626   16.3764 H   0  0  0  0  0  0  0  0  0  0  0  0
    0.8235    1.4114   12.9758 H   0  0  0  0  0  0  0  0  0  0  0  0
    3.5038    2.0682    9.0516 H   0  0  0  0  0  0  0  0  0  0  0  0
    4.6052   -0.3350    5.4248 H   0  0  0  0  0  0  0  0  0  0  0  0
    6.2573    1.0869    4.3656 H   0  0  0  0  0  0  0  0  0  0  0  0
    8.5378    3.7399    3.2104 H   0  0  0  0  0  0  0  0  0  0  0  0
    7.5676    2.2619    3.1761 H   0  0  0  0  0  0  0  0  0  0  0  0
    8.1713    1.8765    5.6184 H   0  0  0  0  0  0  0  0  0  0  0  0
    9.6169    1.9521    4.6033 H   0  0  0  0  0  0  0  0  0  0  0  0
    9.1439    3.3467    5.5812 H   0  0  0  0  0  0  0  0  0  0  0  0
    2.6229    3.1190    7.0035 H   0  0  0  0  0  0  0  0  0  0  0  0
   -2.1398   -1.4562    7.1502 H   0  0  0  0  0  0  0  0  0  0  0  0
   -3.9472   -2.7825    8.0834 H   0  0  0  0  0  0  0  0  0  0  0  0
   -6.1042   -5.2657    9.7669 H   0  0  0  0  0  0  0  0  0  0  0  0
   -5.6446   -3.7939    8.9010 H   0  0  0  0  0  0  0  0  0  0  0  0
   -4.4694   -6.5974    8.4515 H   0  0  0  0  0  0  0  0  0  0  0  0
   -5.6117   -5.7925    7.3689 H   0  0  0  0  0  0  0  0  0  0  0  0
   -3.9757   -5.1549    7.5629 H   0  0  0  0  0  0  0  0  0  0  0  0
    0.4375   -2.7048   10.3343 H   0  0  0  0  0  0  0  0  0  0  0  0
   -0.6029   -2.8945    5.9797 H   0  0  0  0  0  0  0  0  0  0  0  0
   -0.3018   -4.7781    5.1093 H   0  0  0  0  0  0  0  0  0  0  0  0
   -0.2651   -6.8825    6.1362 H   0  0  0  0  0  0  0  0  0  0  0  0
   -1.8260   -6.0433    6.3481 H   0  0  0  0  0  0  0  0  0  0  0  0
   -1.7517   -7.8217    6.4210 H   0  0  0  0  0  0  0  0  0  0  0  0
   -2.9606   -8.8522    0.8392 H   0  0  0  0  0  0  0  0  0  0  0  0
   -3.1384   -7.1551    0.3302 H   0  0  0  0  0  0  0  0  0  0  0  0
   -1.5633   -7.9811    0.1589 H   0  0  0  0  0  0  0  0  0  0  0  0
   -1.3179   -5.6742    0.3334 H   0  0  0  0  0  0  0  0  0  0  0  0
   -2.0085   -4.2478   -0.9798 H   0  0  0  0  0  0  0  0  0  0  0  0
   -1.5583   -5.9087   -2.7727 H   0  0  0  0  0  0  0  0  0  0  0  0
   -3.1524   -7.7636   -2.5008 H   0  0  0  0  0  0  0  0  0  0  0  0
   -6.6543   -7.5946   -5.1797 H   0  0  0  0  0  0  0  0  0  0  0  0
   -7.9088   -7.2573   -3.9591 H   0  0  0  0  0  0  0  0  0  0  0  0
   -8.1906   -9.7168   -3.5909 H   0  0  0  0  0  0  0  0  0  0  0  0
   -8.4991   -9.2937   -5.2792 H   0  0  0  0  0  0  0  0  0  0  0  0
   -6.9645  -10.0434   -4.8179 H   0  0  0  0  0  0  0  0  0  0  0  0
   -4.7202   -3.4727   -4.3257 H   0  0  0  0  0  0  0  0  0  0  0  0
    0.6473    0.6683   -2.4089 H   0  0  0  0  0  0  0  0  0  0  0  0
    2.3627    2.3709   -2.8331 H   0  0  0  0  0  0  0  0  0  0  0  0
    4.8127    2.4259   -7.2041 H   0  0  0  0  0  0  0  0  0  0  0  0
    3.1269    2.9886   -7.0557 H   0  0  0  0  0  0  0  0  0  0  0  0
    4.5515    4.7608   -8.0537 H   0  0  0  0  0  0  0  0  0  0  0  0
    5.6115    4.7242   -6.6344 H   0  0  0  0  0  0  0  0  0  0  0  0
    3.9377    5.2682   -6.4763 H   0  0  0  0  0  0  0  0  0  0  0  0
    1.7315   -1.2755   -6.0695 H   0  0  0  0  0  0  0  0  0  0  0  0
   -0.3994   -0.2679   -6.6145 H   0  0  0  0  0  0  0  0  0  0  0  0
   -0.6470    0.0628   -8.9159 H   0  0  0  0  0  0  0  0  0  0  0  0
    0.1633    1.2290  -13.1641 H   0  0  0  0  0  0  0  0  0  0  0  0
    2.2809    2.3911  -12.9366 H   0  0  0  0  0  0  0  0  0  0  0  0
    5.0639    4.6795  -12.1186 H   0  0  0  0  0  0  0  0  0  0  0  0
    4.2082    3.2999  -12.8198 H   0  0  0  0  0  0  0  0  0  0  0  0
    3.1374    6.1694  -12.5792 H   0  0  0  0  0  0  0  0  0  0  0  0
    2.2203    4.8250  -13.2609 H   0  0  0  0  0  0  0  0  0  0  0  0
    3.6750    5.4056  -14.0800 H   0  0  0  0  0  0  0  0  0  0  0  0
   -0.9295    2.4190   -9.1975 H   0  0  0  0  0  0  0  0  0  0  0  0
   -5.0346   -2.8685  -11.3173 H   0  0  0  0  0  0  0  0  0  0  0  0
   -7.2401   -3.8795  -11.3438 H   0  0  0  0  0  0  0  0  0  0  0  0
   -9.1231   -4.8843  -11.3056 H   0  0  0  0  0  0  0  0  0  0  0  0
  -10.8301   -4.6546  -10.9041 H   0  0  0  0  0  0  0  0  0  0  0  0
   -8.5042   -3.5669   -9.2252 H   0  0  0  0  0  0  0  0  0  0  0  0
   -9.4760   -4.9858   -8.8186 H   0  0  0  0  0  0  0  0  0  0  0  0
  -10.2206   -3.3833   -8.8604 H   0  0  0  0  0  0  0  0  0  0  0  0
   -6.7791    0.9812  -12.0187 H   0  0  0  0  0  0  0  0  0  0  0  0
   -5.5355    0.6452  -14.0852 H   0  0  0  0  0  0  0  0  0  0  0  0
   -6.4212    3.1264  -18.4977 H   0  0  0  0  0  0  0  0  0  0  0  0
   -1.8508    3.8998  -15.5133 H   0  0  0  0  0  0  0  0  0  0  0  0
    0.3257    4.4617  -16.0827 H   0  0  0  0  0  0  0  0  0  0  0  0
   -0.5004    5.7519  -15.1674 H   0  0  0  0  0  0  0  0  0  0  0  0
    0.8509    6.1569  -16.2569 H   0  0  0  0  0  0  0  0  0  0  0  0
   -3.9457    7.1328  -20.1541 H   0  0  0  0  0  0  0  0  0  0  0  0
   -2.3583    7.4454  -20.9008 H   0  0  0  0  0  0  0  0  0  0  0  0
   -3.1284    5.8497  -21.0899 H   0  0  0  0  0  0  0  0  0  0  0  0
   -4.6362    4.9704  -19.5003 H   0  0  0  0  0  0  0  0  0  0  0  0
  1  2  2  0  0  0  0
  2  3  1  0  0  0  0
  3  4  2  0  0  0  0
  4  5  1  0  0  0  0
  5  6  2  0  0  0  0
  6  7  1  0  0  0  0
  7  8  2  0  0  0  0
  8  9  1  0  0  0  0
  9 10  1  0  0  0  0
 10 11  1  0  0  0  0
  8 12  1  0  0  0  0
 12 13  1  0  0  0  0
 12 14  2  0  0  0  0
  4 15  1  0  0  0  0
 15 16  2  0  0  0  0
 16 17  1  0  0  0  0
 17 18  1  0  0  0  0
 18 19  2  0  0  0  0
 19 20  1  0  0  0  0
 20 21  2  0  0  0  0
 21 22  1  0  0  0  0
 22 23  1  0  0  0  0
 23 24  1  0  0  0  0
 21 25  1  0  0  0  0
 25 26  2  0  0  0  0
 25 27  1  0  0  0  0
 17 28  2  0  0  0  0
 28 29  1  0  0  0  0
 16 30  1  0  0  0  0
 30 31  2  0  0  0  0
 31 32  1  0  0  0  0
 31 33  1  0  0  0  0
 33 34  2  0  0  0  0
 34 35  1  0  0  0  0
 35 36  2  0  0  0  0
 36 37  1  0  0  0  0
 37 38  2  0  0  0  0
 38 39  1  0  0  0  0
 39 40  2  0  0  0  0
 40 41  1  0  0  0  0
 41 42  1  0  0  0  0
 42 43  1  0  0  0  0
 40 44  1  0  0  0  0
 44 45  1  0  0  0  0
 44 46  2  0  0  0  0
 36 47  1  0  0  0  0
 47 48  2  0  0  0  0
 48 49  1  0  0  0  0
 49 50  1  0  0  0  0
 50 51  2  0  0  0  0
 51 52  1  0  0  0  0
 52 53  2  0  0  0  0
 53 54  1  0  0  0  0
 54 55  1  0  0  0  0
 55 56  1  0  0  0  0
 53 57  1  0  0  0  0
 57 58  2  0  0  0  0
 57 59  1  0  0  0  0
 49 60  2  0  0  0  0
 60 61  1  0  0  0  0
 48 62  1  0  0  0  0
 62 63  2  0  0  0  0
 63 64  1  0  0  0  0
 63 65  1  0  0  0  0
 65 66  1  0  0  0  0
 66 67  1  0  0  0  0
 67 68  2  0  0  0  0
 68 69  1  0  0  0  0
 69 70  1  0  0  0  0
 70 71  2  0  0  0  0
 71 72  1  0  0  0  0
 72 73  1  0  0  0  0
 71 74  1  0  0  0  0
 74 75  1  0  0  0  0
 75 76  1  0  0  0  0
 74 77  2  0  0  0  0
 67 78  1  0  0  0  0
 78 79  2  0  0  0  0
 79 80  1  0  0  0  0
 80 81  2  0  0  0  0
 81 82  1  0  0  0  0
 82 83  2  0  0  0  0
 83 84  1  0  0  0  0
 84 85  2  0  0  0  0
 85 86  1  0  0  0  0
 86 87  1  0  0  0  0
 87 88  1  0  0  0  0
 85 89  1  0  0  0  0
 89 90  1  0  0  0  0
 89 91  2  0  0  0  0
 81 92  1  0  0  0  0
 92 93  2  0  0  0  0
 93 94  1  0  0  0  0
 94 95  1  0  0  0  0
 95 96  2  0  0  0  0
 96 97  1  0  0  0  0
 97 98  2  0  0  0  0
 98 99  1  0  0  0  0
 99100  1  0  0  0  0
100101  1  0  0  0  0
 98102  1  0  0  0  0
102103  2  0  0  0  0
102104  1  0  0  0  0
 94105  2  0  0  0  0
105106  1  0  0  0  0
 93107  1  0  0  0  0
107108  2  0  0  0  0
108109  1  0  0  0  0
108110  1  0  0  0  0
110111  2  0  0  0  0
111112  1  0  0  0  0
112113  2  0  0  0  0
113114  1  0  0  0  0
114115  2  0  0  0  0
115116  1  0  0  0  0
116117  2  0  0  0  0
117118  1  0  0  0  0
118119  1  0  0  0  0
119120  1  0  0  0  0
117121  1  0  0  0  0
121122  1  0  0  0  0
121123  2  0  0  0  0
113124  1  0  0  0  0
124125  2  0  0  0  0
125126  1  0  0  0  0
126127  1  0  0  0  0
127128  2  0  0  0  0
128129  1  0  0  0  0
129130  2  0  0  0  0
130131  1  0  0  0  0
131132  1  0  0  0  0
132133  1  0  0  0  0
130134  1  0  0  0  0
134135  2  0  0  0  0
134136  1  0  0  0  0
126137  2  0  0  0  0
137138  1  0  0  0  0
125139  1  0  0  0  0
139140  2  0  0  0  0
140141  1  0  0  0  0
140142  1  0  0  0  0
142143  1  0  0  0  0
143144  1  0  0  0  0
144145  2  0  0  0  0
145146  1  0  0  0  0
146147  1  0  0  0  0
147148  2  0  0  0  0
148149  1  0  0  0  0
149150  1  0  0  0  0
148151  1  0  0  0  0
151152  1  0  0  0  0
152153  1  0  0  0  0
151154  2  0  0  0  0
 29  1  1  0  0  0  0
 61 33  1  0  0  0  0
 69 65  2  0  0  0  0
106 78  1  0  0  0  0
138110  1  0  0  0  0
146142  2  0  0  0  0
 28  3  1  0  0  0  0
 60 35  1  0  0  0  0
 77 68  1  0  0  0  0
105 80  1  0  0  0  0
137112  1  0  0  0  0
154145  1  0  0  0  0
 14  5  1  0  0  0  0
 32 15  1  0  0  0  0
 46 37  1  0  0  0  0
 64 47  1  0  0  0  0
 91 82  1  0  0  0  0
109 92  1  0  0  0  0
123114  1  0  0  0  0
141124  1  0  0  0  0
 26 18  1  0  0  0  0
 58 50  1  0  0  0  0
103 95  1  0  0  0  0
135127  1  0  0  0  0
  1155  1  0  0  0  0
  2156  1  0  0  0  0
  6157  1  0  0  0  0
  7158  1  0  0  0  0
 10159  1  0  0  0  0
 10160  1  0  0  0  0
 11161  1  0  0  0  0
 11162  1  0  0  0  0
 11163  1  0  0  0  0
 14164  1  0  0  0  0
 19165  1  0  0  0  0
 20166  1  0  0  0  0
 23167  1  0  0  0  0
 23168  1  0  0  0  0
 24169  1  0  0  0  0
 24170  1  0  0  0  0
 24171  1  0  0  0  0
 26172  1  0  0  0  0
 30173  1  0  0  0  0
 34174  1  0  0  0  0
 38175  1  0  0  0  0
 39176  1  0  0  0  0
 42177  1  0  0  0  0
 42178  1  0  0  0  0
 43179  1  0  0  0  0
 43180  1  0  0  0  0
 43181  1  0  0  0  0
 46182  1  0  0  0  0
 51183  1  0  0  0  0
 52184  1  0  0  0  0
 55185  1  0  0  0  0
 55186  1  0  0  0  0
 56187  1  0  0  0  0
 56188  1  0  0  0  0
 56189  1  0  0  0  0
 58190  1  0  0  0  0
 62191  1  0  0  0  0
 70192  1  0  0  0  0
 73193  1  0  0  0  0
 73194  1  0  0  0  0
 73195  1  0  0  0  0
 76196  1  0  0  0  0
 76197  1  0  0  0  0
 76198  1  0  0  0  0
 77199  1  0  0  0  0
 79200  1  0  0  0  0
 83201  1  0  0  0  0
 84202  1  0  0  0  0
 87203  1  0  0  0  0
 87204  1  0  0  0  0
 88205  1  0  0  0  0
 88206  1  0  0  0  0
 88207  1  0  0  0  0
 91208  1  0  0  0  0
 96209  1  0  0  0  0
 97210  1  0  0  0  0
100211  1  0  0  0  0
100212  1  0  0  0  0
101213  1  0  0  0  0
101214  1  0  0  0  0
101215  1  0  0  0  0
103216  1  0  0  0  0
107217  1  0  0  0  0
111218  1  0  0  0  0
115219  1  0  0  0  0
116220  1  0  0  0  0
119221  1  0  0  0  0
119222  1  0  0  0  0
120223  1  0  0  0  0
120224  1  0  0  0  0
120225  1  0  0  0  0
123226  1  0  0  0  0
128227  1  0  0  0  0
129228  1  0  0  0  0
132229  1  0  0  0  0
132230  1  0  0  0  0
133231  1  0  0  0  0
133232  1  0  0  0  0
133233  1  0  0  0  0
135234  1  0  0  0  0
139235  1  0  0  0  0
144236  1  0  0  0  0
147237  1  0  0  0  0
150238  1  0  0  0  0
150239  1  0  0  0  0
150240  1  0  0  0  0
153241  1  0  0  0  0
153242  1  0  0  0  0
153243  1  0  0  0  0
154244  1  0  0  0  0
M  END
