
  xtb     03022209143D
 energy: -251.074583932041 gnorm: 0.000191385066 xtb: 6.4.1 (unknown)
163179  0     0  0            999 V2000
   -9.4163   -7.2129  -11.2929 C   0  0  0  0  0  0  0  0  0  0  0  0
   -9.6234   -7.4984   -9.9925 C   0  0  0  0  0  0  0  0  0  0  0  0
   -9.5663   -6.3465   -9.1501 C   0  0  0  0  0  0  0  0  0  0  0  0
   -9.7254   -6.2733   -7.7627 C   0  0  0  0  0  0  0  0  0  0  0  0
   -9.9577   -7.4901   -6.9178 C   0  0  0  0  0  0  0  0  0  0  0  0
   -8.6297   -8.1627   -6.5643 C   0  0  0  0  0  0  0  0  0  0  0  0
   -9.5966   -5.0181   -7.1965 C   0  0  0  0  0  0  0  0  0  0  0  0
   -9.3337   -3.8416   -7.9424 C   0  0  0  0  0  0  0  0  0  0  0  0
   -9.1890   -3.9135   -9.3335 C   0  0  0  0  0  0  0  0  0  0  0  0
   -8.8643   -2.7086  -10.1645 C   0  0  0  0  0  0  0  0  0  0  0  0
   -7.3571   -2.4440  -10.1668 C   0  0  0  0  0  0  0  0  0  0  0  0
   -9.3036   -5.1714   -9.8964 C   0  0  0  0  0  0  0  0  0  0  0  0
   -9.1369   -5.5328  -11.5984 S   0  0  0  0  0  0  0  0  0  0  0  0
   -9.2288   -2.7002   -7.1048 C   0  0  0  0  0  0  0  0  0  0  0  0
   -9.3937   -2.9736   -5.7788 C   0  0  0  0  0  0  0  0  0  0  0  0
   -9.7102   -4.6715   -5.4903 S   0  0  0  0  0  0  0  0  0  0  0  0
   -9.2639   -2.0730   -4.6765 C   0  0  0  0  0  0  0  0  0  0  0  0
   -8.9498   -0.7457   -4.7143 C   0  0  0  0  0  0  0  0  0  0  0  0
   -8.7669   -0.1638   -3.4337 C   0  0  0  0  0  0  0  0  0  0  0  0
   -8.3563    1.1400   -3.1237 C   0  0  0  0  0  0  0  0  0  0  0  0
   -8.1698    2.1888   -4.1783 C   0  0  0  0  0  0  0  0  0  0  0  0
   -9.5099    2.8264   -4.5490 C   0  0  0  0  0  0  0  0  0  0  0  0
   -8.1272    1.4074   -1.7878 C   0  0  0  0  0  0  0  0  0  0  0  0
   -8.3203    0.4595   -0.7500 C   0  0  0  0  0  0  0  0  0  0  0  0
   -8.7927   -0.8238   -1.0539 C   0  0  0  0  0  0  0  0  0  0  0  0
   -8.9903   -1.8730   -0.0011 C   0  0  0  0  0  0  0  0  0  0  0  0
   -7.6843   -2.6225    0.2711 C   0  0  0  0  0  0  0  0  0  0  0  0
   -8.9761   -1.1057   -2.3943 C   0  0  0  0  0  0  0  0  0  0  0  0
   -9.4127   -2.6682   -3.0366 S   0  0  0  0  0  0  0  0  0  0  0  0
   -7.8789    0.9538    0.5040 C   0  0  0  0  0  0  0  0  0  0  0  0
   -7.3434    2.2080    0.4438 C   0  0  0  0  0  0  0  0  0  0  0  0
   -7.4548    2.8931   -1.1648 S   0  0  0  0  0  0  0  0  0  0  0  0
   -6.5653    2.8677    1.4446 C   0  0  0  0  0  0  0  0  0  0  0  0
   -6.2077    2.3831    2.6699 C   0  0  0  0  0  0  0  0  0  0  0  0
   -5.1525    3.1048    3.2841 C   0  0  0  0  0  0  0  0  0  0  0  0
   -4.4350    2.7657    4.4404 C   0  0  0  0  0  0  0  0  0  0  0  0
   -4.8755    1.6619    5.3537 C   0  0  0  0  0  0  0  0  0  0  0  0
   -6.0111    2.1352    6.2627 C   0  0  0  0  0  0  0  0  0  0  0  0
   -3.2750    3.4805    4.6674 C   0  0  0  0  0  0  0  0  0  0  0  0
   -2.8414    4.5573    3.8514 C   0  0  0  0  0  0  0  0  0  0  0  0
   -3.6256    4.9761    2.7685 C   0  0  0  0  0  0  0  0  0  0  0  0
   -3.2130    6.1040    1.8706 C   0  0  0  0  0  0  0  0  0  0  0  0
   -2.2933    5.6065    0.7532 C   0  0  0  0  0  0  0  0  0  0  0  0
   -4.7369    4.2037    2.4900 C   0  0  0  0  0  0  0  0  0  0  0  0
   -5.7060    4.3412    1.0449 S   0  0  0  0  0  0  0  0  0  0  0  0
   -1.5247    4.9698    4.1779 C   0  0  0  0  0  0  0  0  0  0  0  0
   -0.9440    4.2254    5.1640 C   0  0  0  0  0  0  0  0  0  0  0  0
   -2.0645    3.0695    5.8582 S   0  0  0  0  0  0  0  0  0  0  0  0
    0.4498    4.1300    5.4645 C   0  0  0  0  0  0  0  0  0  0  0  0
    1.4747    4.6972    4.7623 C   0  0  0  0  0  0  0  0  0  0  0  0
    2.7420    4.1266    5.0396 C   0  0  0  0  0  0  0  0  0  0  0  0
    3.9513    4.3513    4.3677 C   0  0  0  0  0  0  0  0  0  0  0  0
    4.0887    5.3901    3.2950 C   0  0  0  0  0  0  0  0  0  0  0  0
    3.6582    4.8322    1.9367 C   0  0  0  0  0  0  0  0  0  0  0  0
    4.9818    3.4810    4.6632 C   0  0  0  0  0  0  0  0  0  0  0  0
    4.8973    2.4614    5.6454 C   0  0  0  0  0  0  0  0  0  0  0  0
    3.7189    2.3033    6.3876 C   0  0  0  0  0  0  0  0  0  0  0  0
    3.5642    1.2310    7.4248 C   0  0  0  0  0  0  0  0  0  0  0  0
    3.1104   -0.0844    6.7883 C   0  0  0  0  0  0  0  0  0  0  0  0
    2.6597    3.1158    6.0307 C   0  0  0  0  0  0  0  0  0  0  0  0
    1.0243    2.9430    6.6186 S   0  0  0  0  0  0  0  0  0  0  0  0
    6.0492    1.6331    5.6478 C   0  0  0  0  0  0  0  0  0  0  0  0
    6.9713    1.9660    4.6964 C   0  0  0  0  0  0  0  0  0  0  0  0
    6.4973    3.4004    3.8011 S   0  0  0  0  0  0  0  0  0  0  0  0
    8.1189    1.2380    4.2689 C   0  0  0  0  0  0  0  0  0  0  0  0
    8.5866    1.3392    2.6044 S   0  0  0  0  0  0  0  0  0  0  0  0
    9.7581    0.0751    2.7647 C   0  0  0  0  0  0  0  0  0  0  0  0
    9.8363   -0.3593    4.0888 C   0  0  0  0  0  0  0  0  0  0  0  0
    8.9008    0.3010    4.9443 C   0  0  0  0  0  0  0  0  0  0  0  0
    8.8806   -0.0041    6.3238 C   0  0  0  0  0  0  0  0  0  0  0  0
    9.7349   -0.9412    6.8305 C   0  0  0  0  0  0  0  0  0  0  0  0
    9.8068   -1.3204    8.1313 O   0  0  0  0  0  0  0  0  0  0  0  0
    8.9278   -0.7207    9.0492 C   0  0  0  0  0  0  0  0  0  0  0  0
   10.6808   -1.6044    5.9696 C   0  0  0  0  0  0  0  0  0  0  0  0
   11.4834   -2.4938    6.6068 O   0  0  0  0  0  0  0  0  0  0  0  0
   12.4413   -3.1885    5.8489 C   0  0  0  0  0  0  0  0  0  0  0  0
   10.7310   -1.3052    4.6381 C   0  0  0  0  0  0  0  0  0  0  0  0
   10.4098   -0.4110    1.5945 C   0  0  0  0  0  0  0  0  0  0  0  0
   10.9148   -1.6538    1.3419 C   0  0  0  0  0  0  0  0  0  0  0  0
   11.4142   -1.8165    0.0226 C   0  0  0  0  0  0  0  0  0  0  0  0
   11.9750   -2.9617   -0.5558 C   0  0  0  0  0  0  0  0  0  0  0  0
   12.1129   -4.2509    0.1976 C   0  0  0  0  0  0  0  0  0  0  0  0
   10.8126   -5.0550    0.1362 C   0  0  0  0  0  0  0  0  0  0  0  0
   12.3488   -2.8575   -1.8835 C   0  0  0  0  0  0  0  0  0  0  0  0
   12.1996   -1.6777   -2.6521 C   0  0  0  0  0  0  0  0  0  0  0  0
   11.6391   -0.5332   -2.0749 C   0  0  0  0  0  0  0  0  0  0  0  0
   11.4820    0.7506   -2.8334 C   0  0  0  0  0  0  0  0  0  0  0  0
   12.7738    1.5685   -2.7891 C   0  0  0  0  0  0  0  0  0  0  0  0
   11.2671   -0.6357   -0.7475 C   0  0  0  0  0  0  0  0  0  0  0  0
   10.5336    0.6396    0.1917 S   0  0  0  0  0  0  0  0  0  0  0  0
   12.6728   -1.8603   -3.9871 C   0  0  0  0  0  0  0  0  0  0  0  0
   13.1481   -3.1003   -4.2147 C   0  0  0  0  0  0  0  0  0  0  0  0
   13.0594   -4.1406   -2.8344 S   0  0  0  0  0  0  0  0  0  0  0  0
   -9.4041   -7.8907  -12.1243 H   0  0  0  0  0  0  0  0  0  0  0  0
   -9.8092   -8.4933   -9.6304 H   0  0  0  0  0  0  0  0  0  0  0  0
  -10.5981   -8.1969   -7.4480 H   0  0  0  0  0  0  0  0  0  0  0  0
  -10.4653   -7.1934   -5.9970 H   0  0  0  0  0  0  0  0  0  0  0  0
   -7.9975   -7.4745   -6.0081 H   0  0  0  0  0  0  0  0  0  0  0  0
   -8.1014   -8.4618   -7.4670 H   0  0  0  0  0  0  0  0  0  0  0  0
   -8.8034   -9.0446   -5.9525 H   0  0  0  0  0  0  0  0  0  0  0  0
   -9.1993   -2.8806  -11.1897 H   0  0  0  0  0  0  0  0  0  0  0  0
   -9.3903   -1.8348   -9.7759 H   0  0  0  0  0  0  0  0  0  0  0  0
   -6.8277   -3.2977  -10.5833 H   0  0  0  0  0  0  0  0  0  0  0  0
   -6.9970   -2.2780   -9.1538 H   0  0  0  0  0  0  0  0  0  0  0  0
   -7.1277   -1.5674  -10.7678 H   0  0  0  0  0  0  0  0  0  0  0  0
   -9.0240   -1.7122   -7.4741 H   0  0  0  0  0  0  0  0  0  0  0  0
   -8.8235   -0.2043   -5.6337 H   0  0  0  0  0  0  0  0  0  0  0  0
   -7.7150    1.7478   -5.0672 H   0  0  0  0  0  0  0  0  0  0  0  0
   -7.4966    2.9608   -3.7989 H   0  0  0  0  0  0  0  0  0  0  0  0
  -10.1993    2.0737   -4.9250 H   0  0  0  0  0  0  0  0  0  0  0  0
   -9.3687    3.5853   -5.3148 H   0  0  0  0  0  0  0  0  0  0  0  0
   -9.9565    3.2951   -3.6752 H   0  0  0  0  0  0  0  0  0  0  0  0
   -9.7447   -2.5844   -0.3450 H   0  0  0  0  0  0  0  0  0  0  0  0
   -9.3502   -1.4122    0.9203 H   0  0  0  0  0  0  0  0  0  0  0  0
   -6.9099   -1.9338    0.6022 H   0  0  0  0  0  0  0  0  0  0  0  0
   -7.8344   -3.3766    1.0399 H   0  0  0  0  0  0  0  0  0  0  0  0
   -7.3401   -3.1156   -0.6349 H   0  0  0  0  0  0  0  0  0  0  0  0
   -7.9035    0.3750    1.4088 H   0  0  0  0  0  0  0  0  0  0  0  0
   -6.6368    1.4922    3.0902 H   0  0  0  0  0  0  0  0  0  0  0  0
   -5.2096    0.8030    4.7683 H   0  0  0  0  0  0  0  0  0  0  0  0
   -4.0291    1.3462    5.9674 H   0  0  0  0  0  0  0  0  0  0  0  0
   -5.6802    2.9736    6.8712 H   0  0  0  0  0  0  0  0  0  0  0  0
   -6.8648    2.4571    5.6703 H   0  0  0  0  0  0  0  0  0  0  0  0
   -6.3270    1.3312    6.9232 H   0  0  0  0  0  0  0  0  0  0  0  0
   -4.1063    6.5474    1.4247 H   0  0  0  0  0  0  0  0  0  0  0  0
   -2.7038    6.8738    2.4528 H   0  0  0  0  0  0  0  0  0  0  0  0
   -1.9928    6.4341    0.1153 H   0  0  0  0  0  0  0  0  0  0  0  0
   -2.8101    4.8695    0.1432 H   0  0  0  0  0  0  0  0  0  0  0  0
   -1.4016    5.1426    1.1690 H   0  0  0  0  0  0  0  0  0  0  0  0
   -0.9992    5.7409    3.6454 H   0  0  0  0  0  0  0  0  0  0  0  0
    1.3178    5.4478    4.0099 H   0  0  0  0  0  0  0  0  0  0  0  0
    5.1335    5.7036    3.2361 H   0  0  0  0  0  0  0  0  0  0  0  0
    3.4836    6.2634    3.5444 H   0  0  0  0  0  0  0  0  0  0  0  0
    4.2851    3.9867    1.6641 H   0  0  0  0  0  0  0  0  0  0  0  0
    2.6242    4.4959    1.9711 H   0  0  0  0  0  0  0  0  0  0  0  0
    3.7529    5.5952    1.1678 H   0  0  0  0  0  0  0  0  0  0  0  0
    4.5104    1.0812    7.9480 H   0  0  0  0  0  0  0  0  0  0  0  0
    2.8170    1.5492    8.1556 H   0  0  0  0  0  0  0  0  0  0  0  0
    2.1500    0.0504    6.2968 H   0  0  0  0  0  0  0  0  0  0  0  0
    3.8319   -0.4196    6.0463 H   0  0  0  0  0  0  0  0  0  0  0  0
    3.0049   -0.8554    7.5478 H   0  0  0  0  0  0  0  0  0  0  0  0
    6.1411    0.7589    6.2648 H   0  0  0  0  0  0  0  0  0  0  0  0
    8.2057    0.5392    6.9623 H   0  0  0  0  0  0  0  0  0  0  0  0
    7.8819   -0.9167    8.7899 H   0  0  0  0  0  0  0  0  0  0  0  0
    9.1517   -1.1765   10.0121 H   0  0  0  0  0  0  0  0  0  0  0  0
    9.0883    0.3606    9.1137 H   0  0  0  0  0  0  0  0  0  0  0  0
   12.9524   -3.8452    6.5507 H   0  0  0  0  0  0  0  0  0  0  0  0
   13.1683   -2.5070    5.3948 H   0  0  0  0  0  0  0  0  0  0  0  0
   11.9716   -3.7919    5.0647 H   0  0  0  0  0  0  0  0  0  0  0  0
   11.4689   -1.7524    3.9953 H   0  0  0  0  0  0  0  0  0  0  0  0
   10.8733   -2.4553    2.0552 H   0  0  0  0  0  0  0  0  0  0  0  0
   12.3719   -4.0492    1.2387 H   0  0  0  0  0  0  0  0  0  0  0  0
   12.9190   -4.8393   -0.2463 H   0  0  0  0  0  0  0  0  0  0  0  0
   10.9175   -5.9881    0.6847 H   0  0  0  0  0  0  0  0  0  0  0  0
    9.9911   -4.4862    0.5664 H   0  0  0  0  0  0  0  0  0  0  0  0
   10.5649   -5.2867   -0.8970 H   0  0  0  0  0  0  0  0  0  0  0  0
   10.6738    1.3323   -2.3839 H   0  0  0  0  0  0  0  0  0  0  0  0
   11.2154    0.5407   -3.8707 H   0  0  0  0  0  0  0  0  0  0  0  0
   12.6525    2.4971   -3.3415 H   0  0  0  0  0  0  0  0  0  0  0  0
   13.5963    1.0063   -3.2261 H   0  0  0  0  0  0  0  0  0  0  0  0
   13.0299    1.8084   -1.7598 H   0  0  0  0  0  0  0  0  0  0  0  0
   12.6553   -1.0897   -4.7365 H   0  0  0  0  0  0  0  0  0  0  0  0
   13.5579   -3.4947   -5.1243 H   0  0  0  0  0  0  0  0  0  0  0  0
  1  2  2  0  0  0  0
  2  3  1  0  0  0  0
  3  4  2  0  0  0  0
  4  5  1  0  0  0  0
  5  6  1  0  0  0  0
  4  7  1  0  0  0  0
  7  8  2  0  0  0  0
  8  9  1  0  0  0  0
  9 10  1  0  0  0  0
 10 11  1  0  0  0  0
  9 12  2  0  0  0  0
 12 13  1  0  0  0  0
  8 14  1  0  0  0  0
 14 15  2  0  0  0  0
 15 16  1  0  0  0  0
 15 17  1  0  0  0  0
 17 18  2  0  0  0  0
 18 19  1  0  0  0  0
 19 20  2  0  0  0  0
 20 21  1  0  0  0  0
 21 22  1  0  0  0  0
 20 23  1  0  0  0  0
 23 24  2  0  0  0  0
 24 25  1  0  0  0  0
 25 26  1  0  0  0  0
 26 27  1  0  0  0  0
 25 28  2  0  0  0  0
 28 29  1  0  0  0  0
 24 30  1  0  0  0  0
 30 31  2  0  0  0  0
 31 32  1  0  0  0  0
 31 33  1  0  0  0  0
 33 34  2  0  0  0  0
 34 35  1  0  0  0  0
 35 36  2  0  0  0  0
 36 37  1  0  0  0  0
 37 38  1  0  0  0  0
 36 39  1  0  0  0  0
 39 40  2  0  0  0  0
 40 41  1  0  0  0  0
 41 42  1  0  0  0  0
 42 43  1  0  0  0  0
 41 44  2  0  0  0  0
 44 45  1  0  0  0  0
 40 46  1  0  0  0  0
 46 47  2  0  0  0  0
 47 48  1  0  0  0  0
 47 49  1  0  0  0  0
 49 50  2  0  0  0  0
 50 51  1  0  0  0  0
 51 52  2  0  0  0  0
 52 53  1  0  0  0  0
 53 54  1  0  0  0  0
 52 55  1  0  0  0  0
 55 56  2  0  0  0  0
 56 57  1  0  0  0  0
 57 58  1  0  0  0  0
 58 59  1  0  0  0  0
 57 60  2  0  0  0  0
 60 61  1  0  0  0  0
 56 62  1  0  0  0  0
 62 63  2  0  0  0  0
 63 64  1  0  0  0  0
 63 65  1  0  0  0  0
 65 66  1  0  0  0  0
 66 67  1  0  0  0  0
 67 68  2  0  0  0  0
 68 69  1  0  0  0  0
 69 70  1  0  0  0  0
 70 71  2  0  0  0  0
 71 72  1  0  0  0  0
 72 73  1  0  0  0  0
 71 74  1  0  0  0  0
 74 75  1  0  0  0  0
 75 76  1  0  0  0  0
 74 77  2  0  0  0  0
 67 78  1  0  0  0  0
 78 79  2  0  0  0  0
 79 80  1  0  0  0  0
 80 81  2  0  0  0  0
 81 82  1  0  0  0  0
 82 83  1  0  0  0  0
 81 84  1  0  0  0  0
 84 85  2  0  0  0  0
 85 86  1  0  0  0  0
 86 87  1  0  0  0  0
 87 88  1  0  0  0  0
 86 89  2  0  0  0  0
 89 90  1  0  0  0  0
 85 91  1  0  0  0  0
 91 92  2  0  0  0  0
 92 93  1  0  0  0  0
 13  1  1  0  0  0  0
 29 17  1  0  0  0  0
 45 33  1  0  0  0  0
 61 49  1  0  0  0  0
 69 65  2  0  0  0  0
 90 78  1  0  0  0  0
 12  3  1  0  0  0  0
 28 19  1  0  0  0  0
 44 35  1  0  0  0  0
 60 51  1  0  0  0  0
 77 68  1  0  0  0  0
 89 80  1  0  0  0  0
 16  7  1  0  0  0  0
 32 23  1  0  0  0  0
 48 39  1  0  0  0  0
 64 55  1  0  0  0  0
 93 84  1  0  0  0  0
  1 94  1  0  0  0  0
  2 95  1  0  0  0  0
  5 96  1  0  0  0  0
  5 97  1  0  0  0  0
  6 98  1  0  0  0  0
  6 99  1  0  0  0  0
  6100  1  0  0  0  0
 10101  1  0  0  0  0
 10102  1  0  0  0  0
 11103  1  0  0  0  0
 11104  1  0  0  0  0
 11105  1  0  0  0  0
 14106  1  0  0  0  0
 18107  1  0  0  0  0
 21108  1  0  0  0  0
 21109  1  0  0  0  0
 22110  1  0  0  0  0
 22111  1  0  0  0  0
 22112  1  0  0  0  0
 26113  1  0  0  0  0
 26114  1  0  0  0  0
 27115  1  0  0  0  0
 27116  1  0  0  0  0
 27117  1  0  0  0  0
 30118  1  0  0  0  0
 34119  1  0  0  0  0
 37120  1  0  0  0  0
 37121  1  0  0  0  0
 38122  1  0  0  0  0
 38123  1  0  0  0  0
 38124  1  0  0  0  0
 42125  1  0  0  0  0
 42126  1  0  0  0  0
 43127  1  0  0  0  0
 43128  1  0  0  0  0
 43129  1  0  0  0  0
 46130  1  0  0  0  0
 50131  1  0  0  0  0
 53132  1  0  0  0  0
 53133  1  0  0  0  0
 54134  1  0  0  0  0
 54135  1  0  0  0  0
 54136  1  0  0  0  0
 58137  1  0  0  0  0
 58138  1  0  0  0  0
 59139  1  0  0  0  0
 59140  1  0  0  0  0
 59141  1  0  0  0  0
 62142  1  0  0  0  0
 70143  1  0  0  0  0
 73144  1  0  0  0  0
 73145  1  0  0  0  0
 73146  1  0  0  0  0
 76147  1  0  0  0  0
 76148  1  0  0  0  0
 76149  1  0  0  0  0
 77150  1  0  0  0  0
 79151  1  0  0  0  0
 82152  1  0  0  0  0
 82153  1  0  0  0  0
 83154  1  0  0  0  0
 83155  1  0  0  0  0
 83156  1  0  0  0  0
 87157  1  0  0  0  0
 87158  1  0  0  0  0
 88159  1  0  0  0  0
 88160  1  0  0  0  0
 88161  1  0  0  0  0
 91162  1  0  0  0  0
 92163  1  0  0  0  0
M  END
