84

C         -3.92080        9.89090       -7.37950
N         -2.89990        9.42420       -6.61800
C         -2.22680       10.47940       -6.06360
C         -2.84610       11.64030       -6.49060
C         -3.91250       11.26070       -7.31930
C         -1.11970       10.31350       -5.23100
C         -0.15310       10.18570       -4.51150
C          0.96690       10.06040       -3.69110
N          1.47400        8.84970       -3.31090
C          2.57650        9.04200       -2.52460
C          2.77090       10.41040       -2.40020
C          1.76480       11.04680       -3.12850
C          3.31770        7.98750       -1.99600
C          3.98420        7.08490       -1.53660
C          4.77190        6.05740       -1.02150
N          4.32480        4.77210       -0.89700
C          5.32110        3.98910       -0.38310
C          6.42790        4.79970       -0.17410
C          6.08440        6.09250       -0.57110
C          5.16280        2.62500       -0.14470
C          5.04600        1.43750        0.07000
C          4.94430        0.06760        0.30470
N          3.79750       -0.52900        0.74660
C          4.00300       -1.87370        0.88100
C          5.31710       -2.13720        0.50870
C          5.90440       -0.92480        0.15190
C          3.02010       -2.74580        1.33040
C          2.18030       -3.52820        1.73100
C          1.24500       -4.42890        2.19560
S         -0.25310       -3.91430        2.90730
C         -0.77870       -5.55020        3.21080
C          0.18780       -6.45660        2.75090
C          1.32960       -5.82020        2.18460
C          2.40630       -6.57900        1.67850
C          2.34880       -7.94210        1.71890
O          3.31290       -8.78810        1.27440
C          4.48400       -8.22810        0.73620
C          1.18340       -8.59610        2.25600
O          1.23810       -9.95230        2.20880
C          0.15060      -10.68140        2.71940
C          0.13880       -7.86860        2.75320
C         -1.98860       -5.79590        3.90790
S         -2.24700       -7.31200        4.73230
C         -3.75140       -6.81250        5.36940
C         -4.07480       -5.53570        4.97950
C         -3.07570       -4.94470        4.13990
C         -3.30080       -3.64540        3.63370
C         -4.43090       -2.95820        3.97420
O         -4.74370       -1.70650        3.54760
C         -3.83510       -1.04450        2.70520
C         -5.41720       -3.54440        4.84810
O         -6.47920       -2.73840        5.10880
C         -7.49090       -3.23060        5.94980
C         -5.24100       -4.80780        5.32560
H         -4.57560        9.22440       -7.90580
H         -2.66290        8.45620       -6.47890
H         -2.55410       12.63760       -6.22850
H         -4.59640       11.92080       -7.81530
H          1.09940        7.95400       -3.57580
H          3.55680       10.87900       -1.84140
H          1.62100       12.10290       -3.24310
H          3.40520        4.45050       -1.14960
H          7.36980        4.47670        0.22320
H          6.70940        6.96290       -0.54100
H          2.93540       -0.05300        0.95500
H          5.78130       -3.10370        0.50530
H          6.91100       -0.76940       -0.18280
H          3.25000       -6.04710        1.26950
H          5.11350       -9.07160        0.45770
H          4.26950       -7.62530       -0.15270
H          5.00830       -7.60990        1.47260
H          0.41760      -11.72990        2.59790
H         -0.01480      -10.46780        3.78060
H         -0.76980      -10.47460        2.16290
H         -0.73670       -8.36250        3.13510
H         -4.31260       -7.48260        5.98850
H         -2.57970       -3.20910        2.96530
H         -2.85880       -0.91900        3.18550
H         -4.27280       -0.06620        2.51250
H         -3.70360       -1.57640        1.75680
H         -7.10550       -3.46380        6.94810
H         -7.96510       -4.12350        5.52850
H         -8.22740       -2.43230        6.02450
H         -5.96400       -5.28390        5.96760
