133

C          3.86430        4.90660        2.45870
C          4.41140        5.30340        1.35290
C          4.94550        5.68230        0.23380
C          5.98920        6.78170        0.08440
C          6.24710        6.74850       -1.38190
C          5.51070        5.83610       -2.03480
C          4.61010        5.07230       -1.12280
C          5.83310        5.86390       -3.45570
C          6.78200        6.82030       -3.62740
C          7.13560        7.47780       -2.32740
C          5.27600        5.04020       -4.49490
C          4.30040        4.13470       -4.32200
C          3.77280        3.31110       -5.38030
C          2.80870        2.44040       -5.19910
C          1.85880        1.58690       -4.98280
C          0.36910        1.88830       -5.12030
C         -0.23650        0.61070       -4.65280
C          0.67110       -0.32640       -4.33780
C          2.07240        0.14010       -4.54680
C         -0.00450       -1.53290       -3.88140
C         -1.33880       -1.28900       -3.94610
C         -1.61830        0.09530       -4.44650
C          0.59550       -2.74000       -3.38550
C          1.91330       -2.98550       -3.29880
C          2.47400       -4.15540       -2.66110
C          1.76420       -5.09050       -2.07670
C          1.02490       -5.92250       -1.41560
C          0.50710       -7.26770       -1.90930
C         -0.11790       -7.81650       -0.67290
C         -0.09820       -6.95940        0.35940
C          0.57630       -5.67310        0.02370
C         -0.69120       -7.58150        1.53510
C         -1.05240       -8.83950        1.17800
C         -0.73930       -9.10670       -0.26520
C         -0.85560       -6.97090        2.83020
C         -0.84160       -5.64610        3.04060
C         -0.98190       -5.02150        4.33250
C         -1.07920       -3.72130        4.47390
C         -1.18480       -2.43260        4.54250
C         -0.00510       -1.46680        4.61860
C         -0.69950       -0.15420        4.71270
C         -2.03730       -0.25880        4.69150
C         -2.50600       -1.66980        4.57860
C         -2.63720        1.05630        4.87630
C         -1.62430        1.94310        5.00400
C         -0.29040        1.26640        4.87990
C         -4.05880        1.32190        5.01020
C         -5.02880        0.93240        4.16470
C         -4.87540        0.34780        2.87310
S         -3.37420        0.38340        2.00080
C         -4.07380       -0.34250        0.59440
C         -5.42550       -0.60930        0.79070
C         -5.88280       -0.20830        2.08280
C         -7.23920       -0.40670        2.42990
C         -8.10040       -0.96920        1.53300
O         -9.42410       -1.19950        1.74590
C         -9.97490       -0.81430        2.97860
C         -7.63580       -1.37970        0.23250
O         -8.59990       -1.93420       -0.55220
C         -8.23760       -2.37200       -1.83580
C         -6.33080       -1.20140       -0.12100
C         -3.28720       -0.57020       -0.58270
C         -2.00570       -0.29940       -0.66620
C         -0.74900        0.00490       -0.69810
C         -0.20400        1.37370       -1.08970
C          1.26040        1.12280       -1.07610
C          1.58770       -0.12560       -0.70540
C          0.39160       -0.95510       -0.38030
C          3.03420       -0.28370       -0.74810
C          3.55450        0.90230       -1.15370
C          2.47750        1.91810       -1.38630
C          3.80490       -1.46370       -0.42540
C          3.31260       -2.61040        0.02950
H          2.95710        5.35190        2.83840
H          4.29390        4.11650        3.05560
H          5.59990        7.74800        0.42090
H          6.88410        6.56560        0.67600
H          3.55210        5.21720       -1.36240
H          4.81950        3.99910       -1.13130
H          7.24090        7.09820       -4.55940
H          6.93420        8.55160       -2.35000
H          8.19470        7.35440       -2.08780
H          5.69820        5.18750       -5.48220
H          3.86480        3.98720       -3.34580
H          4.21340        3.43150       -6.36400
H          0.07750        2.75090       -4.51320
H          0.11020        2.11900       -6.15900
H          2.67840        0.08570       -3.63920
H          2.58320       -0.42780       -5.33070
H         -2.11970       -1.97440       -3.67010
H         -2.18600        0.67400       -3.71340
H         -2.20130        0.08460       -5.37110
H         -0.09870       -3.49110       -3.02560
H          2.62700       -2.26440       -3.66540
H          3.55550       -4.22280       -2.64210
H         -0.21530       -7.14110       -2.72270
H          1.32160       -7.89110       -2.28890
H          1.42140       -5.45730        0.68170
H         -0.10400       -4.81620        0.05710
H         -1.52430       -9.56940        1.81120
H         -1.64220       -9.34060       -0.83460
H         -0.05690       -9.95220       -0.38190
H         -1.02440       -7.64800        3.65900
H         -0.72820       -4.96770        2.20810
H         -0.99190       -5.66970        5.20150
H          0.62820       -1.54880        3.72950
H          0.62550       -1.67270        5.48890
H         -3.11590       -1.97310        5.43420
H         -3.09250       -1.85520        3.67550
H         -1.72460        3.00440        5.14460
H          0.26760        1.64060        4.01820
H          0.33080        1.42650        5.76420
H         -4.34360        1.87510        5.89660
H         -6.05620        1.12620        4.44770
H         -7.57400       -0.10790        3.40930
H        -11.03030       -1.07650        2.92490
H         -9.87750        0.26440        3.14340
H         -9.51050       -1.35050        3.81330
H         -7.87160       -1.54560       -2.45530
H         -9.14670       -2.77700       -2.27730
H         -7.47470       -3.15710       -1.79350
H         -5.96870       -1.50620       -1.08910
H         -3.81150       -0.97760       -1.43870
H         -0.56710        1.68480       -2.07190
H         -0.50970        2.13560       -0.36510
H          0.36150       -1.25120        0.67300
H          0.32640       -1.85730       -0.99320
H          4.59870        1.12200       -1.29180
H          2.48250        2.29490       -2.41230
H          2.59080        2.77700       -0.71960
H          4.87360       -1.35780       -0.57310
H          3.95140       -3.44760        0.25440
H          2.26020       -2.75910        0.18970
