244

C        -12.01700       13.41200       -2.29120
S        -11.31810       12.38690       -1.12220
C        -11.13800       11.08770       -2.25970
C        -11.59660       11.47140       -3.51970
C        -12.10700       12.81030       -3.52520
C        -12.61780       13.37270       -4.72220
C        -12.60740       12.64120       -5.87170
O        -13.06260       13.05540       -7.08030
C        -13.58240       14.35720       -7.18330
C        -12.06140       11.30380       -5.87710
O        -12.09120       10.70170       -7.09130
C        -11.60270        9.38790       -7.19930
C        -11.56840       10.74580       -4.73240
C        -10.57110        9.85060       -1.83820
C        -10.71680        8.60990       -2.39060
C         -9.96250        7.59880       -1.74630
C         -9.87780        6.23950       -2.09860
C        -10.53300        5.72440       -3.30620
C        -10.35320        6.35730       -4.53610
C        -10.96770        5.87570       -5.67140
C        -11.78030        4.74400       -5.63050
S        -12.49030        4.20410       -7.15920
C        -14.18870        3.69580       -6.70000
C        -14.96600        4.82830       -6.05990
C        -11.91820        4.09950       -4.40530
F        -12.65410        2.97130       -4.29630
C        -11.31920        4.57880       -3.25760
C         -9.09570        5.43340       -1.28580
C         -8.39980        5.94160       -0.16400
C         -8.48160        7.29940        0.19360
C         -7.70000        7.76340        1.34630
C         -7.76570        7.07480        2.55600
C         -6.90050        7.35770        3.59380
C         -5.93140        8.34560        3.45840
S         -4.67770        8.71140        4.63900
C         -4.83480        7.39800        5.90080
C         -5.87430        7.71940        6.95730
C         -5.93380        9.08520        2.27320
C         -6.79170        8.81280        1.23050
F         -5.03310       10.07820        2.12250
C         -9.25470        8.10290       -0.62450
S         -9.51260        9.81560       -0.43420
C         -7.57220        4.96200        0.42690
C         -7.61810        3.74640       -0.18660
S         -8.72910        3.73930       -1.54280
C         -6.79460        2.64440        0.18670
C         -6.57630        1.43660       -0.40440
C         -5.54780        0.67870        0.22100
C         -4.98250       -0.54160       -0.19130
C         -5.57430       -1.31750       -1.28620
C         -6.94300       -1.57370       -1.30510
C         -7.52010       -2.32160       -2.31280
C         -6.74630       -2.84580       -3.34220
S         -7.34170       -3.80090       -4.69620
C         -9.06410       -4.20470       -4.24480
C         -9.14370       -5.24230       -3.14070
C         -5.37710       -2.57220       -3.31610
F         -4.59690       -3.05110       -4.30590
C         -4.79000       -1.82800       -2.31880
C         -3.84310       -0.95790        0.48480
C         -3.27450       -0.25030        1.57580
C         -3.87180        0.93540        2.02480
C         -3.33150        1.78870        3.09130
C         -2.01590        2.24250        3.06480
C         -1.57000        3.18510        3.97150
C         -2.42630        3.71560        4.93000
S         -1.98210        4.96590        6.09330
C         -0.68270        5.90840        5.21990
C         -1.20660        6.58140        3.96640
C         -3.72550        3.21210        4.97920
C         -4.18170        2.26950        4.08620
F         -4.58120        3.68490        5.91020
C         -4.99000        1.36330        1.32660
S         -5.78150        2.88590        1.60060
C         -2.09850       -0.87170        2.06210
C         -1.74780       -1.99210        1.36940
S         -2.90410       -2.38170        0.10980
C         -0.53780       -2.73580        1.48240
C         -0.10480       -3.75350        0.68520
C          1.23190       -4.14740        0.94130
C          1.98990       -5.12700        0.27660
C          1.45490       -5.89960       -0.85100
C          0.84390       -5.27110       -1.93490
C          0.36600       -6.00970       -2.99640
C          0.48740       -7.39730       -3.02710
S         -0.11310       -8.24210       -4.46160
C         -0.97280       -9.70300       -3.76790
C         -2.07660       -9.30520       -2.80880
C          1.12820       -8.00790       -1.95390
F          1.32200       -9.34610       -1.93230
C          1.59320       -7.28360       -0.87560
C          3.29610       -5.29500        0.70520
C          3.87440       -4.54820        1.76030
C          3.10350       -3.59920        2.45520
C          3.65890       -2.86020        3.59450
C          4.29780       -3.53980        4.62910
C          4.80660       -2.86500        5.72080
C          4.68870       -1.48360        5.82060
S          5.31110       -0.51920        7.16150
C          5.33580       -1.69570        8.56050
C          3.94350       -2.15610        8.94450
C          4.06170       -0.81300        4.77090
C          3.55000       -1.47430        3.67630
F          3.94830        0.52940        4.82180
C          1.80690       -3.40670        2.00550
S          0.67500       -2.24680        2.65140
C          5.25310       -4.81960        1.90470
C          5.74340       -5.73780        1.01350
S          4.47470       -6.34700       -0.03630
C          7.10500       -6.11480        0.88520
S          8.27500       -5.25650        1.83670
C          9.61200       -6.08950        1.11590
C          9.16200       -7.03980        0.19500
C          7.73810       -7.04730        0.05890
C          7.12920       -7.94600       -0.84230
C          7.89190       -8.80190       -1.58620
O          7.41650       -9.69410       -2.48280
C          6.02560       -9.75370       -2.69530
C          9.32490       -8.81150       -1.43400
O          9.96280       -9.71740       -2.21110
C         11.36690       -9.78350       -2.15430
C          9.93020       -7.95650       -0.55630
C         10.92440       -5.68840        1.49040
C         12.12650       -5.91290        0.88090
C         13.22390       -5.28520        1.52210
C         14.58110       -5.34680        1.16590
C         15.01330       -6.06070       -0.04100
C         14.40600       -5.80960       -1.27190
C         14.80660       -6.48380       -2.40420
C         15.81910       -7.44190       -2.35810
S         16.20680       -8.27850       -3.86340
C         18.00970       -8.60910       -3.73130
C         18.58630       -8.74020       -5.12710
C         16.40720       -7.69120       -1.12170
F         17.36560       -8.63580       -0.98920
C         16.02980       -7.00740        0.01650
C         15.47420       -4.69140        2.00220
C         15.07270       -3.95930        3.14580
C         13.71600       -3.88760        3.49400
C         13.24030       -3.14370        4.66700
C         12.21180       -2.21490        4.54030
C         11.72280       -1.53360        5.63710
C         12.23580       -1.76940        6.90740
S         11.69180       -0.98100        8.38590
C         10.08540       -0.24320        7.92630
C          9.01760       -1.28910        7.67110
C         13.27920       -2.69060        7.01710
C         13.78330       -3.36880        5.92990
F         13.81190       -2.93610        8.23190
C         12.82620       -4.55790        2.66920
S         11.10420       -4.66800        2.91370
C         16.18250       -3.32540        3.78010
C         17.35370       -3.57300        3.16070
S         17.20030       -4.58660        1.76570
H        -12.32630       14.40030       -2.01580
H        -13.00040       14.37950       -4.68900
H        -14.46100       14.49080       -6.54350
H        -12.83040       15.11080       -6.92710
H        -13.87290       14.47670       -8.22560
H        -10.53760        9.33280       -6.95040
H        -11.74410        9.10630       -8.24140
H        -12.16090        8.69810       -6.55700
H        -11.13030        9.76380       -4.74450
H        -11.39150        8.39980       -3.19880
H         -9.70970        7.22180       -4.59890
H        -10.82540        6.36570       -6.62250
H        -14.62870        3.40690       -7.65440
H        -14.13530        2.82160       -6.05510
H        -15.98940        4.50990       -5.87230
H        -14.51790        5.11880       -5.11110
H        -14.98430        5.69710       -6.71460
H        -11.47530        4.04950       -2.33060
H         -8.50570        6.29910        2.68540
H         -6.97370        6.78170        4.50130
H         -3.84330        7.34300        6.35010
H         -5.03230        6.45600        5.39250
H         -6.86150        7.85020        6.51930
H         -5.91750        6.90700        7.67990
H         -5.60980        8.63680        7.47820
H         -6.71570        9.38930        0.32220
H         -6.92000        5.16240        1.25740
H         -7.09380        1.12210       -1.29320
H         -7.56480       -1.19930       -0.50580
H         -8.58450       -2.48890       -2.28820
H         -9.48450       -4.59450       -5.17190
H         -9.58410       -3.28180       -3.99160
H        -10.18490       -5.47410       -2.92480
H         -8.64050       -6.15560       -3.44890
H         -8.67070       -4.88300       -2.22920
H         -3.73030       -1.63560       -2.36680
H         -1.34200        1.88330        2.30180
H         -0.54600        3.51900        3.91800
H          0.15520        5.24330        5.01500
H         -0.36660        6.64620        5.95720
H         -1.57170        5.84500        3.25280
H         -0.40890        7.15280        3.49630
H         -2.02080        7.26100        4.20770
H         -5.19920        1.92090        4.16670
H         -1.52000       -0.49080        2.88470
H         -0.72470       -4.19600       -0.07400
H          0.76040       -4.19540       -1.95200
H         -0.11160       -5.52060       -3.83110
H         -0.24070      -10.35740       -3.30010
H         -1.37790      -10.19690       -4.65100
H         -2.61700      -10.19200       -2.48360
H         -2.77590       -8.62620       -3.29230
H         -1.66710       -8.81050       -1.92970
H          2.06130       -7.81180       -0.05940
H          4.38170       -4.61530        4.58700
H          5.30210       -3.42520        6.49740
H          5.99460       -2.52670        8.31160
H          5.79230       -1.12000        9.36570
H          3.47260       -2.69770        8.12640
H          3.99770       -2.81300        9.81030
H          3.31990       -1.30100        9.19460
H          3.08450       -0.90200        2.89000
H          5.88290       -4.31990        2.61920
H          6.05720       -7.94940       -0.93060
H          5.87800      -10.51610       -3.45780
H          5.63280       -8.79760       -3.05500
H          5.49210      -10.04280       -1.78450
H         11.65400      -10.55140       -2.87010
H         11.82760       -8.83220       -2.44110
H         11.71710      -10.06900       -1.15700
H         10.99440       -7.98990       -0.41010
H         12.24360       -6.48780       -0.01680
H         13.63640       -5.05600       -1.34250
H         14.34240       -6.27830       -3.35640
H         18.15080       -9.52440       -3.15840
H         18.45180       -7.76800       -3.19950
H         18.43050       -7.82430       -5.69280
H         19.65450       -8.93680       -5.06500
H         18.11120       -9.56010       -5.66100
H         16.51570       -7.24790        0.94900
H         11.79760       -2.00700        3.56560
H         10.93750       -0.81060        5.49010
H          9.83020        0.36700        8.79270
H         10.23370        0.41650        7.07270
H          9.29870       -1.94550        6.85000
H          8.07980       -0.79770        7.41880
H          8.87050       -1.89670        8.56140
H         14.57220       -4.08980        6.07780
H         16.08780       -2.70240        4.65080
H         18.33040       -3.22190        3.43090
