149

C          1.76770        3.35040       12.11390
S          0.61850        2.86230       10.95030
C          1.84680        2.23370        9.88840
C          3.11010        2.40190       10.45580
C          3.05410        3.04950       11.73290
C          4.24890        3.31280       12.44950
C          5.44960        2.93660       11.92630
O          6.66190        3.13340       12.50330
C          6.70640        3.79120       13.74420
C          5.50660        2.26100       10.65090
O          6.75670        1.92080       10.25580
C          6.90690        1.24040        9.03290
C          4.36580        2.01000        9.94330
C          1.45120        1.66900        8.64710
C          0.16800        1.48380        8.20580
C          0.07530        0.90810        6.91970
C         -1.08390        0.63690        6.16510
C         -2.40640        0.78850        6.74290
S         -3.66470        1.67800        5.93570
C         -4.80500        1.36820        7.20050
C         -6.17970        1.93840        7.15830
C         -6.20250        3.35430        7.73920
C         -4.22870        0.62240        8.18450
Cl        -5.05060        0.11170        9.60200
C         -2.87270        0.28680        7.92720
Cl        -1.96170       -0.72370        8.97420
C         -0.89590        0.22570        4.85500
C          0.38020       -0.00250        4.28310
C          1.53850        0.18700        5.06380
C          2.86890       -0.05850        4.53770
S          3.38590        0.61340        3.01530
C          4.98440       -0.03810        3.17270
C          6.01980        0.18520        2.12560
C          6.22040        1.67070        1.83190
C          5.09260       -0.73310        4.33850
C          3.89940       -0.75270        5.11010
Cl         3.77870       -1.65670        6.56140
Cl         6.52460       -1.52700        4.85610
C          1.35010        0.66130        6.35510
S          2.61530        1.12880        7.45120
C          0.28910       -0.42380        2.94260
C         -0.99390       -0.50200        2.45870
S         -2.16430       -0.09780        3.70570
C         -1.34810       -0.79940        1.12430
S         -0.05880       -1.00460       -0.02480
C         -1.13960       -1.19860       -1.37630
C         -2.47210       -1.11960       -0.92550
C         -2.58480       -0.89770        0.47900
C         -3.85930       -0.79360        1.07270
C         -4.98810       -0.87890        0.30600
O         -6.25760       -0.79050        0.77010
C         -6.44860       -0.59230        2.15000
C         -4.87800       -1.06640       -1.11380
O         -6.06370       -1.10900       -1.77210
C         -6.04670       -1.29390       -3.16570
C         -3.64780       -1.18460       -1.70050
C         -0.63340       -1.42390       -2.67190
S         -1.65200       -2.07280       -3.93170
C         -0.37020       -2.11100       -5.10200
C          0.80190       -1.58040       -4.55050
C          0.66590       -1.22060       -3.17850
C          1.77460       -0.65560       -2.51560
C          2.95090       -0.43900       -3.18040
O          4.07000        0.09290       -2.62890
C          4.03730        0.45860       -1.27110
C          3.06050       -0.74330       -4.57960
O          4.25720       -0.42570       -5.13830
C          4.41780       -0.61730       -6.52130
C          1.99800       -1.29000       -5.24210
C         -0.63140       -2.57900       -6.40810
S         -2.19460       -2.30840       -7.11930
C         -1.73850       -2.99660       -8.65480
C         -0.41040       -3.45170       -8.58890
C          0.19470       -3.25140       -7.31300
C          1.46690       -3.80100       -7.04060
C          2.17230       -4.42010       -8.03250
O          3.39740       -4.98900       -7.89020
C          3.97080       -5.02080       -6.60750
C          1.62380       -4.49930       -9.35950
O          2.44850       -5.07110      -10.27280
C          1.98050       -5.22470      -11.58970
C          0.35970       -4.04450       -9.61370
C         -2.68040       -3.08840       -9.70710
S         -2.40970       -4.15440      -11.06360
C         -3.91610       -3.78190      -11.77610
C         -4.62730       -2.87460      -11.02870
C         -3.93160       -2.46840       -9.84420
C         -4.54190       -1.51600       -9.00030
C         -5.78240       -1.02320       -9.29390
O         -6.45870       -0.11670       -8.54370
C         -5.86390        0.34380       -7.35600
C         -6.48660       -1.45110      -10.47720
O         -7.70590       -0.87710      -10.63620
C         -8.46060       -1.22630      -11.76870
C         -5.91050       -2.34960      -11.32400
H          1.44010        3.83040       13.01420
H          4.17110        3.80980       13.40250
H          7.76040        3.84750       14.01060
H          6.16630        3.23180       14.51530
H          6.29400        4.80360       13.67650
H          6.54990        1.84240        8.19100
H          7.97550        1.06350        8.92460
H          6.37820        0.28200        9.03830
H          4.41100        1.50520        8.99510
H         -0.68530        1.77830        8.78940
H         -6.84390        1.29510        7.73850
H         -6.52920        1.96340        6.12480
H         -7.21110        3.75730        7.70280
H         -5.86900        3.34180        8.77360
H         -5.54420        4.00550        7.16920
H          5.72090       -0.32640        1.20670
H          6.95480       -0.25800        2.47210
H          6.54260        2.19250        2.72940
H          6.97770        1.80240        1.06360
H          5.28950        2.11550        1.48790
H          1.14120       -0.65590        2.33030
H         -3.92480       -0.64640        2.13610
H         -7.52680       -0.54380        2.29210
H         -6.04120       -1.42290        2.73530
H         -5.99220        0.34340        2.48900
H         -5.53090       -0.47190       -3.67410
H         -5.57210       -2.24160       -3.44080
H         -7.09140       -1.30930       -3.47200
H         -3.56920       -1.31350       -2.76460
H          1.68200       -0.37090       -1.48400
H          3.29320        1.23840       -1.07970
H          5.03030        0.84650       -1.05100
H          3.82530       -0.40140       -0.62710
H          4.30520       -1.66990       -6.80330
H          3.70570       -0.01640       -7.09620
H          5.43170       -0.29180       -6.74750
H          2.03630       -1.47870       -6.30120
H          1.84430       -3.74250       -6.03370
H          4.15160       -4.01340       -6.21600
H          4.92230       -5.53670       -6.72320
H          3.34190       -5.57040       -5.89960
H          2.79020       -5.70790      -12.13390
H          1.75780       -4.25760      -12.05270
H          1.08720       -5.85650      -11.62790
H         -0.05600       -4.12670      -10.60140
H         -4.19250       -4.24540      -12.70150
H         -4.01730       -1.17020       -8.12840
H         -4.93100        0.88130       -7.55530
H         -6.58650        1.02680       -6.91250
H         -5.66460       -0.47900       -6.66100
H         -7.94300       -0.95690      -12.69550
H         -8.69280       -2.29640      -11.78270
H         -9.38550       -0.65700      -11.69340
H         -6.40040       -2.68350      -12.22400
