
  xtb     03042215073D
 energy: -143.767933999761 gnorm: 0.000742388384 xtb: 6.4.1 (unknown)
 84 91  0     0  0            999 V2000
   -3.9208    9.8909   -7.3795 C   0  0  0  0  0  0  0  0  0  0  0  0
   -2.8999    9.4242   -6.6180 N   0  0  0  0  0  0  0  0  0  0  0  0
   -2.2268   10.4794   -6.0636 C   0  0  0  0  0  0  0  0  0  0  0  0
   -2.8461   11.6403   -6.4906 C   0  0  0  0  0  0  0  0  0  0  0  0
   -3.9125   11.2607   -7.3193 C   0  0  0  0  0  0  0  0  0  0  0  0
   -1.1197   10.3135   -5.2310 C   0  0  0  0  0  0  0  0  0  0  0  0
   -0.1531   10.1857   -4.5115 C   0  0  0  0  0  0  0  0  0  0  0  0
    0.9669   10.0604   -3.6911 C   0  0  0  0  0  0  0  0  0  0  0  0
    1.4740    8.8497   -3.3109 N   0  0  0  0  0  0  0  0  0  0  0  0
    2.5765    9.0420   -2.5246 C   0  0  0  0  0  0  0  0  0  0  0  0
    2.7709   10.4104   -2.4002 C   0  0  0  0  0  0  0  0  0  0  0  0
    1.7648   11.0468   -3.1285 C   0  0  0  0  0  0  0  0  0  0  0  0
    3.3177    7.9875   -1.9960 C   0  0  0  0  0  0  0  0  0  0  0  0
    3.9842    7.0849   -1.5366 C   0  0  0  0  0  0  0  0  0  0  0  0
    4.7719    6.0574   -1.0215 C   0  0  0  0  0  0  0  0  0  0  0  0
    4.3248    4.7721   -0.8970 N   0  0  0  0  0  0  0  0  0  0  0  0
    5.3211    3.9891   -0.3831 C   0  0  0  0  0  0  0  0  0  0  0  0
    6.4279    4.7997   -0.1741 C   0  0  0  0  0  0  0  0  0  0  0  0
    6.0844    6.0925   -0.5711 C   0  0  0  0  0  0  0  0  0  0  0  0
    5.1628    2.6250   -0.1447 C   0  0  0  0  0  0  0  0  0  0  0  0
    5.0460    1.4375    0.0700 C   0  0  0  0  0  0  0  0  0  0  0  0
    4.9443    0.0676    0.3047 C   0  0  0  0  0  0  0  0  0  0  0  0
    3.7975   -0.5290    0.7466 N   0  0  0  0  0  0  0  0  0  0  0  0
    4.0030   -1.8737    0.8810 C   0  0  0  0  0  0  0  0  0  0  0  0
    5.3171   -2.1372    0.5087 C   0  0  0  0  0  0  0  0  0  0  0  0
    5.9044   -0.9248    0.1519 C   0  0  0  0  0  0  0  0  0  0  0  0
    3.0201   -2.7458    1.3304 C   0  0  0  0  0  0  0  0  0  0  0  0
    2.1803   -3.5282    1.7310 C   0  0  0  0  0  0  0  0  0  0  0  0
    1.2450   -4.4289    2.1956 C   0  0  0  0  0  0  0  0  0  0  0  0
   -0.2531   -3.9143    2.9073 S   0  0  0  0  0  0  0  0  0  0  0  0
   -0.7787   -5.5502    3.2108 C   0  0  0  0  0  0  0  0  0  0  0  0
    0.1878   -6.4566    2.7509 C   0  0  0  0  0  0  0  0  0  0  0  0
    1.3296   -5.8202    2.1846 C   0  0  0  0  0  0  0  0  0  0  0  0
    2.4063   -6.5790    1.6785 C   0  0  0  0  0  0  0  0  0  0  0  0
    2.3488   -7.9421    1.7189 C   0  0  0  0  0  0  0  0  0  0  0  0
    3.3129   -8.7881    1.2744 O   0  0  0  0  0  0  0  0  0  0  0  0
    4.4840   -8.2281    0.7362 C   0  0  0  0  0  0  0  0  0  0  0  0
    1.1834   -8.5961    2.2560 C   0  0  0  0  0  0  0  0  0  0  0  0
    1.2381   -9.9523    2.2088 O   0  0  0  0  0  0  0  0  0  0  0  0
    0.1506  -10.6814    2.7194 C   0  0  0  0  0  0  0  0  0  0  0  0
    0.1388   -7.8686    2.7532 C   0  0  0  0  0  0  0  0  0  0  0  0
   -1.9886   -5.7959    3.9079 C   0  0  0  0  0  0  0  0  0  0  0  0
   -2.2470   -7.3120    4.7323 S   0  0  0  0  0  0  0  0  0  0  0  0
   -3.7514   -6.8125    5.3694 C   0  0  0  0  0  0  0  0  0  0  0  0
   -4.0748   -5.5357    4.9795 C   0  0  0  0  0  0  0  0  0  0  0  0
   -3.0757   -4.9447    4.1399 C   0  0  0  0  0  0  0  0  0  0  0  0
   -3.3008   -3.6454    3.6337 C   0  0  0  0  0  0  0  0  0  0  0  0
   -4.4309   -2.9582    3.9742 C   0  0  0  0  0  0  0  0  0  0  0  0
   -4.7437   -1.7065    3.5476 O   0  0  0  0  0  0  0  0  0  0  0  0
   -3.8351   -1.0445    2.7052 C   0  0  0  0  0  0  0  0  0  0  0  0
   -5.4172   -3.5444    4.8481 C   0  0  0  0  0  0  0  0  0  0  0  0
   -6.4792   -2.7384    5.1088 O   0  0  0  0  0  0  0  0  0  0  0  0
   -7.4909   -3.2306    5.9498 C   0  0  0  0  0  0  0  0  0  0  0  0
   -5.2410   -4.8078    5.3256 C   0  0  0  0  0  0  0  0  0  0  0  0
   -4.5756    9.2244   -7.9058 H   0  0  0  0  0  0  0  0  0  0  0  0
   -2.6629    8.4562   -6.4789 H   0  0  0  0  0  0  0  0  0  0  0  0
   -2.5541   12.6376   -6.2285 H   0  0  0  0  0  0  0  0  0  0  0  0
   -4.5964   11.9208   -7.8153 H   0  0  0  0  0  0  0  0  0  0  0  0
    1.0994    7.9540   -3.5758 H   0  0  0  0  0  0  0  0  0  0  0  0
    3.5568   10.8790   -1.8414 H   0  0  0  0  0  0  0  0  0  0  0  0
    1.6210   12.1029   -3.2431 H   0  0  0  0  0  0  0  0  0  0  0  0
    3.4052    4.4505   -1.1496 H   0  0  0  0  0  0  0  0  0  0  0  0
    7.3698    4.4767    0.2232 H   0  0  0  0  0  0  0  0  0  0  0  0
    6.7094    6.9629   -0.5410 H   0  0  0  0  0  0  0  0  0  0  0  0
    2.9354   -0.0530    0.9550 H   0  0  0  0  0  0  0  0  0  0  0  0
    5.7813   -3.1037    0.5053 H   0  0  0  0  0  0  0  0  0  0  0  0
    6.9110   -0.7694   -0.1828 H   0  0  0  0  0  0  0  0  0  0  0  0
    3.2500   -6.0471    1.2695 H   0  0  0  0  0  0  0  0  0  0  0  0
    5.1135   -9.0716    0.4577 H   0  0  0  0  0  0  0  0  0  0  0  0
    4.2695   -7.6253   -0.1527 H   0  0  0  0  0  0  0  0  0  0  0  0
    5.0083   -7.6099    1.4726 H   0  0  0  0  0  0  0  0  0  0  0  0
    0.4176  -11.7299    2.5979 H   0  0  0  0  0  0  0  0  0  0  0  0
   -0.0148  -10.4678    3.7806 H   0  0  0  0  0  0  0  0  0  0  0  0
   -0.7698  -10.4746    2.1629 H   0  0  0  0  0  0  0  0  0  0  0  0
   -0.7367   -8.3625    3.1351 H   0  0  0  0  0  0  0  0  0  0  0  0
   -4.3126   -7.4826    5.9885 H   0  0  0  0  0  0  0  0  0  0  0  0
   -2.5797   -3.2091    2.9653 H   0  0  0  0  0  0  0  0  0  0  0  0
   -2.8588   -0.9190    3.1855 H   0  0  0  0  0  0  0  0  0  0  0  0
   -4.2728   -0.0662    2.5125 H   0  0  0  0  0  0  0  0  0  0  0  0
   -3.7036   -1.5764    1.7568 H   0  0  0  0  0  0  0  0  0  0  0  0
   -7.1055   -3.4638    6.9481 H   0  0  0  0  0  0  0  0  0  0  0  0
   -7.9651   -4.1235    5.5285 H   0  0  0  0  0  0  0  0  0  0  0  0
   -8.2274   -2.4323    6.0245 H   0  0  0  0  0  0  0  0  0  0  0  0
   -5.9640   -5.2839    5.9676 H   0  0  0  0  0  0  0  0  0  0  0  0
  1  2  1  0  0  0  0
  2  3  1  0  0  0  0
  3  4  2  0  0  0  0
  4  5  1  0  0  0  0
  3  6  1  0  0  0  0
  6  7  3  0  0  0  0
  7  8  1  0  0  0  0
  8  9  1  0  0  0  0
  9 10  1  0  0  0  0
 10 11  2  0  0  0  0
 11 12  1  0  0  0  0
 10 13  1  0  0  0  0
 13 14  3  0  0  0  0
 14 15  1  0  0  0  0
 15 16  1  0  0  0  0
 16 17  1  0  0  0  0
 17 18  2  0  0  0  0
 18 19  1  0  0  0  0
 17 20  1  0  0  0  0
 20 21  3  0  0  0  0
 21 22  1  0  0  0  0
 22 23  1  0  0  0  0
 23 24  1  0  0  0  0
 24 25  2  0  0  0  0
 25 26  1  0  0  0  0
 24 27  1  0  0  0  0
 27 28  3  0  0  0  0
 28 29  1  0  0  0  0
 29 30  1  0  0  0  0
 30 31  1  0  0  0  0
 31 32  2  0  0  0  0
 32 33  1  0  0  0  0
 33 34  1  0  0  0  0
 34 35  2  0  0  0  0
 35 36  1  0  0  0  0
 36 37  1  0  0  0  0
 35 38  1  0  0  0  0
 38 39  1  0  0  0  0
 39 40  1  0  0  0  0
 38 41  2  0  0  0  0
 31 42  1  0  0  0  0
 42 43  1  0  0  0  0
 43 44  1  0  0  0  0
 44 45  2  0  0  0  0
 45 46  1  0  0  0  0
 46 47  1  0  0  0  0
 47 48  2  0  0  0  0
 48 49  1  0  0  0  0
 49 50  1  0  0  0  0
 48 51  1  0  0  0  0
 51 52  1  0  0  0  0
 52 53  1  0  0  0  0
 51 54  2  0  0  0  0
  5  1  2  0  0  0  0
 12  8  2  0  0  0  0
 19 15  2  0  0  0  0
 26 22  2  0  0  0  0
 33 29  2  0  0  0  0
 46 42  2  0  0  0  0
 41 32  1  0  0  0  0
 54 45  1  0  0  0  0
  1 55  1  0  0  0  0
  2 56  1  0  0  0  0
  4 57  1  0  0  0  0
  5 58  1  0  0  0  0
  9 59  1  0  0  0  0
 11 60  1  0  0  0  0
 12 61  1  0  0  0  0
 16 62  1  0  0  0  0
 18 63  1  0  0  0  0
 19 64  1  0  0  0  0
 23 65  1  0  0  0  0
 25 66  1  0  0  0  0
 26 67  1  0  0  0  0
 34 68  1  0  0  0  0
 37 69  1  0  0  0  0
 37 70  1  0  0  0  0
 37 71  1  0  0  0  0
 40 72  1  0  0  0  0
 40 73  1  0  0  0  0
 40 74  1  0  0  0  0
 41 75  1  0  0  0  0
 44 76  1  0  0  0  0
 47 77  1  0  0  0  0
 50 78  1  0  0  0  0
 50 79  1  0  0  0  0
 50 80  1  0  0  0  0
 53 81  1  0  0  0  0
 53 82  1  0  0  0  0
 53 83  1  0  0  0  0
 54 84  1  0  0  0  0
M  END
