163

C         -8.54500       -5.32670      -13.22420
C         -8.93230       -5.65300      -11.97560
C         -8.71950       -4.60330      -11.03070
C         -8.99440       -4.59680       -9.65950
C         -9.62850       -5.76440       -8.96480
C        -11.15130       -5.71280       -9.10050
C         -8.68400       -3.43430       -8.97770
C         -8.10960       -2.29250       -9.59090
C         -7.83870       -2.29800      -10.96480
C         -7.19390       -1.13400      -11.65550
C         -5.67170       -1.19550      -11.51320
C         -8.14860       -3.46170      -11.64480
S         -7.89480       -3.72840      -13.35340
C         -7.86100       -1.25910       -8.64980
C         -8.22000       -1.57880       -7.37350
S         -8.91260       -3.18340       -7.26600
C         -8.03180       -0.79730       -6.19150
C         -7.42070        0.41800       -6.08650
C         -7.28700        0.87840       -4.75180
C         -6.64230        2.03550       -4.29450
C         -6.07310        3.05610       -5.23330
C         -7.16290        4.01640       -5.71280
C         -6.55990        2.18810       -2.92420
C         -7.11030        1.27030       -1.99270
C         -7.80010        0.14020       -2.45130
C         -8.37500       -0.87970       -1.51470
C         -7.31700       -1.91280       -1.12140
C         -7.84590       -0.03460       -3.82160
S         -8.52910       -1.42090       -4.63280
C         -6.77730        1.61300       -0.65640
C         -5.98810        2.72170       -0.55380
S         -5.68620        3.46170       -2.11240
C         -5.28380        3.19260        0.59700
C         -5.36250        2.74250        1.88360
C         -4.32150        3.22090        2.72070
C         -4.02900        2.85230        4.04380
C         -4.96380        2.00860        4.85710
C         -6.10510        2.85740        5.41980
C         -2.81980        3.29050        4.54510
C         -1.91930        4.11230        3.81970
C         -2.26420        4.57680        2.54480
C         -1.34820        5.44750        1.73860
C         -0.33780        4.60380        0.95830
C         -3.44380        4.08670        2.01970
S         -3.97130        4.33150        0.37640
C         -0.67460        4.24240        4.47850
C         -0.58320        3.54220        5.64910
S         -2.11720        2.79090        6.07000
C          0.62420        3.22800        6.32800
S          2.09910        3.37040        5.42020
C          3.02640        2.51450        6.61650
C          2.23040        2.21560        7.72280
C          0.86730        2.61450        7.55530
C         -0.06780        2.36330        8.58250
C          0.32980        1.73340        9.72740
O         -0.47140        1.43820       10.77940
C         -1.83150        1.78640       10.69660
C          1.70440        1.33290        9.89870
O          1.96420        0.72950       11.08350
C          3.27820        0.29510       11.33470
C          2.62420        1.57670        8.91820
C          4.33220        2.09690        6.24750
C          4.98100        2.45850        5.09770
C          6.14280        1.70260        4.82080
C          6.95110        1.75400        3.67730
C          6.70380        2.73770        2.57340
C          5.63430        2.21830        1.61020
C          7.93140        0.78660        3.58150
C          8.17900       -0.18850        4.58120
C          7.41370       -0.19440        5.75660
C          7.61700       -1.21840        6.83280
C          6.84360       -2.49990        6.51600
C          6.39930        0.73940        5.82890
S          5.20990        0.84120        7.10830
C          9.18900       -1.10210        4.18330
C          9.68950       -0.86160        2.93870
S          8.96920        0.55500        2.19700
C         10.62880       -1.63820        2.19860
C         11.07230       -1.41400        0.93060
C         11.94940       -2.41800        0.44280
C         12.55790       -2.49970       -0.81500
C         12.32230       -1.47160       -1.88020
C         11.02480       -1.76290       -2.63700
C         13.34680       -3.61310       -1.04130
C         13.56600       -4.62960       -0.07980
C         12.96900       -4.54100        1.18240
C         13.13100       -5.61150        2.21980
C         12.12240       -6.73940        1.99310
C         12.16890       -3.43570        1.40470
S         11.28790       -3.11390        2.87930
C         14.41660       -5.65670       -0.59060
C         14.81450       -5.43140       -1.85820
S         14.19250       -3.96350       -2.53010
H         -8.59450       -5.92970      -14.11000
H         -9.35850       -6.60660      -11.72150
H         -9.36170       -5.73650       -7.90570
H         -9.25340       -6.69840       -9.38650
H        -11.60490       -6.56210       -8.59540
H        -11.53640       -4.79850       -8.65500
H        -11.44150       -5.73340      -10.14870
H         -7.56490       -0.19820      -11.23410
H         -7.45560       -1.15840      -12.71570
H         -5.38550       -1.18180      -10.46380
H         -5.29030       -2.11030      -11.96070
H         -5.21040       -0.34710      -12.01290
H         -7.41880       -0.31550       -8.91110
H         -7.05060        0.95830       -6.93820
H         -5.29660        3.62340       -4.71520
H         -5.61680        2.56050       -6.09200
H         -7.95140        3.47180       -6.22770
H         -6.74460        4.75370       -6.39380
H         -7.60250        4.53760       -4.86550
H         -9.20490       -1.38950       -2.00950
H         -8.76070       -0.38800       -0.62010
H         -6.47230       -1.42900       -0.63580
H         -7.74000       -2.64630       -0.43930
H         -6.95370       -2.43140       -2.00540
H         -7.06330        1.02350        0.19530
H         -6.11590        2.04930        2.21060
H         -4.40970        1.55500        5.68200
H         -5.37430        1.20610        4.24130
H         -5.70850        3.64560        6.05570
H         -6.66950        3.31930        4.61290
H         -6.77960        2.24190        6.01030
H         -0.81970        6.13890        2.39700
H         -1.94400        6.03260        1.03400
H         -0.85630        3.93570        0.27480
H          0.26390        4.00300        1.63660
H          0.32260        5.24580        0.38060
H          0.16420        4.77910        4.07240
H         -1.08570        2.68580        8.44300
H         -2.32110        1.29360        9.85040
H         -2.28000        1.44230       11.62690
H         -1.96350        2.86970       10.60820
H          3.25020       -0.17180       12.31770
H          3.98200        1.13370       11.35050
H          3.60770       -0.43770       10.59110
H          3.65710        1.29970        9.04100
H          4.59320        3.21960        4.44440
H          7.63430        2.89620        2.02340
H          6.38700        3.69400        2.99290
H          5.95550        1.27970        1.16460
H          5.46110        2.93850        0.81430
H          4.69750        2.04680        2.13570
H          8.67950       -1.44600        6.93340
H          7.26240       -0.81100        7.78260
H          5.77960       -2.28710        6.44190
H          7.17650       -2.92200        5.57050
H          6.99610       -3.23730        7.30040
H          9.52160       -1.93240        4.78080
H         10.76390       -0.55500        0.36170
H         13.15850       -1.48710       -2.58280
H         12.26980       -0.47760       -1.43290
H         10.86100       -1.01370       -3.40770
H         10.17620       -1.75510       -1.95660
H         11.07750       -2.74090       -3.10990
H         14.14510       -6.01310        2.18720
H         12.96720       -5.17720        3.20880
H         12.24400       -7.51330        2.74710
H         11.10780       -6.35250        2.05390
H         12.26210       -7.18390        1.01010
H         14.71020       -6.52350       -0.02660
H         15.44850       -6.04350       -2.47010
