
  xtb     03042202283D
 energy: -424.165307297856 gnorm: 0.000464887456 xtb: 6.4.1 (unknown)
244267  0     0  0            999 V2000
  -16.3979   -1.3669   10.1492 C   0  0  0  0  0  0  0  0  0  0  0  0
  -16.2320   -1.1385    8.8313 C   0  0  0  0  0  0  0  0  0  0  0  0
  -14.8725   -0.8863    8.4798 C   0  0  0  0  0  0  0  0  0  0  0  0
  -14.3408   -0.6051    7.2152 C   0  0  0  0  0  0  0  0  0  0  0  0
  -15.1629   -0.4612    6.0061 C   0  0  0  0  0  0  0  0  0  0  0  0
  -16.2364    0.4259    5.9595 C   0  0  0  0  0  0  0  0  0  0  0  0
  -16.9146    0.6426    4.7788 C   0  0  0  0  0  0  0  0  0  0  0  0
  -16.5645   -0.0241    3.6056 C   0  0  0  0  0  0  0  0  0  0  0  0
  -17.4902    0.3530    2.1476 S   0  0  0  0  0  0  0  0  0  0  0  0
  -16.2450    0.3236    0.8024 C   0  0  0  0  0  0  0  0  0  0  0  0
  -15.0773    1.2508    1.0714 C   0  0  0  0  0  0  0  0  0  0  0  0
  -15.5336   -0.9552    3.6849 C   0  0  0  0  0  0  0  0  0  0  0  0
  -15.1769   -1.6894    2.6068 F   0  0  0  0  0  0  0  0  0  0  0  0
  -14.8292   -1.1631    4.8524 C   0  0  0  0  0  0  0  0  0  0  0  0
  -12.9679   -0.4234    7.1463 C   0  0  0  0  0  0  0  0  0  0  0  0
  -12.1086   -0.4782    8.2703 C   0  0  0  0  0  0  0  0  0  0  0  0
  -12.6447   -0.7474    9.5397 C   0  0  0  0  0  0  0  0  0  0  0  0
  -11.8002   -0.7794   10.7390 C   0  0  0  0  0  0  0  0  0  0  0  0
  -11.8572   -1.8479   11.6287 C   0  0  0  0  0  0  0  0  0  0  0  0
  -11.0743   -1.8740   12.7662 C   0  0  0  0  0  0  0  0  0  0  0  0
  -10.2143   -0.8231   13.0639 C   0  0  0  0  0  0  0  0  0  0  0  0
   -9.1608   -0.7351   14.4728 S   0  0  0  0  0  0  0  0  0  0  0  0
   -9.8653   -1.9621   15.6273 C   0  0  0  0  0  0  0  0  0  0  0  0
  -11.2226   -1.5403   16.1566 C   0  0  0  0  0  0  0  0  0  0  0  0
  -10.1604    0.2379   12.1578 C   0  0  0  0  0  0  0  0  0  0  0  0
  -10.9284    0.2724   11.0163 C   0  0  0  0  0  0  0  0  0  0  0  0
   -9.3330    1.2724   12.4084 F   0  0  0  0  0  0  0  0  0  0  0  0
  -14.0158   -0.9623    9.6046 C   0  0  0  0  0  0  0  0  0  0  0  0
  -14.9249   -1.3025   11.0560 S   0  0  0  0  0  0  0  0  0  0  0  0
  -10.7513   -0.2582    7.9079 C   0  0  0  0  0  0  0  0  0  0  0  0
  -10.5768   -0.0153    6.5798 C   0  0  0  0  0  0  0  0  0  0  0  0
  -12.0895   -0.0499    5.6905 S   0  0  0  0  0  0  0  0  0  0  0  0
   -9.3827    0.2296    5.8399 C   0  0  0  0  0  0  0  0  0  0  0  0
   -9.3145    0.3895    4.4885 C   0  0  0  0  0  0  0  0  0  0  0  0
   -8.0028    0.5979    4.0018 C   0  0  0  0  0  0  0  0  0  0  0  0
   -7.6062    0.7299    2.6605 C   0  0  0  0  0  0  0  0  0  0  0  0
   -8.6249    0.7548    1.6034 C   0  0  0  0  0  0  0  0  0  0  0  0
   -9.7112    1.6250    1.6980 C   0  0  0  0  0  0  0  0  0  0  0  0
  -10.7343    1.5760    0.7763 C   0  0  0  0  0  0  0  0  0  0  0  0
  -10.7097    0.6655   -0.2765 C   0  0  0  0  0  0  0  0  0  0  0  0
  -12.0969    0.6352   -1.3769 S   0  0  0  0  0  0  0  0  0  0  0  0
  -12.4387   -1.1569   -1.5503 C   0  0  0  0  0  0  0  0  0  0  0  0
  -12.6454   -1.8344   -0.2107 C   0  0  0  0  0  0  0  0  0  0  0  0
   -9.5849   -0.1435   -0.4029 C   0  0  0  0  0  0  0  0  0  0  0  0
   -9.4736   -1.0075   -1.4342 F   0  0  0  0  0  0  0  0  0  0  0  0
   -8.5596   -0.1161    0.5219 C   0  0  0  0  0  0  0  0  0  0  0  0
   -6.2443    0.8072    2.4234 C   0  0  0  0  0  0  0  0  0  0  0  0
   -5.2830    0.8003    3.4668 C   0  0  0  0  0  0  0  0  0  0  0  0
   -5.6827    0.6813    4.8103 C   0  0  0  0  0  0  0  0  0  0  0  0
   -4.6925    0.6453    5.8928 C   0  0  0  0  0  0  0  0  0  0  0  0
   -4.8081    1.4752    7.0065 C   0  0  0  0  0  0  0  0  0  0  0  0
   -3.8548    1.4505    8.0013 C   0  0  0  0  0  0  0  0  0  0  0  0
   -2.7457    0.6074    7.9303 C   0  0  0  0  0  0  0  0  0  0  0  0
   -1.5600    0.7419    9.2326 S   0  0  0  0  0  0  0  0  0  0  0  0
   -0.9093   -0.9536    9.4634 C   0  0  0  0  0  0  0  0  0  0  0  0
   -2.0063   -1.9425    9.8022 C   0  0  0  0  0  0  0  0  0  0  0  0
   -2.6434   -0.2144    6.8117 C   0  0  0  0  0  0  0  0  0  0  0  0
   -3.6004   -0.2137    5.8174 C   0  0  0  0  0  0  0  0  0  0  0  0
   -1.5911   -1.0482    6.6478 F   0  0  0  0  0  0  0  0  0  0  0  0
   -7.0453    0.5833    5.0452 C   0  0  0  0  0  0  0  0  0  0  0  0
   -7.8075    0.3412    6.6004 S   0  0  0  0  0  0  0  0  0  0  0  0
   -3.9663    0.9376    2.9646 C   0  0  0  0  0  0  0  0  0  0  0  0
   -3.9004    1.0077    1.6031 C   0  0  0  0  0  0  0  0  0  0  0  0
   -5.4850    0.9524    0.8606 S   0  0  0  0  0  0  0  0  0  0  0  0
   -2.7127    1.0596    0.8121 C   0  0  0  0  0  0  0  0  0  0  0  0
   -1.4312    0.9383    1.2665 C   0  0  0  0  0  0  0  0  0  0  0  0
   -0.4582    0.9669    0.2388 C   0  0  0  0  0  0  0  0  0  0  0  0
    0.9322    0.7995    0.3665 C   0  0  0  0  0  0  0  0  0  0  0  0
    1.5527    0.6902    1.6920 C   0  0  0  0  0  0  0  0  0  0  0  0
    2.4291   -0.3470    2.0052 C   0  0  0  0  0  0  0  0  0  0  0  0
    2.9765   -0.4454    3.2661 C   0  0  0  0  0  0  0  0  0  0  0  0
    2.6730    0.4752    4.2690 C   0  0  0  0  0  0  0  0  0  0  0  0
    3.3808    0.1797    5.8611 S   0  0  0  0  0  0  0  0  0  0  0  0
    3.7072    1.8431    6.5529 C   0  0  0  0  0  0  0  0  0  0  0  0
    4.6365    2.6529    5.6716 C   0  0  0  0  0  0  0  0  0  0  0  0
    1.7919    1.5020    3.9431 C   0  0  0  0  0  0  0  0  0  0  0  0
    1.4235    2.4260    4.8595 F   0  0  0  0  0  0  0  0  0  0  0  0
    1.2503    1.6228    2.6797 C   0  0  0  0  0  0  0  0  0  0  0  0
    1.6582    0.7346   -0.8115 C   0  0  0  0  0  0  0  0  0  0  0  0
    1.0691    0.8682   -2.0953 C   0  0  0  0  0  0  0  0  0  0  0  0
   -0.3164    1.0617   -2.2195 C   0  0  0  0  0  0  0  0  0  0  0  0
   -0.9716    1.1831   -3.5274 C   0  0  0  0  0  0  0  0  0  0  0  0
   -1.8404    2.2401   -3.7929 C   0  0  0  0  0  0  0  0  0  0  0  0
   -2.4792    2.3343   -5.0102 C   0  0  0  0  0  0  0  0  0  0  0  0
   -2.2798    1.3843   -6.0098 C   0  0  0  0  0  0  0  0  0  0  0  0
   -3.1272    1.6306   -7.5426 S   0  0  0  0  0  0  0  0  0  0  0  0
   -3.6724   -0.0514   -8.0195 C   0  0  0  0  0  0  0  0  0  0  0  0
   -4.5384   -0.6900   -6.9525 C   0  0  0  0  0  0  0  0  0  0  0  0
   -1.3920    0.3474   -5.7391 C   0  0  0  0  0  0  0  0  0  0  0  0
   -0.7545    0.2334   -4.5201 C   0  0  0  0  0  0  0  0  0  0  0  0
   -1.1233   -0.5973   -6.6677 F   0  0  0  0  0  0  0  0  0  0  0  0
   -1.0471    1.1050   -1.0417 C   0  0  0  0  0  0  0  0  0  0  0  0
   -2.7835    1.2328   -0.9289 S   0  0  0  0  0  0  0  0  0  0  0  0
    2.0367    0.7979   -3.1289 C   0  0  0  0  0  0  0  0  0  0  0  0
    3.3069    0.5947   -2.6784 C   0  0  0  0  0  0  0  0  0  0  0  0
    3.3852    0.5142   -0.9275 S   0  0  0  0  0  0  0  0  0  0  0  0
    4.4883    0.4088   -3.4526 C   0  0  0  0  0  0  0  0  0  0  0  0
    5.7465    0.1376   -3.0016 C   0  0  0  0  0  0  0  0  0  0  0  0
    6.6958   -0.0465   -4.0367 C   0  0  0  0  0  0  0  0  0  0  0  0
    8.0530   -0.3979   -3.9148 C   0  0  0  0  0  0  0  0  0  0  0  0
    8.7128   -0.4910   -2.6082 C   0  0  0  0  0  0  0  0  0  0  0  0
    8.5822    0.5291   -1.6695 C   0  0  0  0  0  0  0  0  0  0  0  0
    9.2312    0.4705   -0.4515 C   0  0  0  0  0  0  0  0  0  0  0  0
   10.0450   -0.6096   -0.1294 C   0  0  0  0  0  0  0  0  0  0  0  0
   10.9176   -0.8214    1.3868 S   0  0  0  0  0  0  0  0  0  0  0  0
   10.8818    0.8322    2.1608 C   0  0  0  0  0  0  0  0  0  0  0  0
   11.7613    1.8289    1.4300 C   0  0  0  0  0  0  0  0  0  0  0  0
   10.1617   -1.6282   -1.0767 C   0  0  0  0  0  0  0  0  0  0  0  0
   10.9350   -2.6975   -0.7956 F   0  0  0  0  0  0  0  0  0  0  0  0
    9.5165   -1.5847   -2.2913 C   0  0  0  0  0  0  0  0  0  0  0  0
    8.7418   -0.6289   -5.0945 C   0  0  0  0  0  0  0  0  0  0  0  0
    8.1562   -0.4863   -6.3767 C   0  0  0  0  0  0  0  0  0  0  0  0
    6.8011   -0.1334   -6.4991 C   0  0  0  0  0  0  0  0  0  0  0  0
    6.1616   -0.0486   -7.8169 C   0  0  0  0  0  0  0  0  0  0  0  0
    6.2887   -1.0921   -8.7300 C   0  0  0  0  0  0  0  0  0  0  0  0
    5.7056   -1.0288   -9.9808 C   0  0  0  0  0  0  0  0  0  0  0  0
    4.9736    0.0892  -10.3654 C   0  0  0  0  0  0  0  0  0  0  0  0
    4.2012    0.3147  -11.9291 S   0  0  0  0  0  0  0  0  0  0  0  0
    4.5735   -1.2444  -12.8166 C   0  0  0  0  0  0  0  0  0  0  0  0
    3.9397   -1.1805  -14.1935 C   0  0  0  0  0  0  0  0  0  0  0  0
    4.8427    1.1229   -9.4346 C   0  0  0  0  0  0  0  0  0  0  0  0
    5.4137    1.0683   -8.1839 C   0  0  0  0  0  0  0  0  0  0  0  0
    4.1395    2.2202   -9.7779 F   0  0  0  0  0  0  0  0  0  0  0  0
    6.1069    0.0835   -5.3195 C   0  0  0  0  0  0  0  0  0  0  0  0
    4.4076    0.4616   -5.2040 S   0  0  0  0  0  0  0  0  0  0  0  0
    9.0867   -0.7058   -7.4197 C   0  0  0  0  0  0  0  0  0  0  0  0
   10.3362   -1.0576   -6.9878 C   0  0  0  0  0  0  0  0  0  0  0  0
   10.4219   -1.0759   -5.2278 S   0  0  0  0  0  0  0  0  0  0  0  0
   11.5006   -1.4082   -7.7170 C   0  0  0  0  0  0  0  0  0  0  0  0
   13.0133   -1.4518   -6.8697 S   0  0  0  0  0  0  0  0  0  0  0  0
   13.9061   -1.9717   -8.2637 C   0  0  0  0  0  0  0  0  0  0  0  0
   13.0387   -2.1072   -9.3590 C   0  0  0  0  0  0  0  0  0  0  0  0
   11.6792   -1.7978   -9.0478 C   0  0  0  0  0  0  0  0  0  0  0  0
   10.6893   -1.9486  -10.0430 C   0  0  0  0  0  0  0  0  0  0  0  0
   11.0286   -2.3577  -11.3014 C   0  0  0  0  0  0  0  0  0  0  0  0
   10.1611   -2.5285  -12.3312 O   0  0  0  0  0  0  0  0  0  0  0  0
    8.7999   -2.2613  -12.1098 C   0  0  0  0  0  0  0  0  0  0  0  0
   12.3971   -2.6635  -11.6173 C   0  0  0  0  0  0  0  0  0  0  0  0
   12.6006   -3.0730  -12.8945 O   0  0  0  0  0  0  0  0  0  0  0  0
   13.9118   -3.3928  -13.2895 C   0  0  0  0  0  0  0  0  0  0  0  0
   13.3649   -2.5494  -10.6593 C   0  0  0  0  0  0  0  0  0  0  0  0
   15.3101   -2.1486   -8.1830 C   0  0  0  0  0  0  0  0  0  0  0  0
   16.3166   -2.0628   -9.6054 S   0  0  0  0  0  0  0  0  0  0  0  0
   17.7543   -2.2646   -8.7073 C   0  0  0  0  0  0  0  0  0  0  0  0
   17.5076   -2.4029   -7.3624 C   0  0  0  0  0  0  0  0  0  0  0  0
   16.1115   -2.3381   -7.0496 C   0  0  0  0  0  0  0  0  0  0  0  0
   15.7102   -2.5043   -5.7067 C   0  0  0  0  0  0  0  0  0  0  0  0
   16.6422   -2.6854   -4.7234 C   0  0  0  0  0  0  0  0  0  0  0  0
   16.3654   -2.8479   -3.4086 O   0  0  0  0  0  0  0  0  0  0  0  0
   15.0188   -2.8235   -2.9980 C   0  0  0  0  0  0  0  0  0  0  0  0
   18.0506   -2.7192   -5.0402 C   0  0  0  0  0  0  0  0  0  0  0  0
   18.8562   -2.8984   -3.9642 O   0  0  0  0  0  0  0  0  0  0  0  0
   20.2441   -2.9559   -4.1755 C   0  0  0  0  0  0  0  0  0  0  0  0
   18.4635   -2.5905   -6.3324 C   0  0  0  0  0  0  0  0  0  0  0  0
  -17.3094   -1.5821   10.6719 H   0  0  0  0  0  0  0  0  0  0  0  0
  -17.0323   -1.1541    8.1139 H   0  0  0  0  0  0  0  0  0  0  0  0
  -16.5092    0.9805    6.8445 H   0  0  0  0  0  0  0  0  0  0  0  0
  -17.7263    1.3523    4.7378 H   0  0  0  0  0  0  0  0  0  0  0  0
  -15.9268   -0.7044    0.6418 H   0  0  0  0  0  0  0  0  0  0  0  0
  -16.8160    0.6556   -0.0647 H   0  0  0  0  0  0  0  0  0  0  0  0
  -14.4182    1.2679    0.2050 H   0  0  0  0  0  0  0  0  0  0  0  0
  -14.5028    0.9187    1.9348 H   0  0  0  0  0  0  0  0  0  0  0  0
  -15.4303    2.2623    1.2611 H   0  0  0  0  0  0  0  0  0  0  0  0
  -14.0341   -1.8924    4.8531 H   0  0  0  0  0  0  0  0  0  0  0  0
  -12.5065   -2.6838   11.4186 H   0  0  0  0  0  0  0  0  0  0  0  0
  -11.1352   -2.7301   13.4180 H   0  0  0  0  0  0  0  0  0  0  0  0
   -9.1305   -2.0030   16.4314 H   0  0  0  0  0  0  0  0  0  0  0  0
   -9.8924   -2.9332   15.1347 H   0  0  0  0  0  0  0  0  0  0  0  0
  -11.9476   -1.4523   15.3499 H   0  0  0  0  0  0  0  0  0  0  0  0
  -11.5857   -2.2757   16.8719 H   0  0  0  0  0  0  0  0  0  0  0  0
  -11.1469   -0.5771   16.6557 H   0  0  0  0  0  0  0  0  0  0  0  0
  -10.8660    1.1312   10.3663 H   0  0  0  0  0  0  0  0  0  0  0  0
   -9.9313   -0.2977    8.6025 H   0  0  0  0  0  0  0  0  0  0  0  0
  -10.1814    0.3287    3.8552 H   0  0  0  0  0  0  0  0  0  0  0  0
   -9.7515    2.3403    2.5053 H   0  0  0  0  0  0  0  0  0  0  0  0
  -11.5841    2.2348    0.8653 H   0  0  0  0  0  0  0  0  0  0  0  0
  -11.6293   -1.6134   -2.1165 H   0  0  0  0  0  0  0  0  0  0  0  0
  -13.3489   -1.1808   -2.1494 H   0  0  0  0  0  0  0  0  0  0  0  0
  -12.9293   -2.8731   -0.3679 H   0  0  0  0  0  0  0  0  0  0  0  0
  -11.7315   -1.8155    0.3806 H   0  0  0  0  0  0  0  0  0  0  0  0
  -13.4314   -1.3421    0.3568 H   0  0  0  0  0  0  0  0  0  0  0  0
   -7.7275   -0.7913    0.3971 H   0  0  0  0  0  0  0  0  0  0  0  0
   -5.6428    2.1543    7.0840 H   0  0  0  0  0  0  0  0  0  0  0  0
   -3.9468    2.0976    8.8595 H   0  0  0  0  0  0  0  0  0  0  0  0
   -0.3518   -1.2462    8.5765 H   0  0  0  0  0  0  0  0  0  0  0  0
   -0.2149   -0.8379   10.2958 H   0  0  0  0  0  0  0  0  0  0  0  0
   -1.5677   -2.9151   10.0165 H   0  0  0  0  0  0  0  0  0  0  0  0
   -2.5649   -1.6096   10.6746 H   0  0  0  0  0  0  0  0  0  0  0  0
   -2.6995   -2.0553    8.9709 H   0  0  0  0  0  0  0  0  0  0  0  0
   -3.4845   -0.8956    4.9889 H   0  0  0  0  0  0  0  0  0  0  0  0
   -3.0999    0.9987    3.5959 H   0  0  0  0  0  0  0  0  0  0  0  0
   -1.1866    0.7883    2.3015 H   0  0  0  0  0  0  0  0  0  0  0  0
    2.6691   -1.0894    1.2602 H   0  0  0  0  0  0  0  0  0  0  0  0
    3.6508   -1.2530    3.5052 H   0  0  0  0  0  0  0  0  0  0  0  0
    2.7607    2.3499    6.7257 H   0  0  0  0  0  0  0  0  0  0  0  0
    4.1713    1.6224    7.5143 H   0  0  0  0  0  0  0  0  0  0  0  0
    4.1733    2.8663    4.7102 H   0  0  0  0  0  0  0  0  0  0  0  0
    5.5638    2.1113    5.4957 H   0  0  0  0  0  0  0  0  0  0  0  0
    4.8691    3.5985    6.1572 H   0  0  0  0  0  0  0  0  0  0  0  0
    0.5929    2.4544    2.4763 H   0  0  0  0  0  0  0  0  0  0  0  0
   -2.0084    2.9963   -3.0417 H   0  0  0  0  0  0  0  0  0  0  0  0
   -3.1530    3.1523   -5.2114 H   0  0  0  0  0  0  0  0  0  0  0  0
   -4.2389    0.1215   -8.9346 H   0  0  0  0  0  0  0  0  0  0  0  0
   -2.7983   -0.6552   -8.2528 H   0  0  0  0  0  0  0  0  0  0  0  0
   -4.9075   -1.6506   -7.3065 H   0  0  0  0  0  0  0  0  0  0  0  0
   -3.9707   -0.8559   -6.0386 H   0  0  0  0  0  0  0  0  0  0  0  0
   -5.3888   -0.0529   -6.7184 H   0  0  0  0  0  0  0  0  0  0  0  0
   -0.1005   -0.6086   -4.3530 H   0  0  0  0  0  0  0  0  0  0  0  0
    1.8048    0.9003   -4.1739 H   0  0  0  0  0  0  0  0  0  0  0  0
    5.9754    0.0386   -1.9554 H   0  0  0  0  0  0  0  0  0  0  0  0
    7.9821    1.3952   -1.9044 H   0  0  0  0  0  0  0  0  0  0  0  0
    9.0949    1.2797    0.2475 H   0  0  0  0  0  0  0  0  0  0  0  0
    9.8465    1.1626    2.2341 H   0  0  0  0  0  0  0  0  0  0  0  0
   11.2580    0.6486    3.1672 H   0  0  0  0  0  0  0  0  0  0  0  0
   11.4202    1.9765    0.4075 H   0  0  0  0  0  0  0  0  0  0  0  0
   11.7423    2.7874    1.9454 H   0  0  0  0  0  0  0  0  0  0  0  0
   12.7874    1.4704    1.3995 H   0  0  0  0  0  0  0  0  0  0  0  0
    9.6341   -2.4102   -2.9747 H   0  0  0  0  0  0  0  0  0  0  0  0
    6.8344   -1.9800   -8.4467 H   0  0  0  0  0  0  0  0  0  0  0  0
    5.8240   -1.8614  -10.6552 H   0  0  0  0  0  0  0  0  0  0  0  0
    5.6572   -1.3413  -12.8908 H   0  0  0  0  0  0  0  0  0  0  0  0
    4.1596   -2.0691  -12.2361 H   0  0  0  0  0  0  0  0  0  0  0  0
    4.1465   -2.0987  -14.7392 H   0  0  0  0  0  0  0  0  0  0  0  0
    2.8625   -1.0581  -14.1105 H   0  0  0  0  0  0  0  0  0  0  0  0
    4.3388   -0.3407  -14.7574 H   0  0  0  0  0  0  0  0  0  0  0  0
    5.2898    1.9032   -7.5127 H   0  0  0  0  0  0  0  0  0  0  0  0
    8.8345   -0.5431   -8.4495 H   0  0  0  0  0  0  0  0  0  0  0  0
    9.6629   -1.7572   -9.7893 H   0  0  0  0  0  0  0  0  0  0  0  0
    8.6347   -1.2186  -11.8163 H   0  0  0  0  0  0  0  0  0  0  0  0
    8.3797   -2.9228  -11.3440 H   0  0  0  0  0  0  0  0  0  0  0  0
    8.3075   -2.4525  -13.0623 H   0  0  0  0  0  0  0  0  0  0  0  0
   14.5849   -2.5364  -13.1788 H   0  0  0  0  0  0  0  0  0  0  0  0
   13.8426   -3.6666  -14.3409 H   0  0  0  0  0  0  0  0  0  0  0  0
   14.3083   -4.2392  -12.7192 H   0  0  0  0  0  0  0  0  0  0  0  0
   14.3842   -2.8106  -10.8806 H   0  0  0  0  0  0  0  0  0  0  0  0
   18.6976   -2.2738   -9.2150 H   0  0  0  0  0  0  0  0  0  0  0  0
   14.6627   -2.5027   -5.4642 H   0  0  0  0  0  0  0  0  0  0  0  0
   14.4471   -3.6423   -3.4456 H   0  0  0  0  0  0  0  0  0  0  0  0
   15.0376   -2.9475   -1.9168 H   0  0  0  0  0  0  0  0  0  0  0  0
   14.5391   -1.8717   -3.2469 H   0  0  0  0  0  0  0  0  0  0  0  0
   20.6231   -2.0252   -4.6108 H   0  0  0  0  0  0  0  0  0  0  0  0
   20.6863   -3.1008   -3.1913 H   0  0  0  0  0  0  0  0  0  0  0  0
   20.5177   -3.7954   -4.8233 H   0  0  0  0  0  0  0  0  0  0  0  0
   19.5051   -2.6279   -6.6065 H   0  0  0  0  0  0  0  0  0  0  0  0
  1  2  2  0  0  0  0
  2  3  1  0  0  0  0
  3  4  2  0  0  0  0
  4  5  1  0  0  0  0
  5  6  2  0  0  0  0
  6  7  1  0  0  0  0
  7  8  2  0  0  0  0
  8  9  1  0  0  0  0
  9 10  1  0  0  0  0
 10 11  1  0  0  0  0
  8 12  1  0  0  0  0
 12 13  1  0  0  0  0
 12 14  2  0  0  0  0
  4 15  1  0  0  0  0
 15 16  2  0  0  0  0
 16 17  1  0  0  0  0
 17 18  1  0  0  0  0
 18 19  2  0  0  0  0
 19 20  1  0  0  0  0
 20 21  2  0  0  0  0
 21 22  1  0  0  0  0
 22 23  1  0  0  0  0
 23 24  1  0  0  0  0
 21 25  1  0  0  0  0
 25 26  2  0  0  0  0
 25 27  1  0  0  0  0
 17 28  2  0  0  0  0
 28 29  1  0  0  0  0
 16 30  1  0  0  0  0
 30 31  2  0  0  0  0
 31 32  1  0  0  0  0
 31 33  1  0  0  0  0
 33 34  2  0  0  0  0
 34 35  1  0  0  0  0
 35 36  2  0  0  0  0
 36 37  1  0  0  0  0
 37 38  2  0  0  0  0
 38 39  1  0  0  0  0
 39 40  2  0  0  0  0
 40 41  1  0  0  0  0
 41 42  1  0  0  0  0
 42 43  1  0  0  0  0
 40 44  1  0  0  0  0
 44 45  1  0  0  0  0
 44 46  2  0  0  0  0
 36 47  1  0  0  0  0
 47 48  2  0  0  0  0
 48 49  1  0  0  0  0
 49 50  1  0  0  0  0
 50 51  2  0  0  0  0
 51 52  1  0  0  0  0
 52 53  2  0  0  0  0
 53 54  1  0  0  0  0
 54 55  1  0  0  0  0
 55 56  1  0  0  0  0
 53 57  1  0  0  0  0
 57 58  2  0  0  0  0
 57 59  1  0  0  0  0
 49 60  2  0  0  0  0
 60 61  1  0  0  0  0
 48 62  1  0  0  0  0
 62 63  2  0  0  0  0
 63 64  1  0  0  0  0
 63 65  1  0  0  0  0
 65 66  2  0  0  0  0
 66 67  1  0  0  0  0
 67 68  2  0  0  0  0
 68 69  1  0  0  0  0
 69 70  2  0  0  0  0
 70 71  1  0  0  0  0
 71 72  2  0  0  0  0
 72 73  1  0  0  0  0
 73 74  1  0  0  0  0
 74 75  1  0  0  0  0
 72 76  1  0  0  0  0
 76 77  1  0  0  0  0
 76 78  2  0  0  0  0
 68 79  1  0  0  0  0
 79 80  2  0  0  0  0
 80 81  1  0  0  0  0
 81 82  1  0  0  0  0
 82 83  2  0  0  0  0
 83 84  1  0  0  0  0
 84 85  2  0  0  0  0
 85 86  1  0  0  0  0
 86 87  1  0  0  0  0
 87 88  1  0  0  0  0
 85 89  1  0  0  0  0
 89 90  2  0  0  0  0
 89 91  1  0  0  0  0
 81 92  2  0  0  0  0
 92 93  1  0  0  0  0
 80 94  1  0  0  0  0
 94 95  2  0  0  0  0
 95 96  1  0  0  0  0
 95 97  1  0  0  0  0
 97 98  2  0  0  0  0
 98 99  1  0  0  0  0
 99100  2  0  0  0  0
100101  1  0  0  0  0
101102  2  0  0  0  0
102103  1  0  0  0  0
103104  2  0  0  0  0
104105  1  0  0  0  0
105106  1  0  0  0  0
106107  1  0  0  0  0
104108  1  0  0  0  0
108109  1  0  0  0  0
108110  2  0  0  0  0
100111  1  0  0  0  0
111112  2  0  0  0  0
112113  1  0  0  0  0
113114  1  0  0  0  0
114115  2  0  0  0  0
115116  1  0  0  0  0
116117  2  0  0  0  0
117118  1  0  0  0  0
118119  1  0  0  0  0
119120  1  0  0  0  0
117121  1  0  0  0  0
121122  2  0  0  0  0
121123  1  0  0  0  0
113124  2  0  0  0  0
124125  1  0  0  0  0
112126  1  0  0  0  0
126127  2  0  0  0  0
127128  1  0  0  0  0
127129  1  0  0  0  0
129130  1  0  0  0  0
130131  1  0  0  0  0
131132  2  0  0  0  0
132133  1  0  0  0  0
133134  1  0  0  0  0
134135  2  0  0  0  0
135136  1  0  0  0  0
136137  1  0  0  0  0
135138  1  0  0  0  0
138139  1  0  0  0  0
139140  1  0  0  0  0
138141  2  0  0  0  0
131142  1  0  0  0  0
142143  1  0  0  0  0
143144  1  0  0  0  0
144145  2  0  0  0  0
145146  1  0  0  0  0
146147  1  0  0  0  0
147148  2  0  0  0  0
148149  1  0  0  0  0
149150  1  0  0  0  0
148151  1  0  0  0  0
151152  1  0  0  0  0
152153  1  0  0  0  0
151154  2  0  0  0  0
 29  1  1  0  0  0  0
 61 33  1  0  0  0  0
 93 65  1  0  0  0  0
125 97  1  0  0  0  0
133129  2  0  0  0  0
146142  2  0  0  0  0
 28  3  1  0  0  0  0
 60 35  1  0  0  0  0
 92 67  1  0  0  0  0
124 99  1  0  0  0  0
141132  1  0  0  0  0
154145  1  0  0  0  0
 14  5  1  0  0  0  0
 32 15  1  0  0  0  0
 46 37  1  0  0  0  0
 64 47  1  0  0  0  0
 78 69  1  0  0  0  0
 96 79  1  0  0  0  0
110101  1  0  0  0  0
128111  1  0  0  0  0
 26 18  1  0  0  0  0
 58 50  1  0  0  0  0
 90 82  1  0  0  0  0
122114  1  0  0  0  0
  1155  1  0  0  0  0
  2156  1  0  0  0  0
  6157  1  0  0  0  0
  7158  1  0  0  0  0
 10159  1  0  0  0  0
 10160  1  0  0  0  0
 11161  1  0  0  0  0
 11162  1  0  0  0  0
 11163  1  0  0  0  0
 14164  1  0  0  0  0
 19165  1  0  0  0  0
 20166  1  0  0  0  0
 23167  1  0  0  0  0
 23168  1  0  0  0  0
 24169  1  0  0  0  0
 24170  1  0  0  0  0
 24171  1  0  0  0  0
 26172  1  0  0  0  0
 30173  1  0  0  0  0
 34174  1  0  0  0  0
 38175  1  0  0  0  0
 39176  1  0  0  0  0
 42177  1  0  0  0  0
 42178  1  0  0  0  0
 43179  1  0  0  0  0
 43180  1  0  0  0  0
 43181  1  0  0  0  0
 46182  1  0  0  0  0
 51183  1  0  0  0  0
 52184  1  0  0  0  0
 55185  1  0  0  0  0
 55186  1  0  0  0  0
 56187  1  0  0  0  0
 56188  1  0  0  0  0
 56189  1  0  0  0  0
 58190  1  0  0  0  0
 62191  1  0  0  0  0
 66192  1  0  0  0  0
 70193  1  0  0  0  0
 71194  1  0  0  0  0
 74195  1  0  0  0  0
 74196  1  0  0  0  0
 75197  1  0  0  0  0
 75198  1  0  0  0  0
 75199  1  0  0  0  0
 78200  1  0  0  0  0
 83201  1  0  0  0  0
 84202  1  0  0  0  0
 87203  1  0  0  0  0
 87204  1  0  0  0  0
 88205  1  0  0  0  0
 88206  1  0  0  0  0
 88207  1  0  0  0  0
 90208  1  0  0  0  0
 94209  1  0  0  0  0
 98210  1  0  0  0  0
102211  1  0  0  0  0
103212  1  0  0  0  0
106213  1  0  0  0  0
106214  1  0  0  0  0
107215  1  0  0  0  0
107216  1  0  0  0  0
107217  1  0  0  0  0
110218  1  0  0  0  0
115219  1  0  0  0  0
116220  1  0  0  0  0
119221  1  0  0  0  0
119222  1  0  0  0  0
120223  1  0  0  0  0
120224  1  0  0  0  0
120225  1  0  0  0  0
122226  1  0  0  0  0
126227  1  0  0  0  0
134228  1  0  0  0  0
137229  1  0  0  0  0
137230  1  0  0  0  0
137231  1  0  0  0  0
140232  1  0  0  0  0
140233  1  0  0  0  0
140234  1  0  0  0  0
141235  1  0  0  0  0
144236  1  0  0  0  0
147237  1  0  0  0  0
150238  1  0  0  0  0
150239  1  0  0  0  0
150240  1  0  0  0  0
153241  1  0  0  0  0
153242  1  0  0  0  0
153243  1  0  0  0  0
154244  1  0  0  0  0
M  END
