
  xtb     03042219103D
 energy: -373.698896867184 gnorm: 0.000177593340 xtb: 6.4.1 (unknown)
215235  0     0  0            999 V2000
    6.0820  -13.5905    7.3912 C   0  0  0  0  0  0  0  0  0  0  0  0
    4.5908  -13.2237    6.6504 S   0  0  0  0  0  0  0  0  0  0  0  0
    5.2399  -11.8092    5.8663 C   0  0  0  0  0  0  0  0  0  0  0  0
    6.5873  -11.6506    6.1918 C   0  0  0  0  0  0  0  0  0  0  0  0
    7.0607  -12.6797    7.0702 C   0  0  0  0  0  0  0  0  0  0  0  0
    8.4074  -12.6768    7.5125 C   0  0  0  0  0  0  0  0  0  0  0  0
    9.2517  -11.6897    7.1016 C   0  0  0  0  0  0  0  0  0  0  0  0
   10.5562  -11.5661    7.4499 O   0  0  0  0  0  0  0  0  0  0  0  0
   11.1075  -12.5306    8.3110 C   0  0  0  0  0  0  0  0  0  0  0  0
    8.7781  -10.6508    6.2160 C   0  0  0  0  0  0  0  0  0  0  0  0
    9.7193   -9.7350    5.8887 O   0  0  0  0  0  0  0  0  0  0  0  0
    9.3566   -8.6771    5.0349 C   0  0  0  0  0  0  0  0  0  0  0  0
    7.4837  -10.6407    5.7787 C   0  0  0  0  0  0  0  0  0  0  0  0
    4.3698  -11.0311    5.0567 C   0  0  0  0  0  0  0  0  0  0  0  0
    3.0392  -11.2743    4.8416 C   0  0  0  0  0  0  0  0  0  0  0  0
    2.3980  -10.3246    4.0145 C   0  0  0  0  0  0  0  0  0  0  0  0
    1.0514  -10.2913    3.6077 C   0  0  0  0  0  0  0  0  0  0  0  0
    0.0629  -11.2666    4.0802 C   0  0  0  0  0  0  0  0  0  0  0  0
   -0.7871  -11.9052    3.1818 C   0  0  0  0  0  0  0  0  0  0  0  0
   -1.7608  -12.7820    3.6173 C   0  0  0  0  0  0  0  0  0  0  0  0
   -1.9311  -13.0396    4.9725 C   0  0  0  0  0  0  0  0  0  0  0  0
   -3.1461  -14.1207    5.6529 S   0  0  0  0  0  0  0  0  0  0  0  0
   -4.4008  -14.2473    4.3314 C   0  0  0  0  0  0  0  0  0  0  0  0
   -5.1120  -12.9305    4.0833 C   0  0  0  0  0  0  0  0  0  0  0  0
   -1.0585  -12.4091    5.8610 C   0  0  0  0  0  0  0  0  0  0  0  0
   -1.1859  -12.6441    7.1824 F   0  0  0  0  0  0  0  0  0  0  0  0
   -0.0774  -11.5402    5.4393 C   0  0  0  0  0  0  0  0  0  0  0  0
    0.6837   -9.2571    2.7625 C   0  0  0  0  0  0  0  0  0  0  0  0
    1.5880   -8.2673    2.3120 C   0  0  0  0  0  0  0  0  0  0  0  0
    2.9378   -8.3091    2.7033 C   0  0  0  0  0  0  0  0  0  0  0  0
    3.8623   -7.2813    2.2040 C   0  0  0  0  0  0  0  0  0  0  0  0
    4.5761   -6.4576    3.0695 C   0  0  0  0  0  0  0  0  0  0  0  0
    5.3457   -5.4228    2.5729 C   0  0  0  0  0  0  0  0  0  0  0  0
    5.4325   -5.1920    1.2073 C   0  0  0  0  0  0  0  0  0  0  0  0
    6.3514   -3.8044    0.5668 S   0  0  0  0  0  0  0  0  0  0  0  0
    5.1839   -2.4706    1.0297 C   0  0  0  0  0  0  0  0  0  0  0  0
    3.8375   -2.6314    0.3527 C   0  0  0  0  0  0  0  0  0  0  0  0
    4.7653   -6.0579    0.3491 C   0  0  0  0  0  0  0  0  0  0  0  0
    3.9785   -7.0848    0.8310 C   0  0  0  0  0  0  0  0  0  0  0  0
    4.8482   -5.8883   -0.9811 F   0  0  0  0  0  0  0  0  0  0  0  0
    3.3012   -9.3279    3.5620 C   0  0  0  0  0  0  0  0  0  0  0  0
    4.9010   -9.5895    4.2030 S   0  0  0  0  0  0  0  0  0  0  0  0
    0.9457   -7.2646    1.5553 C   0  0  0  0  0  0  0  0  0  0  0  0
   -0.4034   -7.4452    1.4078 C   0  0  0  0  0  0  0  0  0  0  0  0
   -0.9352   -8.9255    2.1919 S   0  0  0  0  0  0  0  0  0  0  0  0
   -1.2728   -6.5245    0.7683 C   0  0  0  0  0  0  0  0  0  0  0  0
   -0.5905   -5.0193    0.2480 S   0  0  0  0  0  0  0  0  0  0  0  0
   -2.1193   -4.3956   -0.2814 C   0  0  0  0  0  0  0  0  0  0  0  0
   -3.1275   -5.3487   -0.0955 C   0  0  0  0  0  0  0  0  0  0  0  0
   -2.6449   -6.5528    0.5073 C   0  0  0  0  0  0  0  0  0  0  0  0
   -3.5398   -7.6090    0.7801 C   0  0  0  0  0  0  0  0  0  0  0  0
   -4.8661   -7.4845    0.4775 C   0  0  0  0  0  0  0  0  0  0  0  0
   -5.8135   -8.4256    0.7039 O   0  0  0  0  0  0  0  0  0  0  0  0
   -5.4213   -9.6292    1.3172 C   0  0  0  0  0  0  0  0  0  0  0  0
   -5.3542   -6.2796   -0.1409 C   0  0  0  0  0  0  0  0  0  0  0  0
   -6.6836   -6.2830   -0.4017 O   0  0  0  0  0  0  0  0  0  0  0  0
   -7.2574   -5.1428   -0.9918 C   0  0  0  0  0  0  0  0  0  0  0  0
   -4.4979   -5.2511   -0.4203 C   0  0  0  0  0  0  0  0  0  0  0  0
   -2.1449   -3.0482   -0.7291 C   0  0  0  0  0  0  0  0  0  0  0  0
   -3.1867   -2.2303   -1.0708 C   0  0  0  0  0  0  0  0  0  0  0  0
   -2.8055   -0.8988   -1.3631 C   0  0  0  0  0  0  0  0  0  0  0  0
   -3.6390    0.1816   -1.7014 C   0  0  0  0  0  0  0  0  0  0  0  0
   -5.0951    0.0069   -1.7732 C   0  0  0  0  0  0  0  0  0  0  0  0
   -5.7957   -0.5662   -0.7118 C   0  0  0  0  0  0  0  0  0  0  0  0
   -7.1515   -0.7937   -0.8069 C   0  0  0  0  0  0  0  0  0  0  0  0
   -7.8638   -0.4514   -1.9544 C   0  0  0  0  0  0  0  0  0  0  0  0
   -9.5997   -0.7968   -1.9692 S   0  0  0  0  0  0  0  0  0  0  0  0
   -9.8902   -1.4442   -3.6575 C   0  0  0  0  0  0  0  0  0  0  0  0
   -9.0311   -2.6572   -3.9540 C   0  0  0  0  0  0  0  0  0  0  0  0
   -7.1632    0.1753   -2.9803 C   0  0  0  0  0  0  0  0  0  0  0  0
   -7.7983    0.5822   -4.1001 F   0  0  0  0  0  0  0  0  0  0  0  0
   -5.8018    0.3929   -2.9064 C   0  0  0  0  0  0  0  0  0  0  0  0
   -3.0192    1.3977   -1.9430 C   0  0  0  0  0  0  0  0  0  0  0  0
   -1.6189    1.5851   -1.8269 C   0  0  0  0  0  0  0  0  0  0  0  0
   -0.7861    0.5054   -1.4875 C   0  0  0  0  0  0  0  0  0  0  0  0
    0.6650    0.6759   -1.3384 C   0  0  0  0  0  0  0  0  0  0  0  0
    1.1823    1.6811   -0.5229 C   0  0  0  0  0  0  0  0  0  0  0  0
    2.5466    1.8473   -0.3937 C   0  0  0  0  0  0  0  0  0  0  0  0
    3.4292    1.0220   -1.0757 C   0  0  0  0  0  0  0  0  0  0  0  0
    5.1891    1.2770   -0.9144 S   0  0  0  0  0  0  0  0  0  0  0  0
    5.4460    2.4025   -2.3402 C   0  0  0  0  0  0  0  0  0  0  0  0
    5.3102    1.7052   -3.6781 C   0  0  0  0  0  0  0  0  0  0  0  0
    2.9068    0.0043   -1.8631 C   0  0  0  0  0  0  0  0  0  0  0  0
    1.5436   -0.1735   -2.0023 C   0  0  0  0  0  0  0  0  0  0  0  0
    3.7285   -0.8273   -2.5247 F   0  0  0  0  0  0  0  0  0  0  0  0
   -1.4030   -0.7153   -1.2785 C   0  0  0  0  0  0  0  0  0  0  0  0
   -0.6075   -2.1892   -0.8034 S   0  0  0  0  0  0  0  0  0  0  0  0
   -1.2415    2.9227   -2.0921 C   0  0  0  0  0  0  0  0  0  0  0  0
   -2.2944    3.7461   -2.3679 C   0  0  0  0  0  0  0  0  0  0  0  0
   -3.8229    2.8922   -2.3494 S   0  0  0  0  0  0  0  0  0  0  0  0
   -2.2253    5.1490   -2.6239 C   0  0  0  0  0  0  0  0  0  0  0  0
   -1.1596    5.9645   -2.3726 C   0  0  0  0  0  0  0  0  0  0  0  0
   -1.3776    7.3157   -2.7334 C   0  0  0  0  0  0  0  0  0  0  0  0
   -0.5070    8.4080   -2.5649 C   0  0  0  0  0  0  0  0  0  0  0  0
    0.8482    8.2383   -2.0288 C   0  0  0  0  0  0  0  0  0  0  0  0
    1.7016    7.2512   -2.5173 C   0  0  0  0  0  0  0  0  0  0  0  0
    2.9779    7.0939   -2.0127 C   0  0  0  0  0  0  0  0  0  0  0  0
    3.4520    7.9189   -0.9988 C   0  0  0  0  0  0  0  0  0  0  0  0
    5.0675    7.8358   -0.2957 S   0  0  0  0  0  0  0  0  0  0  0  0
    5.5697    6.0979   -0.5571 C   0  0  0  0  0  0  0  0  0  0  0  0
    4.7087    5.1299    0.2305 C   0  0  0  0  0  0  0  0  0  0  0  0
    2.5959    8.9181   -0.5348 C   0  0  0  0  0  0  0  0  0  0  0  0
    3.0231    9.7522    0.4345 F   0  0  0  0  0  0  0  0  0  0  0  0
    1.3199    9.0816   -1.0245 C   0  0  0  0  0  0  0  0  0  0  0  0
   -0.9984    9.6495   -2.9342 C   0  0  0  0  0  0  0  0  0  0  0  0
   -2.2942    9.8522   -3.4716 C   0  0  0  0  0  0  0  0  0  0  0  0
   -3.1643    8.7602   -3.6325 C   0  0  0  0  0  0  0  0  0  0  0  0
   -4.5334    8.9293   -4.1319 C   0  0  0  0  0  0  0  0  0  0  0  0
   -5.3902    9.8734   -3.5674 C   0  0  0  0  0  0  0  0  0  0  0  0
   -6.6926    9.9879   -4.0033 C   0  0  0  0  0  0  0  0  0  0  0  0
   -7.1880    9.1821   -5.0263 C   0  0  0  0  0  0  0  0  0  0  0  0
   -8.8684    9.4288   -5.5220 S   0  0  0  0  0  0  0  0  0  0  0  0
   -9.4988    7.7272   -5.7711 C   0  0  0  0  0  0  0  0  0  0  0  0
   -9.3404    6.8741   -4.5288 C   0  0  0  0  0  0  0  0  0  0  0  0
   -6.3102    8.2726   -5.6076 C   0  0  0  0  0  0  0  0  0  0  0  0
   -5.0123    8.1273   -5.1623 C   0  0  0  0  0  0  0  0  0  0  0  0
   -6.7026    7.4966   -6.6414 F   0  0  0  0  0  0  0  0  0  0  0  0
   -2.6755    7.5156   -3.2655 C   0  0  0  0  0  0  0  0  0  0  0  0
   -3.5746    6.0204   -3.3182 S   0  0  0  0  0  0  0  0  0  0  0  0
   -2.5166   11.2051   -3.8198 C   0  0  0  0  0  0  0  0  0  0  0  0
   -1.4614   12.0358   -3.5551 C   0  0  0  0  0  0  0  0  0  0  0  0
   -0.1140   11.1506   -2.8603 S   0  0  0  0  0  0  0  0  0  0  0  0
   -1.4114   13.4364   -3.7884 C   0  0  0  0  0  0  0  0  0  0  0  0
   -2.7764   14.1976   -4.5579 S   0  0  0  0  0  0  0  0  0  0  0  0
   -2.0457   15.7375   -4.4991 C   0  0  0  0  0  0  0  0  0  0  0  0
   -0.8024   15.7024   -3.9133 C   0  0  0  0  0  0  0  0  0  0  0  0
   -0.4275   14.3822   -3.4993 C   0  0  0  0  0  0  0  0  0  0  0  0
    0.8217   14.1945   -2.8682 C   0  0  0  0  0  0  0  0  0  0  0  0
    1.6556   15.2572   -2.6634 C   0  0  0  0  0  0  0  0  0  0  0  0
    2.8675   15.1929   -2.0667 O   0  0  0  0  0  0  0  0  0  0  0  0
    3.3199   13.9447   -1.5980 C   0  0  0  0  0  0  0  0  0  0  0  0
    1.2784   16.5852   -3.0915 C   0  0  0  0  0  0  0  0  0  0  0  0
    2.2085   17.5352   -2.8268 O   0  0  0  0  0  0  0  0  0  0  0  0
    1.9332   18.8593   -3.2092 C   0  0  0  0  0  0  0  0  0  0  0  0
    0.0769   16.7936   -3.6992 C   0  0  0  0  0  0  0  0  0  0  0  0
    6.1631  -14.4520    8.0233 H   0  0  0  0  0  0  0  0  0  0  0  0
    8.7278  -13.4662    8.1722 H   0  0  0  0  0  0  0  0  0  0  0  0
   11.0695  -13.5318    7.8692 H   0  0  0  0  0  0  0  0  0  0  0  0
   10.5964  -12.5431    9.2794 H   0  0  0  0  0  0  0  0  0  0  0  0
   12.1462  -12.2382    8.4545 H   0  0  0  0  0  0  0  0  0  0  0  0
    8.5625   -8.0631    5.4716 H   0  0  0  0  0  0  0  0  0  0  0  0
   10.2558   -8.0753    4.9154 H   0  0  0  0  0  0  0  0  0  0  0  0
    9.0307   -9.0429    4.0561 H   0  0  0  0  0  0  0  0  0  0  0  0
    7.1347   -9.8672    5.1177 H   0  0  0  0  0  0  0  0  0  0  0  0
    2.5382  -12.1282    5.2613 H   0  0  0  0  0  0  0  0  0  0  0  0
   -0.6733  -11.7289    2.1231 H   0  0  0  0  0  0  0  0  0  0  0  0
   -2.3860  -13.2702    2.8874 H   0  0  0  0  0  0  0  0  0  0  0  0
   -3.9278  -14.6402    3.4323 H   0  0  0  0  0  0  0  0  0  0  0  0
   -5.0937  -14.9969    4.7131 H   0  0  0  0  0  0  0  0  0  0  0  0
   -5.8793  -13.0618    3.3227 H   0  0  0  0  0  0  0  0  0  0  0  0
   -4.4144  -12.1671    3.7445 H   0  0  0  0  0  0  0  0  0  0  0  0
   -5.5844  -12.5821    4.9986 H   0  0  0  0  0  0  0  0  0  0  0  0
    0.5475  -11.0562    6.1733 H   0  0  0  0  0  0  0  0  0  0  0  0
    4.5026   -6.6123    4.1352 H   0  0  0  0  0  0  0  0  0  0  0  0
    5.8808   -4.7706    3.2465 H   0  0  0  0  0  0  0  0  0  0  0  0
    5.6793   -1.5573    0.7017 H   0  0  0  0  0  0  0  0  0  0  0  0
    5.0920   -2.4635    2.1161 H   0  0  0  0  0  0  0  0  0  0  0  0
    3.9663   -2.7153   -0.7236 H   0  0  0  0  0  0  0  0  0  0  0  0
    3.2104   -1.7666    0.5652 H   0  0  0  0  0  0  0  0  0  0  0  0
    3.3236   -3.5225    0.7104 H   0  0  0  0  0  0  0  0  0  0  0  0
    3.4582   -7.7238    0.1340 H   0  0  0  0  0  0  0  0  0  0  0  0
    1.4576   -6.4077    1.1547 H   0  0  0  0  0  0  0  0  0  0  0  0
   -3.1555   -8.5085    1.2285 H   0  0  0  0  0  0  0  0  0  0  0  0
   -4.7003  -10.1769    0.7015 H   0  0  0  0  0  0  0  0  0  0  0  0
   -6.3321  -10.2168    1.4185 H   0  0  0  0  0  0  0  0  0  0  0  0
   -4.9887   -9.4532    2.3075 H   0  0  0  0  0  0  0  0  0  0  0  0
   -6.8387   -4.9487   -1.9852 H   0  0  0  0  0  0  0  0  0  0  0  0
   -8.3190   -5.3655   -1.0846 H   0  0  0  0  0  0  0  0  0  0  0  0
   -7.1276   -4.2542   -0.3650 H   0  0  0  0  0  0  0  0  0  0  0  0
   -4.8611   -4.3625   -0.9024 H   0  0  0  0  0  0  0  0  0  0  0  0
   -4.2106   -2.5450   -1.1069 H   0  0  0  0  0  0  0  0  0  0  0  0
   -5.2704   -0.8259    0.1948 H   0  0  0  0  0  0  0  0  0  0  0  0
   -7.6905   -1.2462    0.0113 H   0  0  0  0  0  0  0  0  0  0  0  0
  -10.9483   -1.7049   -3.6468 H   0  0  0  0  0  0  0  0  0  0  0  0
   -9.7293   -0.6446   -4.3769 H   0  0  0  0  0  0  0  0  0  0  0  0
   -9.2892   -3.0581   -4.9320 H   0  0  0  0  0  0  0  0  0  0  0  0
   -9.1896   -3.4303   -3.2047 H   0  0  0  0  0  0  0  0  0  0  0  0
   -7.9752   -2.3921   -3.9598 H   0  0  0  0  0  0  0  0  0  0  0  0
   -5.3040    0.8566   -3.7437 H   0  0  0  0  0  0  0  0  0  0  0  0
    0.5086    2.3193    0.0286 H   0  0  0  0  0  0  0  0  0  0  0  0
    2.9454    2.6201    0.2454 H   0  0  0  0  0  0  0  0  0  0  0  0
    6.4576    2.7807   -2.1949 H   0  0  0  0  0  0  0  0  0  0  0  0
    4.7338    3.2223   -2.2392 H   0  0  0  0  0  0  0  0  0  0  0  0
    5.9507    0.8274   -3.7153 H   0  0  0  0  0  0  0  0  0  0  0  0
    4.2831    1.3908   -3.8513 H   0  0  0  0  0  0  0  0  0  0  0  0
    5.5995    2.3844   -4.4782 H   0  0  0  0  0  0  0  0  0  0  0  0
    1.1809   -0.9649   -2.6391 H   0  0  0  0  0  0  0  0  0  0  0  0
   -0.2203    3.2560   -2.0977 H   0  0  0  0  0  0  0  0  0  0  0  0
   -0.2570    5.6186   -1.9041 H   0  0  0  0  0  0  0  0  0  0  0  0
    1.3727    6.6161   -3.3262 H   0  0  0  0  0  0  0  0  0  0  0  0
    3.6144    6.3284   -2.4283 H   0  0  0  0  0  0  0  0  0  0  0  0
    5.5692    5.8838   -1.6254 H   0  0  0  0  0  0  0  0  0  0  0  0
    6.5994    6.0789   -0.2009 H   0  0  0  0  0  0  0  0  0  0  0  0
    4.7070    5.4032    1.2833 H   0  0  0  0  0  0  0  0  0  0  0  0
    3.6811    5.1454   -0.1300 H   0  0  0  0  0  0  0  0  0  0  0  0
    5.1046    4.1203    0.1369 H   0  0  0  0  0  0  0  0  0  0  0  0
    0.6944    9.8517   -0.6023 H   0  0  0  0  0  0  0  0  0  0  0  0
   -5.0403   10.4940   -2.7567 H   0  0  0  0  0  0  0  0  0  0  0  0
   -7.3591   10.7057   -3.5511 H   0  0  0  0  0  0  0  0  0  0  0  0
  -10.5508    7.8849   -6.0091 H   0  0  0  0  0  0  0  0  0  0  0  0
   -9.0022    7.2881   -6.6335 H   0  0  0  0  0  0  0  0  0  0  0  0
   -9.8002    5.9015   -4.6921 H   0  0  0  0  0  0  0  0  0  0  0  0
   -9.8196    7.3490   -3.6751 H   0  0  0  0  0  0  0  0  0  0  0  0
   -8.2889    6.7199   -4.2933 H   0  0  0  0  0  0  0  0  0  0  0  0
   -4.3759    7.4055   -5.6502 H   0  0  0  0  0  0  0  0  0  0  0  0
   -3.4273   11.5579   -4.2698 H   0  0  0  0  0  0  0  0  0  0  0  0
   -2.5653   16.5866   -4.8961 H   0  0  0  0  0  0  0  0  0  0  0  0
    1.1071   13.2082   -2.5483 H   0  0  0  0  0  0  0  0  0  0  0  0
    3.4233   13.2221   -2.4137 H   0  0  0  0  0  0  0  0  0  0  0  0
    2.6504   13.5338   -0.8361 H   0  0  0  0  0  0  0  0  0  0  0  0
    4.2964   14.1334   -1.1560 H   0  0  0  0  0  0  0  0  0  0  0  0
    2.8036   19.4398   -2.9086 H   0  0  0  0  0  0  0  0  0  0  0  0
    1.7963   18.9440   -4.2924 H   0  0  0  0  0  0  0  0  0  0  0  0
    1.0443   19.2475   -2.7010 H   0  0  0  0  0  0  0  0  0  0  0  0
   -0.2367   17.7713   -4.0265 H   0  0  0  0  0  0  0  0  0  0  0  0
  1  2  1  0  0  0  0
  2  3  1  0  0  0  0
  3  4  2  0  0  0  0
  4  5  1  0  0  0  0
  5  6  1  0  0  0  0
  6  7  2  0  0  0  0
  7  8  1  0  0  0  0
  8  9  1  0  0  0  0
  7 10  1  0  0  0  0
 10 11  1  0  0  0  0
 11 12  1  0  0  0  0
 10 13  2  0  0  0  0
  3 14  1  0  0  0  0
 14 15  2  0  0  0  0
 15 16  1  0  0  0  0
 16 17  2  0  0  0  0
 17 18  1  0  0  0  0
 18 19  2  0  0  0  0
 19 20  1  0  0  0  0
 20 21  2  0  0  0  0
 21 22  1  0  0  0  0
 22 23  1  0  0  0  0
 23 24  1  0  0  0  0
 21 25  1  0  0  0  0
 25 26  1  0  0  0  0
 25 27  2  0  0  0  0
 17 28  1  0  0  0  0
 28 29  2  0  0  0  0
 29 30  1  0  0  0  0
 30 31  1  0  0  0  0
 31 32  2  0  0  0  0
 32 33  1  0  0  0  0
 33 34  2  0  0  0  0
 34 35  1  0  0  0  0
 35 36  1  0  0  0  0
 36 37  1  0  0  0  0
 34 38  1  0  0  0  0
 38 39  2  0  0  0  0
 38 40  1  0  0  0  0
 30 41  2  0  0  0  0
 41 42  1  0  0  0  0
 29 43  1  0  0  0  0
 43 44  2  0  0  0  0
 44 45  1  0  0  0  0
 44 46  1  0  0  0  0
 46 47  1  0  0  0  0
 47 48  1  0  0  0  0
 48 49  2  0  0  0  0
 49 50  1  0  0  0  0
 50 51  1  0  0  0  0
 51 52  2  0  0  0  0
 52 53  1  0  0  0  0
 53 54  1  0  0  0  0
 52 55  1  0  0  0  0
 55 56  1  0  0  0  0
 56 57  1  0  0  0  0
 55 58  2  0  0  0  0
 48 59  1  0  0  0  0
 59 60  2  0  0  0  0
 60 61  1  0  0  0  0
 61 62  2  0  0  0  0
 62 63  1  0  0  0  0
 63 64  2  0  0  0  0
 64 65  1  0  0  0  0
 65 66  2  0  0  0  0
 66 67  1  0  0  0  0
 67 68  1  0  0  0  0
 68 69  1  0  0  0  0
 66 70  1  0  0  0  0
 70 71  1  0  0  0  0
 70 72  2  0  0  0  0
 62 73  1  0  0  0  0
 73 74  2  0  0  0  0
 74 75  1  0  0  0  0
 75 76  1  0  0  0  0
 76 77  2  0  0  0  0
 77 78  1  0  0  0  0
 78 79  2  0  0  0  0
 79 80  1  0  0  0  0
 80 81  1  0  0  0  0
 81 82  1  0  0  0  0
 79 83  1  0  0  0  0
 83 84  2  0  0  0  0
 83 85  1  0  0  0  0
 75 86  2  0  0  0  0
 86 87  1  0  0  0  0
 74 88  1  0  0  0  0
 88 89  2  0  0  0  0
 89 90  1  0  0  0  0
 89 91  1  0  0  0  0
 91 92  2  0  0  0  0
 92 93  1  0  0  0  0
 93 94  2  0  0  0  0
 94 95  1  0  0  0  0
 95 96  2  0  0  0  0
 96 97  1  0  0  0  0
 97 98  2  0  0  0  0
 98 99  1  0  0  0  0
 99100  1  0  0  0  0
100101  1  0  0  0  0
 98102  1  0  0  0  0
102103  1  0  0  0  0
102104  2  0  0  0  0
 94105  1  0  0  0  0
105106  2  0  0  0  0
106107  1  0  0  0  0
107108  1  0  0  0  0
108109  2  0  0  0  0
109110  1  0  0  0  0
110111  2  0  0  0  0
111112  1  0  0  0  0
112113  1  0  0  0  0
113114  1  0  0  0  0
111115  1  0  0  0  0
115116  2  0  0  0  0
115117  1  0  0  0  0
107118  2  0  0  0  0
118119  1  0  0  0  0
106120  1  0  0  0  0
120121  2  0  0  0  0
121122  1  0  0  0  0
121123  1  0  0  0  0
123124  1  0  0  0  0
124125  1  0  0  0  0
125126  2  0  0  0  0
126127  1  0  0  0  0
127128  1  0  0  0  0
128129  2  0  0  0  0
129130  1  0  0  0  0
130131  1  0  0  0  0
129132  1  0  0  0  0
132133  1  0  0  0  0
133134  1  0  0  0  0
132135  2  0  0  0  0
  5  1  2  0  0  0  0
 42 14  1  0  0  0  0
 50 46  2  0  0  0  0
 87 59  1  0  0  0  0
119 91  1  0  0  0  0
127123  2  0  0  0  0
 13  4  1  0  0  0  0
 41 16  1  0  0  0  0
 58 49  1  0  0  0  0
 86 61  1  0  0  0  0
118 93  1  0  0  0  0
135126  1  0  0  0  0
 27 18  1  0  0  0  0
 45 28  1  0  0  0  0
 72 63  1  0  0  0  0
 90 73  1  0  0  0  0
104 95  1  0  0  0  0
122105  1  0  0  0  0
 39 31  1  0  0  0  0
 84 76  1  0  0  0  0
116108  1  0  0  0  0
  1136  1  0  0  0  0
  6137  1  0  0  0  0
  9138  1  0  0  0  0
  9139  1  0  0  0  0
  9140  1  0  0  0  0
 12141  1  0  0  0  0
 12142  1  0  0  0  0
 12143  1  0  0  0  0
 13144  1  0  0  0  0
 15145  1  0  0  0  0
 19146  1  0  0  0  0
 20147  1  0  0  0  0
 23148  1  0  0  0  0
 23149  1  0  0  0  0
 24150  1  0  0  0  0
 24151  1  0  0  0  0
 24152  1  0  0  0  0
 27153  1  0  0  0  0
 32154  1  0  0  0  0
 33155  1  0  0  0  0
 36156  1  0  0  0  0
 36157  1  0  0  0  0
 37158  1  0  0  0  0
 37159  1  0  0  0  0
 37160  1  0  0  0  0
 39161  1  0  0  0  0
 43162  1  0  0  0  0
 51163  1  0  0  0  0
 54164  1  0  0  0  0
 54165  1  0  0  0  0
 54166  1  0  0  0  0
 57167  1  0  0  0  0
 57168  1  0  0  0  0
 57169  1  0  0  0  0
 58170  1  0  0  0  0
 60171  1  0  0  0  0
 64172  1  0  0  0  0
 65173  1  0  0  0  0
 68174  1  0  0  0  0
 68175  1  0  0  0  0
 69176  1  0  0  0  0
 69177  1  0  0  0  0
 69178  1  0  0  0  0
 72179  1  0  0  0  0
 77180  1  0  0  0  0
 78181  1  0  0  0  0
 81182  1  0  0  0  0
 81183  1  0  0  0  0
 82184  1  0  0  0  0
 82185  1  0  0  0  0
 82186  1  0  0  0  0
 84187  1  0  0  0  0
 88188  1  0  0  0  0
 92189  1  0  0  0  0
 96190  1  0  0  0  0
 97191  1  0  0  0  0
100192  1  0  0  0  0
100193  1  0  0  0  0
101194  1  0  0  0  0
101195  1  0  0  0  0
101196  1  0  0  0  0
104197  1  0  0  0  0
109198  1  0  0  0  0
110199  1  0  0  0  0
113200  1  0  0  0  0
113201  1  0  0  0  0
114202  1  0  0  0  0
114203  1  0  0  0  0
114204  1  0  0  0  0
116205  1  0  0  0  0
120206  1  0  0  0  0
125207  1  0  0  0  0
128208  1  0  0  0  0
131209  1  0  0  0  0
131210  1  0  0  0  0
131211  1  0  0  0  0
134212  1  0  0  0  0
134213  1  0  0  0  0
134214  1  0  0  0  0
135215  1  0  0  0  0
M  END
