
  xtb     03042207333D
 energy: -432.092820401645 gnorm: 0.000312336350 xtb: 6.4.1 (unknown)
236259  0     0  0            999 V2000
   -7.0443  -18.6464    2.2702 C   0  0  0  0  0  0  0  0  0  0  0  0
   -7.7488  -17.2741    2.9988 S   0  0  0  0  0  0  0  0  0  0  0  0
   -6.5061  -16.2053    2.4006 C   0  0  0  0  0  0  0  0  0  0  0  0
   -5.5748  -16.9393    1.6532 C   0  0  0  0  0  0  0  0  0  0  0  0
   -5.8923  -18.3344    1.5886 C   0  0  0  0  0  0  0  0  0  0  0  0
   -5.0551  -19.2285    0.8754 C   0  0  0  0  0  0  0  0  0  0  0  0
   -3.9386  -18.7585    0.2515 C   0  0  0  0  0  0  0  0  0  0  0  0
   -3.0576  -19.5006   -0.4636 O   0  0  0  0  0  0  0  0  0  0  0  0
   -3.2999  -20.8792   -0.5901 C   0  0  0  0  0  0  0  0  0  0  0  0
   -3.6020  -17.3571    0.3316 C   0  0  0  0  0  0  0  0  0  0  0  0
   -2.4614  -17.0244   -0.3173 O   0  0  0  0  0  0  0  0  0  0  0  0
   -2.0624  -15.6750   -0.3249 C   0  0  0  0  0  0  0  0  0  0  0  0
   -4.3993  -16.4844    1.0183 C   0  0  0  0  0  0  0  0  0  0  0  0
   -6.5647  -14.8096    2.6393 C   0  0  0  0  0  0  0  0  0  0  0  0
   -5.7053  -13.7086    1.6086 S   0  0  0  0  0  0  0  0  0  0  0  0
   -6.3087  -12.3015    2.4250 C   0  0  0  0  0  0  0  0  0  0  0  0
   -7.1373  -12.6745    3.4877 C   0  0  0  0  0  0  0  0  0  0  0  0
   -7.2872  -14.0899    3.6048 C   0  0  0  0  0  0  0  0  0  0  0  0
   -8.0691  -14.6128    4.6574 C   0  0  0  0  0  0  0  0  0  0  0  0
   -8.6912  -13.7776    5.5424 C   0  0  0  0  0  0  0  0  0  0  0  0
   -9.4674  -14.1733    6.5808 O   0  0  0  0  0  0  0  0  0  0  0  0
   -9.6763  -15.5509    6.7705 C   0  0  0  0  0  0  0  0  0  0  0  0
   -8.5314  -12.3527    5.4294 C   0  0  0  0  0  0  0  0  0  0  0  0
   -9.1788  -11.6369    6.3773 O   0  0  0  0  0  0  0  0  0  0  0  0
   -9.0771  -10.2339    6.3431 C   0  0  0  0  0  0  0  0  0  0  0  0
   -7.7598  -11.8284    4.4298 C   0  0  0  0  0  0  0  0  0  0  0  0
   -5.8896  -11.0251    1.9740 C   0  0  0  0  0  0  0  0  0  0  0  0
   -6.4372   -9.7888    2.1878 C   0  0  0  0  0  0  0  0  0  0  0  0
   -5.7081   -8.7259    1.6049 C   0  0  0  0  0  0  0  0  0  0  0  0
   -5.9782   -7.3489    1.6895 C   0  0  0  0  0  0  0  0  0  0  0  0
   -7.0894   -6.8388    2.5030 C   0  0  0  0  0  0  0  0  0  0  0  0
   -8.0060   -5.9365    1.9729 C   0  0  0  0  0  0  0  0  0  0  0  0
   -9.0382   -5.4718    2.7630 C   0  0  0  0  0  0  0  0  0  0  0  0
   -9.9204   -4.6102    2.2192 F   0  0  0  0  0  0  0  0  0  0  0  0
   -9.2215   -5.8581    4.0867 C   0  0  0  0  0  0  0  0  0  0  0  0
  -10.3299   -5.3079    4.9339 C   0  0  0  0  0  0  0  0  0  0  0  0
   -9.8965   -3.9982    5.5967 C   0  0  0  0  0  0  0  0  0  0  0  0
   -8.2766   -6.7490    4.5820 C   0  0  0  0  0  0  0  0  0  0  0  0
   -8.3858   -7.1610    5.8657 F   0  0  0  0  0  0  0  0  0  0  0  0
   -7.2329   -7.2441    3.8274 C   0  0  0  0  0  0  0  0  0  0  0  0
   -5.1227   -6.4994    1.0046 C   0  0  0  0  0  0  0  0  0  0  0  0
   -4.0049   -6.9655    0.2699 C   0  0  0  0  0  0  0  0  0  0  0  0
   -3.7184   -8.3414    0.2039 C   0  0  0  0  0  0  0  0  0  0  0  0
   -2.5349   -8.8235   -0.5208 C   0  0  0  0  0  0  0  0  0  0  0  0
   -2.6378   -9.8474   -1.4566 C   0  0  0  0  0  0  0  0  0  0  0  0
   -1.5162  -10.2436   -2.1578 C   0  0  0  0  0  0  0  0  0  0  0  0
   -0.2617   -9.6693   -1.9835 C   0  0  0  0  0  0  0  0  0  0  0  0
    0.9267  -10.0635   -2.8085 C   0  0  0  0  0  0  0  0  0  0  0  0
    0.9901   -9.2232   -4.0869 C   0  0  0  0  0  0  0  0  0  0  0  0
   -0.1970   -8.6651   -1.0243 C   0  0  0  0  0  0  0  0  0  0  0  0
   -1.2891   -8.2436   -0.2939 C   0  0  0  0  0  0  0  0  0  0  0  0
    0.9919   -8.0675   -0.7926 F   0  0  0  0  0  0  0  0  0  0  0  0
   -1.6486  -11.2352   -3.0626 F   0  0  0  0  0  0  0  0  0  0  0  0
   -4.5887   -9.1889    0.8650 C   0  0  0  0  0  0  0  0  0  0  0  0
   -4.4435  -10.9218    0.9718 S   0  0  0  0  0  0  0  0  0  0  0  0
   -3.2789   -5.9028   -0.3152 C   0  0  0  0  0  0  0  0  0  0  0  0
   -3.7678   -4.6660   -0.0069 C   0  0  0  0  0  0  0  0  0  0  0  0
   -5.2071   -4.7560    0.9869 S   0  0  0  0  0  0  0  0  0  0  0  0
   -3.1662   -3.4234   -0.3699 C   0  0  0  0  0  0  0  0  0  0  0  0
   -1.9113   -3.2771   -0.8869 C   0  0  0  0  0  0  0  0  0  0  0  0
   -1.5374   -1.9311   -1.1078 C   0  0  0  0  0  0  0  0  0  0  0  0
   -0.2980   -1.4516   -1.5653 C   0  0  0  0  0  0  0  0  0  0  0  0
    0.7547   -2.3916   -1.9722 C   0  0  0  0  0  0  0  0  0  0  0  0
    2.0470   -2.2807   -1.4701 C   0  0  0  0  0  0  0  0  0  0  0  0
    2.9984   -3.2175   -1.8240 C   0  0  0  0  0  0  0  0  0  0  0  0
    4.2372   -3.0892   -1.3088 F   0  0  0  0  0  0  0  0  0  0  0  0
    2.7360   -4.2947   -2.6628 C   0  0  0  0  0  0  0  0  0  0  0  0
    3.7824   -5.3004   -3.0391 C   0  0  0  0  0  0  0  0  0  0  0  0
    4.4461   -4.9170   -4.3637 C   0  0  0  0  0  0  0  0  0  0  0  0
    1.4396   -4.3558   -3.1619 C   0  0  0  0  0  0  0  0  0  0  0  0
    1.1139   -5.3738   -3.9872 F   0  0  0  0  0  0  0  0  0  0  0  0
    0.4597   -3.4390   -2.8421 C   0  0  0  0  0  0  0  0  0  0  0  0
   -0.1311   -0.0760   -1.5743 C   0  0  0  0  0  0  0  0  0  0  0  0
   -1.1510    0.8274   -1.1778 C   0  0  0  0  0  0  0  0  0  0  0  0
   -2.3979    0.3456   -0.7435 C   0  0  0  0  0  0  0  0  0  0  0  0
   -3.4625    1.2590   -0.3073 C   0  0  0  0  0  0  0  0  0  0  0  0
   -3.2023    2.2533    0.6314 C   0  0  0  0  0  0  0  0  0  0  0  0
   -4.2170    3.1044    1.0207 C   0  0  0  0  0  0  0  0  0  0  0  0
   -5.5113    3.0289    0.5189 C   0  0  0  0  0  0  0  0  0  0  0  0
   -6.6064    3.9441    0.9787 C   0  0  0  0  0  0  0  0  0  0  0  0
   -7.3563    3.3285    2.1625 C   0  0  0  0  0  0  0  0  0  0  0  0
   -5.7330    2.0133   -0.4052 C   0  0  0  0  0  0  0  0  0  0  0  0
   -4.7492    1.1396   -0.8227 C   0  0  0  0  0  0  0  0  0  0  0  0
   -6.9664    1.8826   -0.9318 F   0  0  0  0  0  0  0  0  0  0  0  0
   -3.9295    4.0617    1.9277 F   0  0  0  0  0  0  0  0  0  0  0  0
   -2.5612   -1.0304   -0.7210 C   0  0  0  0  0  0  0  0  0  0  0  0
   -3.9659   -1.8848   -0.1338 S   0  0  0  0  0  0  0  0  0  0  0  0
   -0.7315    2.1759   -1.2911 C   0  0  0  0  0  0  0  0  0  0  0  0
    0.5543    2.3146   -1.7264 C   0  0  0  0  0  0  0  0  0  0  0  0
    1.3077    0.7726   -2.0710 S   0  0  0  0  0  0  0  0  0  0  0  0
    1.2975    3.5303   -1.8339 C   0  0  0  0  0  0  0  0  0  0  0  0
    0.9620    4.7375   -1.2937 C   0  0  0  0  0  0  0  0  0  0  0  0
    1.9386    5.7432   -1.4983 C   0  0  0  0  0  0  0  0  0  0  0  0
    1.9311    7.0606   -1.0083 C   0  0  0  0  0  0  0  0  0  0  0  0
    0.7714    7.5877   -0.2774 C   0  0  0  0  0  0  0  0  0  0  0  0
    0.9295    8.2215    0.9507 C   0  0  0  0  0  0  0  0  0  0  0  0
   -0.1820    8.6919    1.6216 C   0  0  0  0  0  0  0  0  0  0  0  0
    0.0014    9.2886    2.8156 F   0  0  0  0  0  0  0  0  0  0  0  0
   -1.4787    8.5665    1.1348 C   0  0  0  0  0  0  0  0  0  0  0  0
   -2.6673    9.1109    1.8688 C   0  0  0  0  0  0  0  0  0  0  0  0
   -2.9360   10.5594    1.4538 C   0  0  0  0  0  0  0  0  0  0  0  0
   -1.5919    7.9404   -0.1015 C   0  0  0  0  0  0  0  0  0  0  0  0
   -2.8200    7.7898   -0.6398 F   0  0  0  0  0  0  0  0  0  0  0  0
   -0.5096    7.4535   -0.8061 C   0  0  0  0  0  0  0  0  0  0  0  0
    3.0668    7.8192   -1.2454 C   0  0  0  0  0  0  0  0  0  0  0  0
    4.1784    7.3288   -1.9764 C   0  0  0  0  0  0  0  0  0  0  0  0
    4.1805    6.0172   -2.4797 C   0  0  0  0  0  0  0  0  0  0  0  0
    5.3366    5.5031   -3.2263 C   0  0  0  0  0  0  0  0  0  0  0  0
    5.1686    4.9004   -4.4685 C   0  0  0  0  0  0  0  0  0  0  0  0
    6.2774    4.4787   -5.1755 C   0  0  0  0  0  0  0  0  0  0  0  0
    7.5803    4.6171   -4.7091 C   0  0  0  0  0  0  0  0  0  0  0  0
    8.7724    4.2147   -5.5245 C   0  0  0  0  0  0  0  0  0  0  0  0
    9.2231    5.3737   -6.4179 C   0  0  0  0  0  0  0  0  0  0  0  0
    7.7030    5.2026   -3.4540 C   0  0  0  0  0  0  0  0  0  0  0  0
    6.6235    5.6365   -2.7116 C   0  0  0  0  0  0  0  0  0  0  0  0
    8.9375    5.3610   -2.9318 F   0  0  0  0  0  0  0  0  0  0  0  0
    6.0838    3.9124   -6.3831 F   0  0  0  0  0  0  0  0  0  0  0  0
    3.0539    5.2526   -2.2242 C   0  0  0  0  0  0  0  0  0  0  0  0
    2.8447    3.5756   -2.6515 S   0  0  0  0  0  0  0  0  0  0  0  0
    5.1896    8.3092   -2.1163 C   0  0  0  0  0  0  0  0  0  0  0  0
    4.8986    9.4904   -1.4991 C   0  0  0  0  0  0  0  0  0  0  0  0
    3.3216    9.4701   -0.7413 S   0  0  0  0  0  0  0  0  0  0  0  0
    5.7686   10.6213   -1.4140 C   0  0  0  0  0  0  0  0  0  0  0  0
    7.0997   10.6198   -1.7109 C   0  0  0  0  0  0  0  0  0  0  0  0
    7.7244   11.8785   -1.5335 C   0  0  0  0  0  0  0  0  0  0  0  0
    9.0706   12.2077   -1.7571 C   0  0  0  0  0  0  0  0  0  0  0  0
   10.0069   11.2011   -2.2753 C   0  0  0  0  0  0  0  0  0  0  0  0
   11.2174   10.9555   -1.6359 C   0  0  0  0  0  0  0  0  0  0  0  0
   12.0519    9.9649   -2.1155 C   0  0  0  0  0  0  0  0  0  0  0  0
   13.2113    9.7416   -1.4657 F   0  0  0  0  0  0  0  0  0  0  0  0
   11.7468    9.1753   -3.2188 C   0  0  0  0  0  0  0  0  0  0  0  0
   12.6702    8.1094   -3.7282 C   0  0  0  0  0  0  0  0  0  0  0  0
   13.5984    8.6716   -4.8074 C   0  0  0  0  0  0  0  0  0  0  0  0
   10.5393    9.4685   -3.8424 C   0  0  0  0  0  0  0  0  0  0  0  0
   10.1793    8.7461   -4.9250 F   0  0  0  0  0  0  0  0  0  0  0  0
    9.6771   10.4513   -3.4016 C   0  0  0  0  0  0  0  0  0  0  0  0
    9.4494   13.5079   -1.4581 C   0  0  0  0  0  0  0  0  0  0  0  0
    8.5405   14.4869   -0.9852 C   0  0  0  0  0  0  0  0  0  0  0  0
    7.1921   14.1605   -0.7801 C   0  0  0  0  0  0  0  0  0  0  0  0
    6.2182   15.1589   -0.3157 C   0  0  0  0  0  0  0  0  0  0  0  0
    6.0817   16.3734   -0.9807 C   0  0  0  0  0  0  0  0  0  0  0  0
    5.1532   17.2924   -0.5340 C   0  0  0  0  0  0  0  0  0  0  0  0
    4.3288   17.0722    0.5636 C   0  0  0  0  0  0  0  0  0  0  0  0
    3.3558   18.1006    1.0586 C   0  0  0  0  0  0  0  0  0  0  0  0
    4.0021   18.9752    2.1357 C   0  0  0  0  0  0  0  0  0  0  0  0
    4.4982   15.8474    1.2002 C   0  0  0  0  0  0  0  0  0  0  0  0
    5.4095   14.8971    0.7855 C   0  0  0  0  0  0  0  0  0  0  0  0
    3.7346   15.5723    2.2759 F   0  0  0  0  0  0  0  0  0  0  0  0
    5.0408   18.4590   -1.2026 F   0  0  0  0  0  0  0  0  0  0  0  0
    6.8179   12.8513   -1.0451 C   0  0  0  0  0  0  0  0  0  0  0  0
    5.2123   12.1896   -0.8721 S   0  0  0  0  0  0  0  0  0  0  0  0
    9.1916   15.7357   -0.7543 C   0  0  0  0  0  0  0  0  0  0  0  0
   10.5041   15.7084   -1.0606 C   0  0  0  0  0  0  0  0  0  0  0  0
   11.0511   14.1733   -1.6414 S   0  0  0  0  0  0  0  0  0  0  0  0
   -7.5104  -19.6043    2.3841 H   0  0  0  0  0  0  0  0  0  0  0  0
   -5.3306  -20.2699    0.8483 H   0  0  0  0  0  0  0  0  0  0  0  0
   -3.2976  -21.3784    0.3846 H   0  0  0  0  0  0  0  0  0  0  0  0
   -4.2521  -21.0749   -1.0942 H   0  0  0  0  0  0  0  0  0  0  0  0
   -2.4836  -21.2675   -1.1965 H   0  0  0  0  0  0  0  0  0  0  0  0
   -1.1526  -15.6421   -0.9216 H   0  0  0  0  0  0  0  0  0  0  0  0
   -1.8472  -15.3133    0.6858 H   0  0  0  0  0  0  0  0  0  0  0  0
   -2.8214  -15.0332   -0.7831 H   0  0  0  0  0  0  0  0  0  0  0  0
   -4.1276  -15.4465    1.0897 H   0  0  0  0  0  0  0  0  0  0  0  0
   -8.1544  -15.6789    4.7657 H   0  0  0  0  0  0  0  0  0  0  0  0
  -10.1573  -16.0079    5.8995 H   0  0  0  0  0  0  0  0  0  0  0  0
  -10.3356  -15.6312    7.6330 H   0  0  0  0  0  0  0  0  0  0  0  0
   -8.7381  -16.0748    6.9807 H   0  0  0  0  0  0  0  0  0  0  0  0
   -8.0445   -9.8992    6.4783 H   0  0  0  0  0  0  0  0  0  0  0  0
   -9.4709   -9.8260    5.4067 H   0  0  0  0  0  0  0  0  0  0  0  0
   -9.6796   -9.8718    7.1735 H   0  0  0  0  0  0  0  0  0  0  0  0
   -7.5963  -10.7682    4.3656 H   0  0  0  0  0  0  0  0  0  0  0  0
   -7.3701   -9.6344    2.6948 H   0  0  0  0  0  0  0  0  0  0  0  0
   -7.9338   -5.6055    0.9495 H   0  0  0  0  0  0  0  0  0  0  0  0
  -10.5939   -6.0350    5.7036 H   0  0  0  0  0  0  0  0  0  0  0  0
  -11.2049   -5.1237    4.3083 H   0  0  0  0  0  0  0  0  0  0  0  0
  -10.7050   -3.6044    6.2069 H   0  0  0  0  0  0  0  0  0  0  0  0
   -9.0295   -4.1635    6.2325 H   0  0  0  0  0  0  0  0  0  0  0  0
   -9.6388   -3.2589    4.8418 H   0  0  0  0  0  0  0  0  0  0  0  0
   -6.5218   -7.9176    4.2793 H   0  0  0  0  0  0  0  0  0  0  0  0
   -3.5838  -10.3222   -1.6610 H   0  0  0  0  0  0  0  0  0  0  0  0
    0.8512  -11.1196   -3.0724 H   0  0  0  0  0  0  0  0  0  0  0  0
    1.8374   -9.9106   -2.2270 H   0  0  0  0  0  0  0  0  0  0  0  0
    1.0537   -8.1640   -3.8486 H   0  0  0  0  0  0  0  0  0  0  0  0
    1.8631   -9.5007   -4.6717 H   0  0  0  0  0  0  0  0  0  0  0  0
    0.1015   -9.3873   -4.6921 H   0  0  0  0  0  0  0  0  0  0  0  0
   -1.1608   -7.4789    0.4558 H   0  0  0  0  0  0  0  0  0  0  0  0
   -2.4315   -6.0538   -0.9568 H   0  0  0  0  0  0  0  0  0  0  0  0
   -1.2493   -4.1047   -1.0586 H   0  0  0  0  0  0  0  0  0  0  0  0
    2.3156   -1.4906   -0.7877 H   0  0  0  0  0  0  0  0  0  0  0  0
    4.5373   -5.3474   -2.2532 H   0  0  0  0  0  0  0  0  0  0  0  0
    3.3177   -6.2831   -3.1369 H   0  0  0  0  0  0  0  0  0  0  0  0
    4.9179   -3.9403   -4.2825 H   0  0  0  0  0  0  0  0  0  0  0  0
    5.2057   -5.6490   -4.6250 H   0  0  0  0  0  0  0  0  0  0  0  0
    3.7085   -4.8819   -5.1623 H   0  0  0  0  0  0  0  0  0  0  0  0
   -0.5210   -3.5366   -3.2804 H   0  0  0  0  0  0  0  0  0  0  0  0
   -2.2260    2.3536    1.0786 H   0  0  0  0  0  0  0  0  0  0  0  0
   -7.3043    4.1130    0.1570 H   0  0  0  0  0  0  0  0  0  0  0  0
   -6.1769    4.9015    1.2775 H   0  0  0  0  0  0  0  0  0  0  0  0
   -8.1495    3.9962    2.4883 H   0  0  0  0  0  0  0  0  0  0  0  0
   -7.7985    2.3767    1.8774 H   0  0  0  0  0  0  0  0  0  0  0  0
   -6.6780    3.1615    2.9963 H   0  0  0  0  0  0  0  0  0  0  0  0
   -4.9879    0.3869   -1.5568 H   0  0  0  0  0  0  0  0  0  0  0  0
   -1.3693    3.0118   -1.0724 H   0  0  0  0  0  0  0  0  0  0  0  0
    0.0669    4.8950   -0.7213 H   0  0  0  0  0  0  0  0  0  0  0  0
    1.9028    8.3343    1.4002 H   0  0  0  0  0  0  0  0  0  0  0  0
   -3.5423    8.4994    1.6429 H   0  0  0  0  0  0  0  0  0  0  0  0
   -2.4782    9.0706    2.9426 H   0  0  0  0  0  0  0  0  0  0  0  0
   -2.0753   11.1846    1.6802 H   0  0  0  0  0  0  0  0  0  0  0  0
   -3.7975   10.9465    1.9914 H   0  0  0  0  0  0  0  0  0  0  0  0
   -3.1377   10.6176    0.3865 H   0  0  0  0  0  0  0  0  0  0  0  0
   -0.6673    6.9935   -1.7689 H   0  0  0  0  0  0  0  0  0  0  0  0
    4.1886    4.7790   -4.9014 H   0  0  0  0  0  0  0  0  0  0  0  0
    9.5880    3.9309   -4.8575 H   0  0  0  0  0  0  0  0  0  0  0  0
    8.5125    3.3571   -6.1471 H   0  0  0  0  0  0  0  0  0  0  0  0
    8.4285    5.6521   -7.1063 H   0  0  0  0  0  0  0  0  0  0  0  0
    9.4816    6.2436   -5.8188 H   0  0  0  0  0  0  0  0  0  0  0  0
   10.0946    5.0794   -6.9966 H   0  0  0  0  0  0  0  0  0  0  0  0
    6.7895    6.0595   -1.7335 H   0  0  0  0  0  0  0  0  0  0  0  0
    6.0905    8.1474   -2.6774 H   0  0  0  0  0  0  0  0  0  0  0  0
    7.6317    9.7381   -2.0150 H   0  0  0  0  0  0  0  0  0  0  0  0
   11.5064   11.5087   -0.7569 H   0  0  0  0  0  0  0  0  0  0  0  0
   13.2669    7.7232   -2.9007 H   0  0  0  0  0  0  0  0  0  0  0  0
   12.0801    7.2918   -4.1459 H   0  0  0  0  0  0  0  0  0  0  0  0
   14.2641    7.8920   -5.1681 H   0  0  0  0  0  0  0  0  0  0  0  0
   13.0200    9.0501   -5.6471 H   0  0  0  0  0  0  0  0  0  0  0  0
   14.2002    9.4835   -4.4050 H   0  0  0  0  0  0  0  0  0  0  0  0
    8.7640   10.6381   -3.9446 H   0  0  0  0  0  0  0  0  0  0  0  0
    6.6751   16.5990   -1.8526 H   0  0  0  0  0  0  0  0  0  0  0  0
    2.4826   17.5980    1.4777 H   0  0  0  0  0  0  0  0  0  0  0  0
    3.0352   18.7273    0.2252 H   0  0  0  0  0  0  0  0  0  0  0  0
    3.2908   19.7170    2.4891 H   0  0  0  0  0  0  0  0  0  0  0  0
    4.8715   19.4917    1.7346 H   0  0  0  0  0  0  0  0  0  0  0  0
    4.3169   18.3664    2.9802 H   0  0  0  0  0  0  0  0  0  0  0  0
    5.4939   13.9721    1.3329 H   0  0  0  0  0  0  0  0  0  0  0  0
    8.6884   16.6010   -0.3633 H   0  0  0  0  0  0  0  0  0  0  0  0
   11.2161   16.5063   -0.9786 H   0  0  0  0  0  0  0  0  0  0  0  0
  1  2  1  0  0  0  0
  2  3  1  0  0  0  0
  3  4  2  0  0  0  0
  4  5  1  0  0  0  0
  5  6  1  0  0  0  0
  6  7  2  0  0  0  0
  7  8  1  0  0  0  0
  8  9  1  0  0  0  0
  7 10  1  0  0  0  0
 10 11  1  0  0  0  0
 11 12  1  0  0  0  0
 10 13  2  0  0  0  0
  3 14  1  0  0  0  0
 14 15  1  0  0  0  0
 15 16  1  0  0  0  0
 16 17  2  0  0  0  0
 17 18  1  0  0  0  0
 18 19  1  0  0  0  0
 19 20  2  0  0  0  0
 20 21  1  0  0  0  0
 21 22  1  0  0  0  0
 20 23  1  0  0  0  0
 23 24  1  0  0  0  0
 24 25  1  0  0  0  0
 23 26  2  0  0  0  0
 16 27  1  0  0  0  0
 27 28  2  0  0  0  0
 28 29  1  0  0  0  0
 29 30  2  0  0  0  0
 30 31  1  0  0  0  0
 31 32  2  0  0  0  0
 32 33  1  0  0  0  0
 33 34  1  0  0  0  0
 33 35  2  0  0  0  0
 35 36  1  0  0  0  0
 36 37  1  0  0  0  0
 35 38  1  0  0  0  0
 38 39  1  0  0  0  0
 38 40  2  0  0  0  0
 30 41  1  0  0  0  0
 41 42  2  0  0  0  0
 42 43  1  0  0  0  0
 43 44  1  0  0  0  0
 44 45  2  0  0  0  0
 45 46  1  0  0  0  0
 46 47  2  0  0  0  0
 47 48  1  0  0  0  0
 48 49  1  0  0  0  0
 47 50  1  0  0  0  0
 50 51  2  0  0  0  0
 50 52  1  0  0  0  0
 46 53  1  0  0  0  0
 43 54  2  0  0  0  0
 54 55  1  0  0  0  0
 42 56  1  0  0  0  0
 56 57  2  0  0  0  0
 57 58  1  0  0  0  0
 57 59  1  0  0  0  0
 59 60  2  0  0  0  0
 60 61  1  0  0  0  0
 61 62  2  0  0  0  0
 62 63  1  0  0  0  0
 63 64  2  0  0  0  0
 64 65  1  0  0  0  0
 65 66  1  0  0  0  0
 65 67  2  0  0  0  0
 67 68  1  0  0  0  0
 68 69  1  0  0  0  0
 67 70  1  0  0  0  0
 70 71  1  0  0  0  0
 70 72  2  0  0  0  0
 62 73  1  0  0  0  0
 73 74  2  0  0  0  0
 74 75  1  0  0  0  0
 75 76  1  0  0  0  0
 76 77  2  0  0  0  0
 77 78  1  0  0  0  0
 78 79  2  0  0  0  0
 79 80  1  0  0  0  0
 80 81  1  0  0  0  0
 79 82  1  0  0  0  0
 82 83  2  0  0  0  0
 82 84  1  0  0  0  0
 78 85  1  0  0  0  0
 75 86  2  0  0  0  0
 86 87  1  0  0  0  0
 74 88  1  0  0  0  0
 88 89  2  0  0  0  0
 89 90  1  0  0  0  0
 89 91  1  0  0  0  0
 91 92  2  0  0  0  0
 92 93  1  0  0  0  0
 93 94  2  0  0  0  0
 94 95  1  0  0  0  0
 95 96  2  0  0  0  0
 96 97  1  0  0  0  0
 97 98  1  0  0  0  0
 97 99  2  0  0  0  0
 99100  1  0  0  0  0
100101  1  0  0  0  0
 99102  1  0  0  0  0
102103  1  0  0  0  0
102104  2  0  0  0  0
 94105  1  0  0  0  0
105106  2  0  0  0  0
106107  1  0  0  0  0
107108  1  0  0  0  0
108109  2  0  0  0  0
109110  1  0  0  0  0
110111  2  0  0  0  0
111112  1  0  0  0  0
112113  1  0  0  0  0
111114  1  0  0  0  0
114115  2  0  0  0  0
114116  1  0  0  0  0
110117  1  0  0  0  0
107118  2  0  0  0  0
118119  1  0  0  0  0
106120  1  0  0  0  0
120121  2  0  0  0  0
121122  1  0  0  0  0
121123  1  0  0  0  0
123124  2  0  0  0  0
124125  1  0  0  0  0
125126  2  0  0  0  0
126127  1  0  0  0  0
127128  2  0  0  0  0
128129  1  0  0  0  0
129130  1  0  0  0  0
129131  2  0  0  0  0
131132  1  0  0  0  0
132133  1  0  0  0  0
131134  1  0  0  0  0
134135  1  0  0  0  0
134136  2  0  0  0  0
126137  1  0  0  0  0
137138  2  0  0  0  0
138139  1  0  0  0  0
139140  1  0  0  0  0
140141  2  0  0  0  0
141142  1  0  0  0  0
142143  2  0  0  0  0
143144  1  0  0  0  0
144145  1  0  0  0  0
143146  1  0  0  0  0
146147  2  0  0  0  0
146148  1  0  0  0  0
142149  1  0  0  0  0
139150  2  0  0  0  0
150151  1  0  0  0  0
138152  1  0  0  0  0
152153  2  0  0  0  0
153154  1  0  0  0  0
  5  1  2  0  0  0  0
 18 14  2  0  0  0  0
 55 27  1  0  0  0  0
 87 59  1  0  0  0  0
119 91  1  0  0  0  0
151123  1  0  0  0  0
 13  4  1  0  0  0  0
 26 17  1  0  0  0  0
 54 29  1  0  0  0  0
 86 61  1  0  0  0  0
118 93  1  0  0  0  0
150125  1  0  0  0  0
 40 31  1  0  0  0  0
 58 41  1  0  0  0  0
 72 63  1  0  0  0  0
 90 73  1  0  0  0  0
104 95  1  0  0  0  0
122105  1  0  0  0  0
136127  1  0  0  0  0
154137  1  0  0  0  0
 51 44  1  0  0  0  0
 83 76  1  0  0  0  0
115108  1  0  0  0  0
147140  1  0  0  0  0
  1155  1  0  0  0  0
  6156  1  0  0  0  0
  9157  1  0  0  0  0
  9158  1  0  0  0  0
  9159  1  0  0  0  0
 12160  1  0  0  0  0
 12161  1  0  0  0  0
 12162  1  0  0  0  0
 13163  1  0  0  0  0
 19164  1  0  0  0  0
 22165  1  0  0  0  0
 22166  1  0  0  0  0
 22167  1  0  0  0  0
 25168  1  0  0  0  0
 25169  1  0  0  0  0
 25170  1  0  0  0  0
 26171  1  0  0  0  0
 28172  1  0  0  0  0
 32173  1  0  0  0  0
 36174  1  0  0  0  0
 36175  1  0  0  0  0
 37176  1  0  0  0  0
 37177  1  0  0  0  0
 37178  1  0  0  0  0
 40179  1  0  0  0  0
 45180  1  0  0  0  0
 48181  1  0  0  0  0
 48182  1  0  0  0  0
 49183  1  0  0  0  0
 49184  1  0  0  0  0
 49185  1  0  0  0  0
 51186  1  0  0  0  0
 56187  1  0  0  0  0
 60188  1  0  0  0  0
 64189  1  0  0  0  0
 68190  1  0  0  0  0
 68191  1  0  0  0  0
 69192  1  0  0  0  0
 69193  1  0  0  0  0
 69194  1  0  0  0  0
 72195  1  0  0  0  0
 77196  1  0  0  0  0
 80197  1  0  0  0  0
 80198  1  0  0  0  0
 81199  1  0  0  0  0
 81200  1  0  0  0  0
 81201  1  0  0  0  0
 83202  1  0  0  0  0
 88203  1  0  0  0  0
 92204  1  0  0  0  0
 96205  1  0  0  0  0
100206  1  0  0  0  0
100207  1  0  0  0  0
101208  1  0  0  0  0
101209  1  0  0  0  0
101210  1  0  0  0  0
104211  1  0  0  0  0
109212  1  0  0  0  0
112213  1  0  0  0  0
112214  1  0  0  0  0
113215  1  0  0  0  0
113216  1  0  0  0  0
113217  1  0  0  0  0
115218  1  0  0  0  0
120219  1  0  0  0  0
124220  1  0  0  0  0
128221  1  0  0  0  0
132222  1  0  0  0  0
132223  1  0  0  0  0
133224  1  0  0  0  0
133225  1  0  0  0  0
133226  1  0  0  0  0
136227  1  0  0  0  0
141228  1  0  0  0  0
144229  1  0  0  0  0
144230  1  0  0  0  0
145231  1  0  0  0  0
145232  1  0  0  0  0
145233  1  0  0  0  0
147234  1  0  0  0  0
152235  1  0  0  0  0
153236  1  0  0  0  0
M  END
