
  xtb     03052201103D
 energy: -525.080193032801 gnorm: 0.000420615896 xtb: 6.4.1 (unknown)
302331  0     0  0            999 V2000
    0.8460   -4.4838   12.7129 C   0  0  0  0  0  0  0  0  0  0  0  0
    2.0015   -4.8321   12.1124 C   0  0  0  0  0  0  0  0  0  0  0  0
    1.8773   -4.9518   10.6958 C   0  0  0  0  0  0  0  0  0  0  0  0
    2.8667   -5.2920    9.7621 C   0  0  0  0  0  0  0  0  0  0  0  0
    4.2285   -5.6493   10.1806 C   0  0  0  0  0  0  0  0  0  0  0  0
    5.3457   -5.0397    9.6132 C   0  0  0  0  0  0  0  0  0  0  0  0
    6.6157   -5.3826   10.0236 C   0  0  0  0  0  0  0  0  0  0  0  0
    6.8289   -6.3559   10.9990 C   0  0  0  0  0  0  0  0  0  0  0  0
    8.5099   -6.7325   11.3948 S   0  0  0  0  0  0  0  0  0  0  0  0
    8.4967   -7.1085   13.1868 C   0  0  0  0  0  0  0  0  0  0  0  0
    7.9616   -5.9532   14.0088 C   0  0  0  0  0  0  0  0  0  0  0  0
    5.7048   -6.9814   11.5299 C   0  0  0  0  0  0  0  0  0  0  0  0
    5.8227   -7.9689   12.4467 F   0  0  0  0  0  0  0  0  0  0  0  0
    4.4263   -6.6290   11.1478 C   0  0  0  0  0  0  0  0  0  0  0  0
    2.4875   -5.2970    8.4278 C   0  0  0  0  0  0  0  0  0  0  0  0
    1.1645   -5.0307    7.9937 C   0  0  0  0  0  0  0  0  0  0  0  0
    0.1740   -4.6926    8.9296 C   0  0  0  0  0  0  0  0  0  0  0  0
   -1.2066   -4.3969    8.5286 C   0  0  0  0  0  0  0  0  0  0  0  0
   -1.8401   -3.2293    8.9551 C   0  0  0  0  0  0  0  0  0  0  0  0
   -3.1320   -2.9538    8.5719 C   0  0  0  0  0  0  0  0  0  0  0  0
   -3.8608   -3.8248    7.7575 C   0  0  0  0  0  0  0  0  0  0  0  0
   -5.4781   -3.2540    7.3489 S   0  0  0  0  0  0  0  0  0  0  0  0
   -6.3605   -4.6080    6.4843 C   0  0  0  0  0  0  0  0  0  0  0  0
   -6.0755   -4.6448    4.9970 C   0  0  0  0  0  0  0  0  0  0  0  0
   -3.2247   -4.9975    7.3636 C   0  0  0  0  0  0  0  0  0  0  0  0
   -1.9227   -5.2790    7.7306 C   0  0  0  0  0  0  0  0  0  0  0  0
   -3.8493   -5.9301    6.6125 F   0  0  0  0  0  0  0  0  0  0  0  0
    0.5660   -4.6460   10.2605 C   0  0  0  0  0  0  0  0  0  0  0  0
   -0.4715   -4.2660   11.6122 S   0  0  0  0  0  0  0  0  0  0  0  0
    1.0428   -5.1254    6.5818 C   0  0  0  0  0  0  0  0  0  0  0  0
    2.2087   -5.4504    5.9573 C   0  0  0  0  0  0  0  0  0  0  0  0
    3.5361   -5.6659    7.0840 S   0  0  0  0  0  0  0  0  0  0  0  0
    2.4425   -5.5878    4.5547 C   0  0  0  0  0  0  0  0  0  0  0  0
    3.6368   -5.5392    3.8996 C   0  0  0  0  0  0  0  0  0  0  0  0
    3.5185   -5.6349    2.4889 C   0  0  0  0  0  0  0  0  0  0  0  0
    4.5277   -5.4700    1.5227 C   0  0  0  0  0  0  0  0  0  0  0  0
    5.9331   -5.2745    1.8973 C   0  0  0  0  0  0  0  0  0  0  0  0
    6.6786   -4.2335    1.3529 C   0  0  0  0  0  0  0  0  0  0  0  0
    8.0114   -4.0597    1.6713 C   0  0  0  0  0  0  0  0  0  0  0  0
    8.6503   -4.9240    2.5520 C   0  0  0  0  0  0  0  0  0  0  0  0
   10.3432   -4.8493    3.0281 S   0  0  0  0  0  0  0  0  0  0  0  0
   11.0020   -3.3908    2.1484 C   0  0  0  0  0  0  0  0  0  0  0  0
   10.6330   -2.0839    2.8259 C   0  0  0  0  0  0  0  0  0  0  0  0
    7.8877   -5.9597    3.0988 C   0  0  0  0  0  0  0  0  0  0  0  0
    8.4759   -6.8184    3.9547 F   0  0  0  0  0  0  0  0  0  0  0  0
    6.5597   -6.1441    2.7890 C   0  0  0  0  0  0  0  0  0  0  0  0
    4.1221   -5.4654    0.1958 C   0  0  0  0  0  0  0  0  0  0  0  0
    2.7791   -5.6758   -0.1985 C   0  0  0  0  0  0  0  0  0  0  0  0
    1.7675   -5.8220    0.7643 C   0  0  0  0  0  0  0  0  0  0  0  0
    0.3604   -5.8825    0.3532 C   0  0  0  0  0  0  0  0  0  0  0  0
   -0.1365   -4.9102   -0.5107 C   0  0  0  0  0  0  0  0  0  0  0  0
   -1.4470   -4.9268   -0.9405 C   0  0  0  0  0  0  0  0  0  0  0  0
   -2.3135   -5.9319   -0.5260 C   0  0  0  0  0  0  0  0  0  0  0  0
   -3.9993   -6.0651   -1.0056 S   0  0  0  0  0  0  0  0  0  0  0  0
   -4.1658   -4.8943   -2.3995 C   0  0  0  0  0  0  0  0  0  0  0  0
   -3.4571   -5.3708   -3.6520 C   0  0  0  0  0  0  0  0  0  0  0  0
   -1.8102   -6.8890    0.3597 C   0  0  0  0  0  0  0  0  0  0  0  0
   -0.5056   -6.8752    0.8046 C   0  0  0  0  0  0  0  0  0  0  0  0
   -2.6264   -7.8682    0.7940 F   0  0  0  0  0  0  0  0  0  0  0  0
    2.1660   -5.7906    2.0902 C   0  0  0  0  0  0  0  0  0  0  0  0
    1.0915   -5.8061    3.4632 S   0  0  0  0  0  0  0  0  0  0  0  0
    2.6237   -5.6328   -1.6052 C   0  0  0  0  0  0  0  0  0  0  0  0
    3.7695   -5.3216   -2.2744 C   0  0  0  0  0  0  0  0  0  0  0  0
    5.1435   -5.1730   -1.1947 S   0  0  0  0  0  0  0  0  0  0  0  0
    3.8376   -4.8999   -3.6361 C   0  0  0  0  0  0  0  0  0  0  0  0
    4.7702   -4.0914   -4.2136 C   0  0  0  0  0  0  0  0  0  0  0  0
    4.3457   -3.5257   -5.4455 C   0  0  0  0  0  0  0  0  0  0  0  0
    4.9402   -2.4488   -6.1294 C   0  0  0  0  0  0  0  0  0  0  0  0
    6.2707   -1.9814   -5.7195 C   0  0  0  0  0  0  0  0  0  0  0  0
    7.3249   -2.8905   -5.6359 C   0  0  0  0  0  0  0  0  0  0  0  0
    8.5682   -2.4876   -5.1964 C   0  0  0  0  0  0  0  0  0  0  0  0
    8.8018   -1.1693   -4.8186 C   0  0  0  0  0  0  0  0  0  0  0  0
   10.4242   -0.7231   -4.2541 S   0  0  0  0  0  0  0  0  0  0  0  0
   10.0483    0.0657   -2.6440 C   0  0  0  0  0  0  0  0  0  0  0  0
    9.4256   -0.9177   -1.6718 C   0  0  0  0  0  0  0  0  0  0  0  0
    7.7526   -0.2646   -4.9414 C   0  0  0  0  0  0  0  0  0  0  0  0
    7.9290    1.0336   -4.6185 F   0  0  0  0  0  0  0  0  0  0  0  0
    6.5011   -0.6541   -5.3757 C   0  0  0  0  0  0  0  0  0  0  0  0
    4.1732   -1.8377   -7.1090 C   0  0  0  0  0  0  0  0  0  0  0  0
    2.9004   -2.3256   -7.5023 C   0  0  0  0  0  0  0  0  0  0  0  0
    2.3166   -3.4198   -6.8435 C   0  0  0  0  0  0  0  0  0  0  0  0
    0.9277   -3.8386   -7.0722 C   0  0  0  0  0  0  0  0  0  0  0  0
   -0.1216   -2.9176   -7.0390 C   0  0  0  0  0  0  0  0  0  0  0  0
   -1.4282   -3.3332   -7.1461 C   0  0  0  0  0  0  0  0  0  0  0  0
   -1.7558   -4.6825   -7.3087 C   0  0  0  0  0  0  0  0  0  0  0  0
   -3.4741   -5.0302   -7.4398 S   0  0  0  0  0  0  0  0  0  0  0  0
   -3.6482   -6.8407   -7.1804 C   0  0  0  0  0  0  0  0  0  0  0  0
   -5.1152   -7.1480   -6.9496 C   0  0  0  0  0  0  0  0  0  0  0  0
   -0.6984   -5.5856   -7.3704 C   0  0  0  0  0  0  0  0  0  0  0  0
    0.6156   -5.1824   -7.2366 C   0  0  0  0  0  0  0  0  0  0  0  0
   -0.9083   -6.9086   -7.5685 F   0  0  0  0  0  0  0  0  0  0  0  0
    3.0581   -3.9798   -5.8156 C   0  0  0  0  0  0  0  0  0  0  0  0
    2.4357   -5.1375   -4.6674 S   0  0  0  0  0  0  0  0  0  0  0  0
    2.2773   -1.4804   -8.4492 C   0  0  0  0  0  0  0  0  0  0  0  0
    2.9637   -0.3251   -8.6923 C   0  0  0  0  0  0  0  0  0  0  0  0
    4.5362   -0.3245   -7.9111 S   0  0  0  0  0  0  0  0  0  0  0  0
    2.3328    0.8819   -9.1280 C   0  0  0  0  0  0  0  0  0  0  0  0
    2.6256    2.1516   -8.7209 C   0  0  0  0  0  0  0  0  0  0  0  0
    1.4916    3.0094   -8.6909 C   0  0  0  0  0  0  0  0  0  0  0  0
    1.4007    4.2419   -8.0132 C   0  0  0  0  0  0  0  0  0  0  0  0
    2.6248    4.9679   -7.6628 C   0  0  0  0  0  0  0  0  0  0  0  0
    3.6089    5.1513   -8.6331 C   0  0  0  0  0  0  0  0  0  0  0  0
    4.7771    5.8328   -8.3552 C   0  0  0  0  0  0  0  0  0  0  0  0
    5.0111    6.3553   -7.0877 C   0  0  0  0  0  0  0  0  0  0  0  0
    6.4551    7.2229   -6.5796 S   0  0  0  0  0  0  0  0  0  0  0  0
    7.3466    7.5696   -8.1346 C   0  0  0  0  0  0  0  0  0  0  0  0
    6.6656    8.6427   -8.9628 C   0  0  0  0  0  0  0  0  0  0  0  0
    4.0251    6.1485   -6.1204 C   0  0  0  0  0  0  0  0  0  0  0  0
    4.2277    6.6174   -4.8730 F   0  0  0  0  0  0  0  0  0  0  0  0
    2.8542    5.4764   -6.3857 C   0  0  0  0  0  0  0  0  0  0  0  0
    0.1215    4.6258   -7.6276 C   0  0  0  0  0  0  0  0  0  0  0  0
   -1.0390    3.9277   -8.0405 C   0  0  0  0  0  0  0  0  0  0  0  0
   -0.9542    2.8201   -8.8985 C   0  0  0  0  0  0  0  0  0  0  0  0
   -2.1705    2.1327   -9.3524 C   0  0  0  0  0  0  0  0  0  0  0  0
   -3.1581    2.8430  -10.0279 C   0  0  0  0  0  0  0  0  0  0  0  0
   -4.3070    2.2213  -10.4785 C   0  0  0  0  0  0  0  0  0  0  0  0
   -4.5183    0.8660  -10.2506 C   0  0  0  0  0  0  0  0  0  0  0  0
   -5.9132   -0.0660  -10.7831 S   0  0  0  0  0  0  0  0  0  0  0  0
   -7.0964    1.1877  -11.3851 C   0  0  0  0  0  0  0  0  0  0  0  0
   -7.7416    1.9649  -10.2530 C   0  0  0  0  0  0  0  0  0  0  0  0
   -3.5259    0.1700   -9.5558 C   0  0  0  0  0  0  0  0  0  0  0  0
   -2.3725    0.7752   -9.1122 C   0  0  0  0  0  0  0  0  0  0  0  0
   -3.7007   -1.1410   -9.3056 F   0  0  0  0  0  0  0  0  0  0  0  0
    0.3233    2.3469   -9.1407 C   0  0  0  0  0  0  0  0  0  0  0  0
    0.6961    0.7594   -9.7634 S   0  0  0  0  0  0  0  0  0  0  0  0
   -2.1717    4.2583   -7.2504 C   0  0  0  0  0  0  0  0  0  0  0  0
   -1.9064    5.1545   -6.2643 C   0  0  0  0  0  0  0  0  0  0  0  0
   -0.2793    5.8101   -6.3985 S   0  0  0  0  0  0  0  0  0  0  0  0
   -2.5889    5.1466   -4.9894 C   0  0  0  0  0  0  0  0  0  0  0  0
   -2.6969    3.9606   -4.3313 C   0  0  0  0  0  0  0  0  0  0  0  0
   -3.2078    4.0738   -3.0166 C   0  0  0  0  0  0  0  0  0  0  0  0
   -3.2683    3.0606   -2.0486 C   0  0  0  0  0  0  0  0  0  0  0  0
   -2.8015    1.7032   -2.3642 C   0  0  0  0  0  0  0  0  0  0  0  0
   -1.8077    1.1039   -1.5947 C   0  0  0  0  0  0  0  0  0  0  0  0
   -1.2798   -0.1239   -1.9426 C   0  0  0  0  0  0  0  0  0  0  0  0
   -1.7215   -0.7943   -3.0770 C   0  0  0  0  0  0  0  0  0  0  0  0
   -1.0872   -2.3549   -3.6234 S   0  0  0  0  0  0  0  0  0  0  0  0
    0.6655   -2.2905   -3.1173 C   0  0  0  0  0  0  0  0  0  0  0  0
    1.4490   -1.2296   -3.8633 C   0  0  0  0  0  0  0  0  0  0  0  0
   -2.7518   -0.2078   -3.8110 C   0  0  0  0  0  0  0  0  0  0  0  0
   -3.2267   -0.8418   -4.9010 F   0  0  0  0  0  0  0  0  0  0  0  0
   -3.2881    1.0168   -3.4746 C   0  0  0  0  0  0  0  0  0  0  0  0
   -3.6927    3.4436   -0.7887 C   0  0  0  0  0  0  0  0  0  0  0  0
   -4.0820    4.7693   -0.4678 C   0  0  0  0  0  0  0  0  0  0  0  0
   -3.9820    5.7882   -1.4334 C   0  0  0  0  0  0  0  0  0  0  0  0
   -4.2897    7.1861   -1.1152 C   0  0  0  0  0  0  0  0  0  0  0  0
   -5.1003    7.9470   -1.9526 C   0  0  0  0  0  0  0  0  0  0  0  0
   -5.3848    9.2682   -1.6676 C   0  0  0  0  0  0  0  0  0  0  0  0
   -4.8549    9.8838   -0.5392 C   0  0  0  0  0  0  0  0  0  0  0  0
   -5.1424   11.5495   -0.0484 S   0  0  0  0  0  0  0  0  0  0  0  0
   -5.8344   12.3429   -1.5399 C   0  0  0  0  0  0  0  0  0  0  0  0
   -4.8016   12.5002   -2.6398 C   0  0  0  0  0  0  0  0  0  0  0  0
   -4.0441    9.1080    0.2925 C   0  0  0  0  0  0  0  0  0  0  0  0
   -3.7597    7.7889    0.0250 C   0  0  0  0  0  0  0  0  0  0  0  0
   -3.5123    9.6699    1.3966 F   0  0  0  0  0  0  0  0  0  0  0  0
   -3.5334    5.4112   -2.6935 C   0  0  0  0  0  0  0  0  0  0  0  0
   -3.1668    6.4865   -4.0304 S   0  0  0  0  0  0  0  0  0  0  0  0
   -4.5263    4.8682    0.8787 C   0  0  0  0  0  0  0  0  0  0  0  0
   -4.4409    3.6979    1.5705 C   0  0  0  0  0  0  0  0  0  0  0  0
   -3.8373    2.3805    0.5814 S   0  0  0  0  0  0  0  0  0  0  0  0
   -4.7309    3.4331    2.9425 C   0  0  0  0  0  0  0  0  0  0  0  0
   -4.4430    2.2837    3.6150 C   0  0  0  0  0  0  0  0  0  0  0  0
   -4.8165    2.3116    4.9817 C   0  0  0  0  0  0  0  0  0  0  0  0
   -4.6056    1.3188    5.9517 C   0  0  0  0  0  0  0  0  0  0  0  0
   -3.9983    0.0343    5.5857 C   0  0  0  0  0  0  0  0  0  0  0  0
   -2.8925   -0.4686    6.2665 C   0  0  0  0  0  0  0  0  0  0  0  0
   -2.2975   -1.6453    5.8639 C   0  0  0  0  0  0  0  0  0  0  0  0
   -2.7929   -2.3775    4.7877 C   0  0  0  0  0  0  0  0  0  0  0  0
   -1.9779   -3.8968    4.3904 S   0  0  0  0  0  0  0  0  0  0  0  0
   -1.9732   -3.9241    2.5640 C   0  0  0  0  0  0  0  0  0  0  0  0
   -1.2944   -2.7009    1.9831 C   0  0  0  0  0  0  0  0  0  0  0  0
   -3.9206   -1.8821    4.1406 C   0  0  0  0  0  0  0  0  0  0  0  0
   -4.4772   -2.5440    3.1024 F   0  0  0  0  0  0  0  0  0  0  0  0
   -4.5097   -0.6934    4.5162 C   0  0  0  0  0  0  0  0  0  0  0  0
   -4.9953    1.6241    7.2467 C   0  0  0  0  0  0  0  0  0  0  0  0
   -5.6008    2.8545    7.6012 C   0  0  0  0  0  0  0  0  0  0  0  0
   -5.8090    3.8466    6.6316 C   0  0  0  0  0  0  0  0  0  0  0  0
   -6.4025    5.1473    6.9670 C   0  0  0  0  0  0  0  0  0  0  0  0
   -5.8813    5.9288    7.9935 C   0  0  0  0  0  0  0  0  0  0  0  0
   -6.4192    7.1656    8.2926 C   0  0  0  0  0  0  0  0  0  0  0  0
   -7.5000    7.6648    7.5745 C   0  0  0  0  0  0  0  0  0  0  0  0
   -8.2921    9.2107    7.8714 S   0  0  0  0  0  0  0  0  0  0  0  0
   -7.0442   10.1742    8.7939 C   0  0  0  0  0  0  0  0  0  0  0  0
   -5.8371   10.5149    7.9414 C   0  0  0  0  0  0  0  0  0  0  0  0
   -8.0208    6.8633    6.5571 C   0  0  0  0  0  0  0  0  0  0  0  0
   -7.4898    5.6325    6.2442 C   0  0  0  0  0  0  0  0  0  0  0  0
   -9.0813    7.3050    5.8532 F   0  0  0  0  0  0  0  0  0  0  0  0
   -5.4099    3.5469    5.3375 C   0  0  0  0  0  0  0  0  0  0  0  0
   -5.4960    4.6298    3.9687 S   0  0  0  0  0  0  0  0  0  0  0  0
   -5.9651    2.8791    8.9806 C   0  0  0  0  0  0  0  0  0  0  0  0
   -5.6406    1.7426    9.6294 C   0  0  0  0  0  0  0  0  0  0  0  0
   -4.8750    0.5611    8.6231 S   0  0  0  0  0  0  0  0  0  0  0  0
    0.6681   -4.3278   13.7590 H   0  0  0  0  0  0  0  0  0  0  0  0
    2.9243   -4.9893   12.6405 H   0  0  0  0  0  0  0  0  0  0  0  0
    5.2154   -4.2726    8.8658 H   0  0  0  0  0  0  0  0  0  0  0  0
    7.4777   -4.8988    9.5916 H   0  0  0  0  0  0  0  0  0  0  0  0
    7.9351   -8.0246   13.3551 H   0  0  0  0  0  0  0  0  0  0  0  0
    9.5485   -7.2922   13.4070 H   0  0  0  0  0  0  0  0  0  0  0  0
    8.5251   -5.0453   13.8039 H   0  0  0  0  0  0  0  0  0  0  0  0
    6.9135   -5.7678   13.7822 H   0  0  0  0  0  0  0  0  0  0  0  0
    8.0467   -6.1874   15.0680 H   0  0  0  0  0  0  0  0  0  0  0  0
    3.5912   -7.1547   11.5851 H   0  0  0  0  0  0  0  0  0  0  0  0
   -1.3064   -2.5226    9.5715 H   0  0  0  0  0  0  0  0  0  0  0  0
   -3.6132   -2.0425    8.8914 H   0  0  0  0  0  0  0  0  0  0  0  0
   -7.4101   -4.3771    6.6717 H   0  0  0  0  0  0  0  0  0  0  0  0
   -6.1138   -5.5447    6.9769 H   0  0  0  0  0  0  0  0  0  0  0  0
   -6.3501   -3.7002    4.5339 H   0  0  0  0  0  0  0  0  0  0  0  0
   -5.0241   -4.8381    4.8042 H   0  0  0  0  0  0  0  0  0  0  0  0
   -6.6561   -5.4405    4.5351 H   0  0  0  0  0  0  0  0  0  0  0  0
   -1.4895   -6.2097    7.3991 H   0  0  0  0  0  0  0  0  0  0  0  0
    0.1300   -4.9315    6.0463 H   0  0  0  0  0  0  0  0  0  0  0  0
    4.5703   -5.3916    4.4126 H   0  0  0  0  0  0  0  0  0  0  0  0
    6.2074   -3.5321    0.6818 H   0  0  0  0  0  0  0  0  0  0  0  0
    8.5463   -3.2416    1.2179 H   0  0  0  0  0  0  0  0  0  0  0  0
   12.0810   -3.5434    2.1725 H   0  0  0  0  0  0  0  0  0  0  0  0
   10.6689   -3.4356    1.1125 H   0  0  0  0  0  0  0  0  0  0  0  0
   11.0696   -1.2486    2.2812 H   0  0  0  0  0  0  0  0  0  0  0  0
   11.0136   -2.0711    3.8443 H   0  0  0  0  0  0  0  0  0  0  0  0
    9.5543   -1.9497    2.8644 H   0  0  0  0  0  0  0  0  0  0  0  0
    6.0297   -6.9781    3.2215 H   0  0  0  0  0  0  0  0  0  0  0  0
    0.5163   -4.1136   -0.8321 H   0  0  0  0  0  0  0  0  0  0  0  0
   -1.7880   -4.1490   -1.6036 H   0  0  0  0  0  0  0  0  0  0  0  0
   -3.8263   -3.9110   -2.0777 H   0  0  0  0  0  0  0  0  0  0  0  0
   -5.2433   -4.8513   -2.5591 H   0  0  0  0  0  0  0  0  0  0  0  0
   -2.3832   -5.4452   -3.4951 H   0  0  0  0  0  0  0  0  0  0  0  0
   -3.8331   -6.3494   -3.9411 H   0  0  0  0  0  0  0  0  0  0  0  0
   -3.6348   -4.6671   -4.4628 H   0  0  0  0  0  0  0  0  0  0  0  0
   -0.1693   -7.6473    1.4784 H   0  0  0  0  0  0  0  0  0  0  0  0
    1.6849   -5.7912   -2.1051 H   0  0  0  0  0  0  0  0  0  0  0  0
    5.6903   -3.8272   -3.7230 H   0  0  0  0  0  0  0  0  0  0  0  0
    7.1626   -3.9191   -5.9202 H   0  0  0  0  0  0  0  0  0  0  0  0
    9.3811   -3.1935   -5.1283 H   0  0  0  0  0  0  0  0  0  0  0  0
   11.0201    0.4080   -2.2897 H   0  0  0  0  0  0  0  0  0  0  0  0
    9.4095    0.9290   -2.8163 H   0  0  0  0  0  0  0  0  0  0  0  0
    9.2752   -0.4363   -0.7070 H   0  0  0  0  0  0  0  0  0  0  0  0
   10.0755   -1.7802   -1.5378 H   0  0  0  0  0  0  0  0  0  0  0  0
    8.4613   -1.2664   -2.0388 H   0  0  0  0  0  0  0  0  0  0  0  0
    5.7152    0.0831   -5.4275 H   0  0  0  0  0  0  0  0  0  0  0  0
    0.0866   -1.8694   -6.8862 H   0  0  0  0  0  0  0  0  0  0  0  0
   -2.2354   -2.6194   -7.0949 H   0  0  0  0  0  0  0  0  0  0  0  0
   -3.0479   -7.1105   -6.3136 H   0  0  0  0  0  0  0  0  0  0  0  0
   -3.2750   -7.3542   -8.0648 H   0  0  0  0  0  0  0  0  0  0  0  0
   -5.4876   -6.6081   -6.0820 H   0  0  0  0  0  0  0  0  0  0  0  0
   -5.2451   -8.2149   -6.7818 H   0  0  0  0  0  0  0  0  0  0  0  0
   -5.7064   -6.8561   -7.8146 H   0  0  0  0  0  0  0  0  0  0  0  0
    1.3903   -5.9319   -7.2885 H   0  0  0  0  0  0  0  0  0  0  0  0
    1.3084   -1.6806   -8.8688 H   0  0  0  0  0  0  0  0  0  0  0  0
    3.5776    2.4229   -8.2994 H   0  0  0  0  0  0  0  0  0  0  0  0
    3.4483    4.7659   -9.6290 H   0  0  0  0  0  0  0  0  0  0  0  0
    5.5092    5.9465   -9.1378 H   0  0  0  0  0  0  0  0  0  0  0  0
    7.4735    6.6354   -8.6800 H   0  0  0  0  0  0  0  0  0  0  0  0
    8.3260    7.9069   -7.7953 H   0  0  0  0  0  0  0  0  0  0  0  0
    7.2447    8.8387   -9.8632 H   0  0  0  0  0  0  0  0  0  0  0  0
    6.5892    9.5644   -8.3909 H   0  0  0  0  0  0  0  0  0  0  0  0
    5.6627    8.3373   -9.2534 H   0  0  0  0  0  0  0  0  0  0  0  0
    2.1458    5.3347   -5.5859 H   0  0  0  0  0  0  0  0  0  0  0  0
   -3.0154    3.8962  -10.2195 H   0  0  0  0  0  0  0  0  0  0  0  0
   -5.0343    2.8058  -11.0178 H   0  0  0  0  0  0  0  0  0  0  0  0
   -6.5880    1.8328  -12.1004 H   0  0  0  0  0  0  0  0  0  0  0  0
   -7.8405    0.5977  -11.9203 H   0  0  0  0  0  0  0  0  0  0  0  0
   -8.4642    2.6730  -10.6544 H   0  0  0  0  0  0  0  0  0  0  0  0
   -6.9978    2.5139   -9.6795 H   0  0  0  0  0  0  0  0  0  0  0  0
   -8.2579    1.2848   -9.5797 H   0  0  0  0  0  0  0  0  0  0  0  0
   -1.6559    0.1868   -8.5626 H   0  0  0  0  0  0  0  0  0  0  0  0
   -3.1140    3.7479   -7.3419 H   0  0  0  0  0  0  0  0  0  0  0  0
   -2.3499    3.0354   -4.7541 H   0  0  0  0  0  0  0  0  0  0  0  0
   -1.4241    1.6159   -0.7258 H   0  0  0  0  0  0  0  0  0  0  0  0
   -0.5078   -0.5552   -1.3250 H   0  0  0  0  0  0  0  0  0  0  0  0
    1.0317   -3.2878   -3.3599 H   0  0  0  0  0  0  0  0  0  0  0  0
    0.7195   -2.1455   -2.0393 H   0  0  0  0  0  0  0  0  0  0  0  0
    1.3922   -1.4003   -4.9355 H   0  0  0  0  0  0  0  0  0  0  0  0
    2.4956   -1.2690   -3.5655 H   0  0  0  0  0  0  0  0  0  0  0  0
    1.0617   -0.2355   -3.6453 H   0  0  0  0  0  0  0  0  0  0  0  0
   -4.0834    1.4262   -4.0779 H   0  0  0  0  0  0  0  0  0  0  0  0
   -5.5360    7.4935   -2.8298 H   0  0  0  0  0  0  0  0  0  0  0  0
   -6.0339    9.8138   -2.3328 H   0  0  0  0  0  0  0  0  0  0  0  0
   -6.1660   13.3160   -1.1776 H   0  0  0  0  0  0  0  0  0  0  0  0
   -6.7083   11.7791   -1.8638 H   0  0  0  0  0  0  0  0  0  0  0  0
   -5.2457   13.0067   -3.4946 H   0  0  0  0  0  0  0  0  0  0  0  0
   -3.9618   13.0916   -2.2828 H   0  0  0  0  0  0  0  0  0  0  0  0
   -4.4250   11.5328   -2.9656 H   0  0  0  0  0  0  0  0  0  0  0  0
   -3.1021    7.2487    0.6878 H   0  0  0  0  0  0  0  0  0  0  0  0
   -4.9017    5.7732    1.3215 H   0  0  0  0  0  0  0  0  0  0  0  0
   -3.9477    1.4507    3.1489 H   0  0  0  0  0  0  0  0  0  0  0  0
   -2.4767    0.0827    7.0953 H   0  0  0  0  0  0  0  0  0  0  0  0
   -1.4264   -2.0205    6.3777 H   0  0  0  0  0  0  0  0  0  0  0  0
   -1.4145   -4.8294    2.3296 H   0  0  0  0  0  0  0  0  0  0  0  0
   -2.9939   -4.0362    2.2057 H   0  0  0  0  0  0  0  0  0  0  0  0
   -0.2732   -2.6228    2.3519 H   0  0  0  0  0  0  0  0  0  0  0  0
   -1.8310   -1.7916    2.2495 H   0  0  0  0  0  0  0  0  0  0  0  0
   -1.2717   -2.7822    0.8987 H   0  0  0  0  0  0  0  0  0  0  0  0
   -5.3878   -0.3591    3.9854 H   0  0  0  0  0  0  0  0  0  0  0  0
   -5.0290    5.5727    8.5528 H   0  0  0  0  0  0  0  0  0  0  0  0
   -5.9894    7.7390    9.0980 H   0  0  0  0  0  0  0  0  0  0  0  0
   -6.7764    9.6301    9.6988 H   0  0  0  0  0  0  0  0  0  0  0  0
   -7.5846   11.0763    9.0807 H   0  0  0  0  0  0  0  0  0  0  0  0
   -6.1455   11.0710    7.0593 H   0  0  0  0  0  0  0  0  0  0  0  0
   -5.1409   11.1259    8.5127 H   0  0  0  0  0  0  0  0  0  0  0  0
   -5.3218    9.6141    7.6143 H   0  0  0  0  0  0  0  0  0  0  0  0
   -7.9359    5.0545    5.4504 H   0  0  0  0  0  0  0  0  0  0  0  0
   -6.4636    3.7111    9.4437 H   0  0  0  0  0  0  0  0  0  0  0  0
   -5.8035    1.5046   10.6624 H   0  0  0  0  0  0  0  0  0  0  0  0
  1  2  2  0  0  0  0
  2  3  1  0  0  0  0
  3  4  2  0  0  0  0
  4  5  1  0  0  0  0
  5  6  2  0  0  0  0
  6  7  1  0  0  0  0
  7  8  2  0  0  0  0
  8  9  1  0  0  0  0
  9 10  1  0  0  0  0
 10 11  1  0  0  0  0
  8 12  1  0  0  0  0
 12 13  1  0  0  0  0
 12 14  2  0  0  0  0
  4 15  1  0  0  0  0
 15 16  2  0  0  0  0
 16 17  1  0  0  0  0
 17 18  1  0  0  0  0
 18 19  2  0  0  0  0
 19 20  1  0  0  0  0
 20 21  2  0  0  0  0
 21 22  1  0  0  0  0
 22 23  1  0  0  0  0
 23 24  1  0  0  0  0
 21 25  1  0  0  0  0
 25 26  2  0  0  0  0
 25 27  1  0  0  0  0
 17 28  2  0  0  0  0
 28 29  1  0  0  0  0
 16 30  1  0  0  0  0
 30 31  2  0  0  0  0
 31 32  1  0  0  0  0
 31 33  1  0  0  0  0
 33 34  2  0  0  0  0
 34 35  1  0  0  0  0
 35 36  2  0  0  0  0
 36 37  1  0  0  0  0
 37 38  2  0  0  0  0
 38 39  1  0  0  0  0
 39 40  2  0  0  0  0
 40 41  1  0  0  0  0
 41 42  1  0  0  0  0
 42 43  1  0  0  0  0
 40 44  1  0  0  0  0
 44 45  1  0  0  0  0
 44 46  2  0  0  0  0
 36 47  1  0  0  0  0
 47 48  2  0  0  0  0
 48 49  1  0  0  0  0
 49 50  1  0  0  0  0
 50 51  2  0  0  0  0
 51 52  1  0  0  0  0
 52 53  2  0  0  0  0
 53 54  1  0  0  0  0
 54 55  1  0  0  0  0
 55 56  1  0  0  0  0
 53 57  1  0  0  0  0
 57 58  2  0  0  0  0
 57 59  1  0  0  0  0
 49 60  2  0  0  0  0
 60 61  1  0  0  0  0
 48 62  1  0  0  0  0
 62 63  2  0  0  0  0
 63 64  1  0  0  0  0
 63 65  1  0  0  0  0
 65 66  2  0  0  0  0
 66 67  1  0  0  0  0
 67 68  2  0  0  0  0
 68 69  1  0  0  0  0
 69 70  2  0  0  0  0
 70 71  1  0  0  0  0
 71 72  2  0  0  0  0
 72 73  1  0  0  0  0
 73 74  1  0  0  0  0
 74 75  1  0  0  0  0
 72 76  1  0  0  0  0
 76 77  1  0  0  0  0
 76 78  2  0  0  0  0
 68 79  1  0  0  0  0
 79 80  2  0  0  0  0
 80 81  1  0  0  0  0
 81 82  1  0  0  0  0
 82 83  2  0  0  0  0
 83 84  1  0  0  0  0
 84 85  2  0  0  0  0
 85 86  1  0  0  0  0
 86 87  1  0  0  0  0
 87 88  1  0  0  0  0
 85 89  1  0  0  0  0
 89 90  2  0  0  0  0
 89 91  1  0  0  0  0
 81 92  2  0  0  0  0
 92 93  1  0  0  0  0
 80 94  1  0  0  0  0
 94 95  2  0  0  0  0
 95 96  1  0  0  0  0
 95 97  1  0  0  0  0
 97 98  2  0  0  0  0
 98 99  1  0  0  0  0
 99100  2  0  0  0  0
100101  1  0  0  0  0
101102  2  0  0  0  0
102103  1  0  0  0  0
103104  2  0  0  0  0
104105  1  0  0  0  0
105106  1  0  0  0  0
106107  1  0  0  0  0
104108  1  0  0  0  0
108109  1  0  0  0  0
108110  2  0  0  0  0
100111  1  0  0  0  0
111112  2  0  0  0  0
112113  1  0  0  0  0
113114  1  0  0  0  0
114115  2  0  0  0  0
115116  1  0  0  0  0
116117  2  0  0  0  0
117118  1  0  0  0  0
118119  1  0  0  0  0
119120  1  0  0  0  0
117121  1  0  0  0  0
121122  2  0  0  0  0
121123  1  0  0  0  0
113124  2  0  0  0  0
124125  1  0  0  0  0
112126  1  0  0  0  0
126127  2  0  0  0  0
127128  1  0  0  0  0
127129  1  0  0  0  0
129130  2  0  0  0  0
130131  1  0  0  0  0
131132  2  0  0  0  0
132133  1  0  0  0  0
133134  2  0  0  0  0
134135  1  0  0  0  0
135136  2  0  0  0  0
136137  1  0  0  0  0
137138  1  0  0  0  0
138139  1  0  0  0  0
136140  1  0  0  0  0
140141  1  0  0  0  0
140142  2  0  0  0  0
132143  1  0  0  0  0
143144  2  0  0  0  0
144145  1  0  0  0  0
145146  1  0  0  0  0
146147  2  0  0  0  0
147148  1  0  0  0  0
148149  2  0  0  0  0
149150  1  0  0  0  0
150151  1  0  0  0  0
151152  1  0  0  0  0
149153  1  0  0  0  0
153154  2  0  0  0  0
153155  1  0  0  0  0
145156  2  0  0  0  0
156157  1  0  0  0  0
144158  1  0  0  0  0
158159  2  0  0  0  0
159160  1  0  0  0  0
159161  1  0  0  0  0
161162  2  0  0  0  0
162163  1  0  0  0  0
163164  2  0  0  0  0
164165  1  0  0  0  0
165166  2  0  0  0  0
166167  1  0  0  0  0
167168  2  0  0  0  0
168169  1  0  0  0  0
169170  1  0  0  0  0
170171  1  0  0  0  0
168172  1  0  0  0  0
172173  1  0  0  0  0
172174  2  0  0  0  0
164175  1  0  0  0  0
175176  2  0  0  0  0
176177  1  0  0  0  0
177178  1  0  0  0  0
178179  2  0  0  0  0
179180  1  0  0  0  0
180181  2  0  0  0  0
181182  1  0  0  0  0
182183  1  0  0  0  0
183184  1  0  0  0  0
181185  1  0  0  0  0
185186  2  0  0  0  0
185187  1  0  0  0  0
177188  2  0  0  0  0
188189  1  0  0  0  0
176190  1  0  0  0  0
190191  2  0  0  0  0
191192  1  0  0  0  0
 29  1  1  0  0  0  0
 61 33  1  0  0  0  0
 93 65  1  0  0  0  0
125 97  1  0  0  0  0
157129  1  0  0  0  0
189161  1  0  0  0  0
 28  3  1  0  0  0  0
 60 35  1  0  0  0  0
 92 67  1  0  0  0  0
124 99  1  0  0  0  0
156131  1  0  0  0  0
188163  1  0  0  0  0
 14  5  1  0  0  0  0
 32 15  1  0  0  0  0
 46 37  1  0  0  0  0
 64 47  1  0  0  0  0
 78 69  1  0  0  0  0
 96 79  1  0  0  0  0
110101  1  0  0  0  0
128111  1  0  0  0  0
142133  1  0  0  0  0
160143  1  0  0  0  0
174165  1  0  0  0  0
192175  1  0  0  0  0
 26 18  1  0  0  0  0
 58 50  1  0  0  0  0
 90 82  1  0  0  0  0
122114  1  0  0  0  0
154146  1  0  0  0  0
186178  1  0  0  0  0
  1193  1  0  0  0  0
  2194  1  0  0  0  0
  6195  1  0  0  0  0
  7196  1  0  0  0  0
 10197  1  0  0  0  0
 10198  1  0  0  0  0
 11199  1  0  0  0  0
 11200  1  0  0  0  0
 11201  1  0  0  0  0
 14202  1  0  0  0  0
 19203  1  0  0  0  0
 20204  1  0  0  0  0
 23205  1  0  0  0  0
 23206  1  0  0  0  0
 24207  1  0  0  0  0
 24208  1  0  0  0  0
 24209  1  0  0  0  0
 26210  1  0  0  0  0
 30211  1  0  0  0  0
 34212  1  0  0  0  0
 38213  1  0  0  0  0
 39214  1  0  0  0  0
 42215  1  0  0  0  0
 42216  1  0  0  0  0
 43217  1  0  0  0  0
 43218  1  0  0  0  0
 43219  1  0  0  0  0
 46220  1  0  0  0  0
 51221  1  0  0  0  0
 52222  1  0  0  0  0
 55223  1  0  0  0  0
 55224  1  0  0  0  0
 56225  1  0  0  0  0
 56226  1  0  0  0  0
 56227  1  0  0  0  0
 58228  1  0  0  0  0
 62229  1  0  0  0  0
 66230  1  0  0  0  0
 70231  1  0  0  0  0
 71232  1  0  0  0  0
 74233  1  0  0  0  0
 74234  1  0  0  0  0
 75235  1  0  0  0  0
 75236  1  0  0  0  0
 75237  1  0  0  0  0
 78238  1  0  0  0  0
 83239  1  0  0  0  0
 84240  1  0  0  0  0
 87241  1  0  0  0  0
 87242  1  0  0  0  0
 88243  1  0  0  0  0
 88244  1  0  0  0  0
 88245  1  0  0  0  0
 90246  1  0  0  0  0
 94247  1  0  0  0  0
 98248  1  0  0  0  0
102249  1  0  0  0  0
103250  1  0  0  0  0
106251  1  0  0  0  0
106252  1  0  0  0  0
107253  1  0  0  0  0
107254  1  0  0  0  0
107255  1  0  0  0  0
110256  1  0  0  0  0
115257  1  0  0  0  0
116258  1  0  0  0  0
119259  1  0  0  0  0
119260  1  0  0  0  0
120261  1  0  0  0  0
120262  1  0  0  0  0
120263  1  0  0  0  0
122264  1  0  0  0  0
126265  1  0  0  0  0
130266  1  0  0  0  0
134267  1  0  0  0  0
135268  1  0  0  0  0
138269  1  0  0  0  0
138270  1  0  0  0  0
139271  1  0  0  0  0
139272  1  0  0  0  0
139273  1  0  0  0  0
142274  1  0  0  0  0
147275  1  0  0  0  0
148276  1  0  0  0  0
151277  1  0  0  0  0
151278  1  0  0  0  0
152279  1  0  0  0  0
152280  1  0  0  0  0
152281  1  0  0  0  0
154282  1  0  0  0  0
158283  1  0  0  0  0
162284  1  0  0  0  0
166285  1  0  0  0  0
167286  1  0  0  0  0
170287  1  0  0  0  0
170288  1  0  0  0  0
171289  1  0  0  0  0
171290  1  0  0  0  0
171291  1  0  0  0  0
174292  1  0  0  0  0
179293  1  0  0  0  0
180294  1  0  0  0  0
183295  1  0  0  0  0
183296  1  0  0  0  0
184297  1  0  0  0  0
184298  1  0  0  0  0
184299  1  0  0  0  0
186300  1  0  0  0  0
190301  1  0  0  0  0
191302  1  0  0  0  0
M  END
