244

C         -0.85880       -3.29830       12.14720
C         -0.85690       -2.17500       11.40220
C         -1.72400       -2.25730       10.27210
C         -1.95800       -1.29100        9.28470
C         -1.22410       -0.01930        9.22510
C          0.16790       -0.00090        9.24170
C          0.86870        1.18090        9.09590
C          0.20060        2.38750        8.92290
S          0.98050        3.95900        8.73220
C          2.63100        3.55010        8.06560
C          2.55200        2.95060        6.67540
C         -1.19410        2.35780        8.93330
F         -1.87310        3.51290        8.78280
C         -1.90490        1.18740        9.07840
C         -2.88560       -1.61700        8.30660
C         -3.54440       -2.86890        8.23380
C         -3.28920       -3.84490        9.20960
C         -3.90030       -5.17780        9.14370
C         -3.83080       -5.93840        7.97710
C         -4.36810       -7.20660        7.93330
C         -5.00750       -7.76230        9.04000
S         -5.69050       -9.38300        8.85400
C         -5.31400      -10.20540       10.44630
C         -3.82850      -10.20880       10.74590
C         -5.09830       -6.97870       10.18640
C         -4.54230       -5.71740       10.25290
F         -5.74520       -7.42920       11.28350
C         -2.40100       -3.49950       10.22030
S         -1.91140       -4.53110       11.54110
C         -4.41010       -2.94760        7.10880
C         -4.40020       -1.82630        6.33680
S         -3.32930       -0.58850        6.97440
C         -5.06010       -1.55030        5.10370
C         -4.98520       -0.37220        4.42280
C         -5.62290       -0.39510        3.16180
C         -5.60770        0.61670        2.18480
C         -4.95220        1.89720        2.47960
C         -3.95330        2.40430        1.65020
C         -3.23670        3.52380        2.01670
C         -3.49390        4.18490        3.21500
S         -2.47490        5.55590        3.66280
C         -2.24120        5.29570        5.47100
C         -0.86250        5.77560        5.87470
C         -4.55260        3.72110        3.99110
F         -4.91110        4.36790        5.12090
C         -5.26280        2.58980        3.64680
C         -6.12640        0.28330        0.94780
C         -6.66840       -0.99340        0.64740
C         -6.71580       -1.98910        1.64040
C         -7.21160       -3.33940        1.34510
C         -6.69620       -4.06950        0.27420
C         -7.17250       -5.33120       -0.00780
C         -8.17320       -5.91890        0.76410
S         -8.68110       -7.55250        0.31230
C        -10.49430       -7.54050        0.56480
C        -11.17410       -6.46810       -0.26250
C         -8.64520       -5.19720        1.85590
C         -8.18600       -3.92700        2.14320
F         -9.58280       -5.71810        2.67630
C         -6.19340       -1.66030        2.88220
S         -5.97940       -2.76020        4.22690
C         -7.03880       -1.10830       -0.71440
C         -6.74870       -0.00030       -1.46730
S         -6.12940        1.30900       -0.45760
C         -6.63710        0.17300       -2.87050
S         -6.05780        1.72100       -3.42160
C         -5.50470        1.07550       -4.94080
C         -5.92160       -0.25430       -5.07360
C         -6.58220       -0.76250       -3.91370
C         -7.03340       -2.09830       -3.91960
C         -6.82650       -2.89470       -5.01350
O         -7.22050       -4.18570       -5.12480
C         -7.87820       -4.78450       -4.03530
C         -6.15000       -2.37990       -6.17480
O         -6.01300       -3.27090       -7.18590
C         -5.34660       -2.85380       -8.35240
C         -5.71590       -1.08320       -6.19410
C         -4.50510        1.78960       -5.63570
S         -3.16920        0.93760       -6.37030
C         -2.12670        2.32730       -6.24990
C         -2.84330        3.44970       -5.83110
C         -4.19380        3.14830       -5.49580
C         -5.04920        4.17210       -5.04330
C         -4.57540        5.44940       -4.91640
O         -5.29600        6.51370       -4.49830
C         -6.62850        6.30360       -4.09890
C         -3.20700        5.75730       -5.25390
O         -2.88030        7.05730       -5.09440
C         -1.54980        7.45310       -5.33110
C         -2.36970        4.77380       -5.70480
C         -0.71330        2.16570       -6.20830
C          0.08430        2.74950       -5.26390
C          1.40850        2.25660       -5.24460
C          2.39210        2.51870       -4.27430
C          2.10920        3.45300       -3.17830
C          2.23130        3.05550       -1.85110
C          1.85320        3.88850       -0.81540
C          1.34230        5.15700       -1.06840
S          0.74460        6.29150        0.13730
C          0.75500        5.35080        1.70180
C          2.10240        5.39080        2.39830
C          1.27560        5.56020       -2.40440
F          0.81290        6.79590       -2.69690
C          1.63910        4.73810       -3.44540
C          3.56370        1.78760       -4.36850
C          3.80200        0.84810       -5.40220
C          2.81010        0.57290       -6.36150
C          3.02350       -0.45720       -7.38460
C          3.48400       -1.72650       -7.03480
C          3.70910       -2.68320       -8.00010
C          3.49520       -2.41450       -9.35040
S          3.89580       -3.69690      -10.50320
C          2.54810       -3.62290      -11.73900
C          1.18420       -3.79400      -11.10160
C          3.03590       -1.14470       -9.68550
C          2.78390       -0.18400       -8.72660
F          2.83040       -0.80220      -10.97610
C          1.62650        1.28330       -6.25160
S          0.17410        1.01170       -7.18890
C          5.08460        0.26100       -5.28920
C          5.78870        0.68160       -4.20000
S          4.91740        1.88390       -3.26930
C          7.05140        0.17900       -3.77140
C          7.76770        0.48420       -2.65350
C          8.95000       -0.29060       -2.50850
C          9.91860       -0.23180       -1.49290
C          9.75220        0.64480       -0.32790
C         10.77600        1.48360        0.10040
C         10.62050        2.29870        1.20520
C          9.43100        2.30520        1.92400
S          9.10080        3.26900        3.36170
C         10.47120        4.47300        3.42600
C         10.35630        5.53590        2.34970
C          8.41570        1.45100        1.48930
F          7.25120        1.41820        2.17180
C          8.55700        0.63520        0.39070
C         11.01990       -1.06710       -1.63410
C         11.18300       -1.96870       -2.71430
C         10.20710       -2.04310       -3.71550
C         10.29240       -2.93700       -4.87770
C          9.21690       -3.76040       -5.20160
C          9.21540       -4.51020       -6.35960
C         10.28580       -4.45360       -7.24510
S         10.34470       -5.30840       -8.78520
C          8.57950       -5.52800       -9.21250
C          7.86060       -4.20860       -9.41700
C         11.38240       -3.67240       -6.87800
C         11.39980       -2.92350       -5.72100
F         12.45710       -3.62220       -7.69000
C          9.11610       -1.19800       -3.58180
S          7.80790       -1.08270       -4.72630
C         12.36830       -2.75070       -2.57780
C         13.06520       -2.45520       -1.46280
S         12.33950       -1.21260       -0.49990
H         -0.30440       -3.49670       13.04360
H         -0.27800       -1.30040       11.63760
H          0.71100       -0.92840        9.34440
H          1.94660        1.15500        9.11440
H          3.14070        4.51320        8.04640
H          3.14680        2.89930        8.77030
H          2.03830        3.63440        6.00350
H          2.00900        2.00750        6.68750
H          3.55390        2.77080        6.29080
H         -2.98250        1.22640        9.08270
H         -3.32000       -5.54380        7.11200
H         -4.29850       -7.79850        7.03400
H         -5.68750      -11.21840       10.29630
H         -5.88900       -9.72910       11.23730
H         -3.27490      -10.66450        9.92750
H         -3.64010      -10.77630       11.65500
H         -3.45870       -9.19540       10.89140
H         -4.64620       -5.15420       11.16700
H         -5.02340       -3.80190        6.88400
H         -4.44250        0.47600        4.79980
H         -3.70550        1.89120        0.73430
H         -2.44550        3.89670        1.38510
H         -3.02050        5.84190        5.99950
H         -2.35150        4.22890        5.65720
H         -0.09540        5.24020        5.31850
H         -0.75200        6.83950        5.67840
H         -0.71590        5.59680        6.93750
H         -6.06780        2.26550        4.28810
H         -5.90540       -3.64640       -0.32700
H         -6.77220       -5.89770       -0.83480
H        -10.70450       -7.43250        1.62640
H        -10.79680       -8.53670        0.24240
H        -10.86550       -5.47530        0.06040
H        -10.92480       -6.58270       -1.31560
H        -12.25320       -6.54590       -0.14710
H         -8.59870       -3.40510        2.99260
H         -7.47740       -2.00280       -1.11120
H         -7.56380       -2.47530       -3.06400
H         -8.06430       -5.81450       -4.33440
H         -8.83230       -4.29160       -3.82040
H         -7.25620       -4.77480       -3.13440
H         -4.32100       -2.53730       -8.13700
H         -5.32870       -3.72340       -9.00700
H         -5.88040       -2.03690       -8.84900
H         -5.22600       -0.66680       -7.05850
H         -6.07670        3.93390       -4.82580
H         -6.98980        7.27350       -3.76180
H         -6.69030        5.58430       -3.27610
H         -7.24740        5.95570       -4.93250
H         -1.51970        8.52030       -5.12080
H         -0.85540        6.93770       -4.66240
H         -1.25760        7.27920       -6.37180
H         -1.35450        4.98940       -5.99300
H         -0.30270        3.42840       -4.52670
H          2.59840        2.06670       -1.62230
H          1.94900        3.52980        0.19610
H          0.42540        4.33490        1.48880
H         -0.00830        5.84270        2.30560
H          2.05540        4.82400        3.32660
H          2.88620        4.96660        1.77440
H          2.37220        6.41780        2.63240
H          1.56570        5.10190       -4.45870
H          3.63860       -1.97020       -5.99490
H          4.06030       -3.66540       -7.72450
H          2.77760       -4.45200      -12.40850
H          2.62680       -2.68890      -12.29090
H          0.96500       -2.97020      -10.42450
H          1.13830       -4.72480      -10.53970
H          0.41970       -3.81410      -11.87570
H          2.43530        0.78640       -9.04400
H          5.47980       -0.45320       -5.98920
H          7.46150        1.24810       -1.96130
H         11.70570        1.51400       -0.44670
H         11.44340        2.92720        1.50360
H         10.37450        4.91490        4.41780
H         11.41440        3.93030        3.38020
H         10.39560        5.09420        1.35630
H         11.17220        6.24960        2.44580
H          9.41390        6.06920        2.44920
H          7.74610       -0.02040        0.11480
H          8.37200       -3.82160       -4.53300
H          8.36750       -5.14010       -6.57420
H          8.10640       -6.14470       -8.44930
H          8.61840       -6.09720      -10.14110
H          7.84860       -3.62170       -8.50050
H          6.83230       -4.38950       -9.72550
H          8.35660       -3.62690      -10.19020
H         12.25590       -2.30230       -5.50790
H         12.66040       -3.50500       -3.28570
H         13.98490       -2.89060       -1.12400
