198

C          0.75190       -3.85120        6.00220
C          0.56990       -5.17950        6.38520
C          1.23390       -5.78270        7.55720
O          0.73430       -6.69920        8.17830
C          2.54490       -5.22910        7.98950
C          2.84260       -5.07890        9.31020
S          4.44680       -4.53370        9.57330
C          4.74520       -4.51140        7.88660
C          3.65550       -4.88680        7.14960
C          3.66520       -5.06830        5.68520
O          3.01500       -5.95210        5.15870
C          4.51260       -4.15190        4.88310
C          4.86350       -4.55720        3.59440
C          5.61860       -3.73730        2.78010
C          6.03600       -2.49890        3.24140
C          5.68630       -2.08350        4.51530
C          4.92270       -2.89800        5.33170
C         -0.33890       -5.96770        5.67800
C         -1.00430       -5.45850        4.58780
C         -0.79500       -4.14040        4.16790
C          0.06780       -3.33660        4.92020
C         -1.49290       -3.67090        2.98830
C         -1.15780       -2.62150        2.22390
C         -1.89920       -2.20880        1.04240
C         -1.27910       -1.46590        0.02440
C          0.13720       -1.01450        0.10700
O          0.52140       -0.21000        0.93450
C          1.02720       -1.57120       -0.92820
C          0.59610       -2.42390       -1.91230
S          1.82130       -2.80940       -3.03880
C          2.94900       -1.81950       -2.20010
C          2.41810       -1.24290       -1.08730
C          3.27310       -0.42900       -0.18280
O          4.05830        0.38730       -0.61770
C          3.14540       -0.71650        1.26330
C          3.49110        0.28280        2.16830
C          3.29830        0.09250        3.52250
C          2.79090       -1.11090        3.98420
C          2.51750       -2.13780        3.09410
C          2.69140       -1.94380        1.73900
C         -2.00350       -1.11350       -1.10910
C         -3.31870       -1.49850       -1.27030
C         -3.94940       -2.25060       -0.27980
C         -3.23600       -2.56560        0.86920
C         -5.33140       -2.73200       -0.39120
C         -5.82970       -3.39350       -1.43180
C         -5.06760       -3.65460       -2.66500
C         -4.28190       -4.80970       -2.81900
C         -4.27510       -5.82680       -1.76460
O         -4.97270       -5.79370       -0.77210
C         -3.32110       -6.96720       -1.95830
C         -3.62250       -8.14790       -2.55270
S         -2.31230       -9.26820       -2.48780
C         -1.36010       -8.15020       -1.61100
C         -2.00850       -6.96510       -1.39430
C         -1.41650       -5.79270       -0.71890
O         -1.63270       -4.65680       -1.10060
C         -0.52170       -6.09880        0.42000
C         -0.72780       -7.21660        1.22760
C          0.12340       -7.47420        2.28560
C          1.19340       -6.63200        2.54260
C          1.39970       -5.51780        1.74490
C          0.53920       -5.24010        0.70110
C         -3.49190       -4.94970       -3.96460
C         -3.42040       -3.94450       -4.90140
C         -4.19600       -2.79360       -4.75230
C         -5.06410       -2.69920       -3.66620
C         -4.00550       -1.58410       -5.53730
C         -2.77540       -1.10990       -5.75930
C         -2.42880        0.25590       -6.10540
C         -3.27350        1.15450       -6.77210
C         -4.59930        0.79590       -7.34260
O         -4.78750       -0.02390       -8.21280
C         -5.67540        1.65660       -6.79090
C         -6.73540        2.10160       -7.52660
S         -7.73690        3.17870       -6.65180
C         -6.73520        3.02310       -5.25770
C         -5.67720        2.19530       -5.46340
C         -4.75820        1.74490       -4.37370
O         -4.84640        0.60500       -3.95690
C         -3.82400        2.72400       -3.79650
C         -3.77710        4.05770       -4.19850
C         -2.89840        4.93050       -3.58530
C         -2.06340        4.48720       -2.57130
C         -2.09760        3.16090       -2.17200
C         -2.96530        2.28410       -2.78700
C         -2.86360        2.47730       -6.94290
C         -1.68950        2.93900       -6.39470
C         -0.88710        2.08790       -5.62440
C         -1.24460        0.74390       -5.55850
C          0.18920        2.64610       -4.84150
C          0.64140        2.08060       -3.70290
C          1.49040        2.67170       -2.72970
S          1.31940        2.08840       -1.10250
C          2.29880        3.33830       -0.45470
C          2.79470        4.15750       -1.46490
C          2.34520        3.77420       -2.76560
C          2.82140        4.47550       -3.89570
C          3.64610        5.55290       -3.73650
O          4.17700        6.29410       -4.74320
C          3.87670        5.93230       -6.06700
C          4.01550        6.00040       -2.41760
O          4.79210        7.11550       -2.40500
C          5.20900        7.61860       -1.16120
C          3.60280        5.31030       -1.31570
C          2.55510        3.46270        0.96800
C          1.53730        3.36290        1.93360
C          0.11490        3.17400        1.55230
O         -0.39410        3.72380        0.59390
C         -0.66060        2.26670        2.41130
C         -0.14610        1.24820        3.16420
S         -1.36410        0.31280        3.91090
C         -2.59950        1.29140        3.21190
C         -2.09210        2.28220        2.43490
C         -2.87850        3.37710        1.79730
O         -2.73910        4.52100        2.17220
C         -3.85760        2.99440        0.75260
C         -4.11790        1.67200        0.39830
C         -5.10400        1.38780       -0.52850
C         -5.81420        2.41260       -1.13200
C         -5.53510        3.73230       -0.81350
C         -4.56850        4.02030        0.12810
C          1.86120        3.54010        3.27670
C          3.15790        3.79310        3.67090
C          4.19200        3.83890        2.73180
C          3.86740        3.67170        1.38900
C          5.56050        4.05730        3.18610
C          6.66340        3.85780        2.47470
H          1.41110       -3.21270        6.57490
H          2.18910       -5.25750       10.14090
H          5.72780       -4.27190        7.52970
H          4.53480       -5.52850        3.25440
H          5.88430       -4.06150        1.78480
H          6.62380       -1.85370        2.60620
H          6.00140       -1.11350        4.86980
H          4.62550       -2.54490        6.30750
H         -0.49600       -6.98510        6.00230
H         -1.69470       -6.08180        4.03830
H          0.17670       -2.29420        4.66150
H         -2.33050       -4.28920        2.69280
H         -0.26630       -2.05230        2.44780
H         -0.37890       -2.86130       -2.01880
H          3.95860       -1.73610       -2.55090
H          3.87810        1.21480        1.78820
H          3.53520        0.88760        4.21490
H          2.60820       -1.25190        5.03920
H          2.15300       -3.08530        3.46150
H          2.46670       -2.74140        1.04630
H         -1.52460       -0.51580       -1.87270
H         -3.85160       -1.20010       -2.15860
H         -3.73800       -3.12140        1.64670
H         -5.93570       -2.61590        0.49950
H         -6.84120       -3.77640       -1.40050
H         -4.53820       -8.43020       -3.03270
H         -0.35890       -8.40900       -1.32700
H         -1.57180       -7.86480        1.04290
H         -0.04660       -8.33480        2.91510
H          1.85240       -6.82800        3.37350
H          2.23790       -4.86850        1.94670
H          0.67680       -4.36970        0.07550
H         -2.90030       -5.84390       -4.09500
H         -2.76710       -4.04050       -5.75580
H         -5.66990       -1.81100       -3.55890
H         -4.88470       -0.98950       -5.72750
H         -1.93060       -1.72730       -5.47620
H         -6.95250        1.86600       -8.54960
H         -7.00030        3.53890       -4.35570
H         -4.42970        4.40960       -4.98370
H         -2.86750        5.96470       -3.89620
H         -1.38510        5.16910       -2.08210
H         -1.45480        2.83010       -1.37190
H         -3.01300        1.24720       -2.49320
H         -3.49140        3.15100       -7.51010
H         -1.40990        3.97550       -6.51170
H         -0.60690        0.05380       -5.02590
H          0.50350        3.64270       -5.11120
H          0.22390        1.12890       -3.39810
H          2.54920        4.12500       -4.87600
H          4.22380        4.91930       -6.29680
H          2.80230        5.99990       -6.26910
H          4.40670        6.64650       -6.69490
H          5.80580        8.50100       -1.38560
H          4.35670        7.90570       -0.53630
H          5.82430        6.89260       -0.61870
H          3.86790        5.63150       -0.32220
H          0.88310        0.97080        3.27580
H         -3.62690        1.09160        3.44440
H         -3.55730        0.86400        0.84400
H         -5.31750        0.36220       -0.78750
H         -6.58150        2.17710       -1.85520
H         -6.07810        4.53440       -1.29190
H         -4.34530        5.03930        0.40650
H          1.07300        3.51630        4.01470
H          3.38110        3.94620        4.71730
H          4.64490        3.68360        0.64150
H          5.64670        4.39590        4.21160
H          6.64350        3.49680        1.46050
H          7.63900        4.04000        2.89160
