188

C         -0.78150        4.78610        5.60270
C         -0.54950        4.03950        4.45520
N         -1.25080        2.97110        3.94280
C         -2.37920        2.37790        4.60980
C         -3.69740        3.08870        4.27720
C         -4.89380        2.31100        4.80890
C         -0.63850        2.55890        2.77880
C          0.50480        3.36570        2.55510
C          0.55100        4.32620        3.61780
C          1.42080        5.36290        3.92780
C          1.18300        6.09990        5.07020
C          0.09680        5.81190        5.89440
C          1.35000        3.13650        1.47990
C          1.07960        2.06230        0.65630
C         -0.05010        1.28220        0.85710
C         -0.96250        1.52360        1.88550
C         -2.22420        0.80130        1.93140
C         -2.43380       -0.45770        1.52080
C         -3.75030       -1.07910        1.52300
C         -3.98740       -2.44910        1.72480
N         -3.10010       -3.50770        1.90110
C         -1.88620       -3.64210        1.12620
C         -2.15210       -3.42550       -0.36890
C         -0.91760       -3.72610       -1.20680
C         -3.84450       -4.63930        2.21330
C         -5.22020       -4.32800        2.16040
C         -5.31040       -2.92430        1.87530
C         -6.40790       -2.08730        1.74740
C         -6.17790       -0.75530        1.46820
C         -4.88310       -0.27320        1.37030
C         -6.19400       -5.29700        2.34930
C         -5.78000       -6.59260        2.58490
C         -4.43100       -6.88480        2.71420
C         -3.42280       -5.92230        2.59360
C         -2.10750       -6.33490        3.06430
C         -1.16510       -5.58720        3.65150
C         -0.09640       -6.18360        4.46610
C          1.26320       -5.84090        4.45570
N          1.98550       -5.03900        3.59480
C          1.51450       -4.60040        2.30870
C          1.34380       -5.77300        1.33300
C          2.64820       -6.50870        1.05510
C          3.29300       -4.98430        4.02970
C          3.41910       -5.75580        5.20880
C          2.13370       -6.33910        5.45490
C          1.69230       -7.23050        6.42260
C          0.37420       -7.63180        6.38270
C         -0.49260       -7.10730        5.43230
C          4.61800       -5.81660        5.90590
C          5.68470       -5.07960        5.43690
C          5.56190       -4.31720        4.28090
C          4.38760       -4.26280        3.53880
C          4.39120       -3.48120        2.29550
C          4.52640       -2.14870        2.25160
C          4.60810       -1.38170        1.05050
S          4.78590       -2.14730       -0.50070
C          4.80070       -0.63760       -1.34370
C          4.68540        0.42110       -0.45690
C          4.57820        0.00150        0.90620
C          4.47040        0.97740        1.92450
C          4.48810        2.30210        1.60290
O          4.40940        3.32860        2.48870
C          4.20960        3.02090        3.84480
C          4.59190        2.72270        0.22440
O          4.56570        4.07160        0.05510
C          4.63250        4.57380       -1.25510
C          4.68580        1.80250       -0.77520
C          5.08000       -0.57370       -2.77420
C          4.26900        0.06520       -3.72230
N          3.00650        0.61190       -3.60480
C          2.05080        0.23430       -2.59260
C          1.16560       -0.93500       -3.04170
C          1.95830       -2.22140       -3.23320
C          2.65220        1.15110       -4.82930
C          3.70670        0.95050       -5.74990
C          4.73570        0.24270       -5.04640
C          5.95740       -0.27250       -5.45650
C          6.70980       -0.98090       -4.54230
C          6.27750       -1.11910       -3.23030
C          3.60850        1.38170       -7.06600
C          2.44570        2.00690       -7.46260
C          1.40910        2.20630       -6.55810
C          1.47990        1.80430       -5.22880
C          0.33830        2.08550       -4.34710
C         -0.89830        1.67820       -4.63430
C         -2.06540        1.88940       -3.77820
C         -3.35060        2.21240       -4.24030
N         -3.79980        2.54990       -5.49910
C         -3.01160        2.53660       -6.70240
C         -3.07220        1.18040       -7.41490
C         -2.13370        1.14080       -8.61310
C         -5.15670        2.79530       -5.43810
C         -5.59400        2.62640       -4.10340
C         -4.43580        2.28450       -3.33350
C         -4.26080        2.06320       -1.97470
C         -2.98990        1.78780       -1.51700
C         -1.92650        1.70330       -2.40510
C         -6.92880        2.78580       -3.75600
C         -7.82990        3.09880       -4.75050
C         -7.40100        3.27010       -6.06240
C         -6.06970        3.14420       -6.43910
C         -5.72530        3.40580       -7.84950
C         -6.14730        2.65540       -8.85300
H         -1.61910        4.58350        6.25320
H         -2.20420        2.42640        5.68970
H         -2.43760        1.32270        4.33100
H         -3.78370        3.20520        3.19420
H         -3.68150        4.09220        4.70700
H         -4.81940        2.18530        5.88680
H         -4.94440        1.32410        4.35220
H         -5.81850        2.83800        4.58850
H          2.25930        5.58150        3.28420
H          1.84240        6.91370        5.33330
H         -0.06390        6.40680        6.78170
H          2.19560        3.78180        1.30750
H          1.74480        1.83710       -0.16350
H         -0.26300        0.48160        0.16340
H         -3.06720        1.36940        2.29340
H         -1.58740       -1.05030        1.21340
H         -1.12510       -2.93980        1.48100
H         -1.51120       -4.65580        1.27230
H         -2.97160       -4.08080       -0.67400
H         -2.47280       -2.39650       -0.54280
H         -0.65750       -4.78040       -1.14170
H         -1.10400       -3.48590       -2.25040
H         -0.06740       -3.13920       -0.86480
H         -7.40900       -2.47330        1.86140
H         -7.00790       -0.07660        1.33870
H         -4.74260        0.77430        1.15200
H         -7.24130       -5.04140        2.30310
H         -6.50680       -7.38190        2.70590
H         -4.14320       -7.89520        2.96850
H         -1.97040       -7.41080        3.08390
H         -1.25110       -4.50890        3.68150
H          0.55700       -4.09310        2.43610
H          2.23290       -3.88010        1.91340
H          0.93930       -5.38350        0.39790
H          0.61740       -6.47270        1.75190
H          3.35390       -5.86300        0.53770
H          3.10490       -6.85110        1.98100
H          2.46240       -7.37650        0.42680
H          2.36940       -7.59920        7.17760
H         -0.00260       -8.33680        7.10850
H         -1.53480       -7.39020        5.46550
H          4.70080       -6.41470        6.80040
H          6.62680       -5.09120        5.96440
H          6.41360       -3.75570        3.92410
H          4.36110       -4.03880        1.36620
H          4.55180       -1.58690        3.17580
H          4.38250        0.65330        2.94780
H          4.14220        3.97700        4.36060
H          5.04680        2.44610        4.25480
H          3.27680        2.46660        3.99310
H          4.58740        5.65740       -1.15920
H          3.78830        4.22760       -1.86140
H          5.56860        4.29140       -1.74800
H          4.76700        2.08810       -1.81140
H          1.42330        1.09470       -2.35740
H          2.59620       -0.05180       -1.69340
H          0.66570       -0.66850       -3.97480
H          0.39400       -1.08480       -2.28410
H          2.46060       -2.50610       -2.31090
H          2.71190       -2.09910       -4.00800
H          1.29770       -3.03310       -3.52800
H          6.29810       -0.12980       -6.47040
H          7.65340       -1.41550       -4.83570
H          6.90100       -1.64240       -2.51960
H          4.42360        1.22530       -7.75560
H          2.33380        2.35240       -8.47960
H          0.51770        2.72130       -6.88800
H          0.52410        2.69290       -3.47030
H         -1.04590        1.07750       -5.52220
H         -3.37910        3.31030       -7.37720
H         -1.98080        2.78430       -6.43790
H         -4.09870        1.00440       -7.74360
H         -2.81180        0.38710       -6.71020
H         -1.10110        1.28400       -8.30090
H         -2.20620        0.18220       -9.12060
H         -2.39110        1.92430       -9.32230
H         -5.10270        2.11370       -1.30150
H         -2.80850        1.62130       -0.46660
H         -0.94980        1.45240       -2.02010
H         -7.24600        2.65660       -2.73260
H         -8.87760        3.21800       -4.51800
H         -8.12180        3.52890       -6.82470
H         -5.14880        4.30360       -8.04440
H         -6.73480        1.76810       -8.68150
H         -5.91840        2.88880       -9.87930
