254

C          2.27460      -13.52490        2.74610
C          3.06120      -13.12660        1.72540
C          2.65830      -11.87670        1.17130
C          3.25460      -11.14910        0.12850
C          4.50350      -11.57150       -0.48390
S          4.66520      -11.70740       -2.20880
C          6.33070      -12.16480       -2.09520
C          7.14550      -12.39420       -3.31980
C          7.47610      -11.06850       -4.00980
C          6.72460      -12.20000       -0.79090
Cl         8.31210      -12.60220       -0.27640
C          5.69040      -11.86890        0.12610
Cl         5.95510      -11.77160        1.81950
C          2.60580       -9.99150       -0.28170
C          1.42810       -9.51510        0.33990
C          0.88140      -10.19290        1.43810
C         -0.25240       -9.63750        2.16930
S         -0.07890       -8.15360        3.05910
C         -1.71740       -8.20360        3.61100
C         -2.25360       -7.17010        4.53930
C         -1.95380       -7.52940        5.99600
C         -2.34550       -9.31250        3.12870
C         -1.51650      -10.12970        2.31220
Cl        -2.07380      -11.55940        1.54980
Cl        -3.98540       -9.69390        3.45290
C          1.49920      -11.37630        1.81460
S          0.98940      -12.42450        3.10590
C          0.93300       -8.34490       -0.28360
C          1.71110       -7.90610       -1.31020
S          3.11580       -8.92440       -1.56320
C          1.49450       -6.73600       -2.09830
C          2.40470       -6.01820       -2.81210
C          1.87440       -4.81800       -3.34880
C          2.56420       -3.80620       -4.03750
C          3.97480       -3.96420       -4.35700
S          4.52170       -5.32270       -5.29470
C          6.17630       -4.82050       -5.20250
C          7.25780       -5.64430       -5.80920
C          7.50320       -6.91470       -4.99180
C          6.28080       -3.67010       -4.48010
Cl         7.76390       -2.86760       -4.16000
C          5.03470       -3.17930       -4.00170
Cl         4.91380       -1.79040       -3.00560
C          1.84710       -2.66280       -4.35760
C          0.46770       -2.50880       -4.06130
C         -0.24010       -3.54980       -3.43190
C         -1.66740       -3.46880       -3.18580
S         -2.34420       -3.96840       -1.66480
C         -3.95610       -3.59190       -2.15500
C         -5.08720       -3.74210       -1.19840
C         -5.02480       -2.67100       -0.10790
C         -3.96020       -3.12210       -3.43490
C         -2.66970       -3.06080       -4.02690
Cl        -2.44680       -2.62080       -5.67100
Cl        -5.37810       -2.65290       -4.27960
C          0.50300       -4.65880       -3.04220
S         -0.09620       -6.00430       -2.11890
C          0.00300       -1.21620       -4.40270
C          0.95780       -0.42120       -4.96570
S          2.49470       -1.24340       -5.12820
C          0.84180        0.96620       -5.27480
C          1.85120        1.86370       -5.46780
C          1.41210        3.21020       -5.49890
C          2.20840        4.37300       -5.49950
C          3.63830        4.28860       -5.72850
S          4.79100        5.06770       -4.68600
C          6.13420        4.49240       -5.61320
C          7.52910        4.87130       -5.25760
C          7.85970        6.27360       -5.77390
C          5.69930        3.75370       -6.67330
Cl         6.74040        3.03080       -7.83000
C          4.28630        3.62830       -6.73790
Cl         3.49340        2.79680       -8.01260
C          1.56850        5.56670       -5.19040
C          0.16400        5.65750       -5.03880
C         -0.64510        4.51330       -5.14350
C         -2.07910        4.60930       -4.90480
S         -3.09750        5.58840       -5.91700
C         -4.50900        5.22810       -4.98000
C         -5.84660        5.74730       -5.37580
C         -6.42270        4.94430       -6.54370
C         -4.19080        4.39890       -3.94730
C         -2.81270        4.05230       -3.89610
Cl        -2.14950        3.10030       -2.63390
Cl        -5.32200        3.82560       -2.79320
C          0.00720        3.30480       -5.32780
S         -0.73180        1.73320       -5.23180
C         -0.23790        6.90540       -4.51320
C          0.80910        7.72300       -4.18730
S          2.33980        7.06760       -4.74170
C          0.74050        8.68010       -3.12480
C         -0.40930        9.06360       -2.49240
C         -0.22940        9.29990       -1.10830
C         -1.24220        9.29030       -0.13490
C         -2.65140        9.24390       -0.51430
S         -3.76180       10.51040       -0.10090
C         -5.08920        9.69720       -0.85860
C         -6.46450       10.26630       -0.82560
C         -7.19730        9.84340        0.45000
C         -4.67980        8.50750       -1.38200
Cl        -5.70900        7.41250       -2.20790
C         -3.29690        8.24700       -1.18900
Cl        -2.54690        6.78640       -1.70520
C         -0.84580        9.05920        1.17230
C          0.51280        8.95440        1.55450
C          1.53660        9.15240        0.60380
C          2.92430        9.10080        1.01500
S          4.12350        8.16570        0.17090
C          5.36920        8.61280        1.28680
C          6.76750        8.13810        1.10050
C          7.45740        8.89890       -0.03380
C          4.87530        9.45140        2.24170
C          3.48900        9.72180        2.09850
Cl         2.64410       10.78280        3.14860
Cl         5.81570       10.12380        3.51030
C          1.13310        9.22270       -0.72370
S          2.15420        8.92480       -2.10600
C          0.65500        8.29180        2.79910
C         -0.52890        7.85690        3.32270
S         -1.90940        8.47280        2.42530
C         -0.69620        6.69560        4.14490
C          0.20290        5.66620        4.14960
C         -0.34300        4.43810        4.58630
C          0.23030        3.16320        4.42460
C          1.61060        3.00870        4.00730
S          2.04270        1.94750        2.69700
C          3.71980        2.35540        2.81130
C          4.72690        1.75580        1.89100
C          4.40250        0.30580        1.54490
C          3.91750        3.26310        3.80970
Cl         5.45250        3.91180        4.22430
C          2.72750        3.63700        4.48890
Cl         2.73250        4.70690        5.83150
C         -0.63050        2.08160        4.55070
C         -1.98920        2.20110        4.93580
C         -2.52580        3.47430        5.21190
C         -3.90410        3.66790        5.62410
S         -5.23870        2.93270        4.78530
C         -6.40800        3.68870        5.81210
C         -7.86220        3.41520        5.65070
C         -8.24100        2.07660        6.28870
C         -5.78590        4.45500        6.75190
C         -4.36960        4.45560        6.64230
Cl        -3.36510        5.30010        7.74360
Cl        -6.61360        5.34970        7.95930
C         -1.69820        4.56780        4.97460
S         -2.23140        6.22470        4.83780
C         -2.66220        0.95280        4.87460
C         -1.87810       -0.06230        4.41280
S         -0.22100        0.44210        4.15110
C         -2.25230       -1.36570        3.96940
C         -1.49190       -2.16780        3.17140
C         -2.16850       -3.32420        2.71800
C         -1.70460       -4.28580        1.80550
C         -0.41500       -4.10150        1.15480
S          0.85010       -5.28830        1.24060
C          1.93550       -4.31790        0.30840
C          3.34660       -4.72790        0.07030
C          4.26430       -4.14600        1.14870
C          1.33600       -3.14640       -0.04710
Cl         2.08920       -1.93960       -1.00600
C          0.01030       -3.01310        0.44100
Cl        -0.93870       -1.62130        0.11550
C         -2.55390       -5.35210        1.53760
C         -3.84830       -5.46060        2.10050
C         -4.32290       -4.47670        2.98060
C         -5.65310       -4.55410        3.56490
S         -7.08380       -4.62020        2.58070
C         -8.12740       -4.64620        3.96110
C         -9.60450       -4.75250        3.80980
C        -10.03520       -6.21300        3.65370
C         -7.39370       -4.61980        5.10940
C         -5.99110       -4.56100        4.88820
Cl        -4.84920       -4.57240        6.16520
Cl        -8.07720       -4.64470        6.68340
C         -3.46910       -3.42120        3.26990
S         -3.84280       -2.03640        4.26050
C         -4.51800       -6.64050        1.66180
C         -3.77680       -7.37590        0.80950
S         -2.22560       -6.69020        0.47690
H          2.35890      -14.42080        3.32950
H          3.89380      -13.69680        1.35700
H          8.06700      -12.90440       -3.03570
H          6.59200      -13.03200       -4.01190
H          8.04130      -10.42470       -3.34060
H          6.56080      -10.55510       -4.29410
H          8.06850      -11.25010       -4.90230
H         -3.33390       -7.09720        4.39910
H         -1.80630       -6.20260        4.30380
H         -0.88040       -7.59420        6.15670
H         -2.40280       -8.48650        6.24870
H         -2.36190       -6.76820        6.65530
H          0.03080       -7.84950        0.01970
H          3.43200       -6.31880       -2.91150
H          8.17000       -5.04700       -5.84950
H          6.97680       -5.92050       -6.82760
H          6.59680       -7.51410       -4.94570
H          8.29050       -7.50740       -5.44930
H          7.80300       -6.65980       -3.97840
H         -5.04220       -4.72930       -0.73270
H         -6.02600       -3.65920       -1.74760
H         -5.83360       -2.81600        0.60350
H         -4.07710       -2.73060        0.42280
H         -5.11460       -1.67980       -0.54510
H         -0.98650       -0.85800       -4.18490
H          2.88480        1.56960       -5.50240
H          8.21340        4.14520       -5.69970
H          7.64540        4.84840       -4.17260
H          7.76320        6.30890       -6.85600
H          8.87870        6.53970       -5.50630
H          7.18070        7.00370       -5.33990
H         -5.75880        6.79660       -5.66470
H         -6.51530        5.67720       -4.51630
H         -7.40040        5.33190       -6.81680
H         -5.76570        5.01110       -7.40770
H         -6.52730        3.89830       -6.26650
H         -1.25620        7.12100       -4.24980
H         -1.37420        9.05010       -2.96270
H         -6.40750       11.35520       -0.86870
H         -7.01380        9.90840       -1.69860
H         -6.65920       10.19270        1.32790
H         -8.19850       10.26530        0.46230
H         -7.27410        8.76020        0.49870
H          7.31400        8.28790        2.03300
H          6.75980        7.07150        0.86740
H          6.91780        8.75280       -0.96660
H          8.47600        8.54140       -0.15760
H          7.48640        9.96260        0.18870
H          1.60890        8.03500        3.22170
H          1.18460        5.75120        3.72300
H          4.76430        2.34560        0.96940
H          5.70810        1.82260        2.36620
H          4.36180       -0.30020        2.44700
H          3.43980        0.24160        1.04280
H          5.16460       -0.10070        0.88500
H         -8.11190        3.39320        4.58820
H         -8.42340        4.22140        6.12610
H         -9.30480        1.89240        6.16580
H         -7.68910        1.26540        5.81960
H         -8.00970        2.08660        7.35090
H         -3.70410        0.81840        5.10130
H         -0.48140       -1.92270        2.90030
H          3.41680       -5.81640        0.07630
H          3.66110       -4.35900       -0.90820
H          5.29200       -4.44570        0.96310
H          4.21020       -3.06030        1.14100
H          3.96700       -4.50430        2.13130
H        -10.07780       -4.32450        4.69530
H         -9.92190       -4.18470        2.93340
H         -9.57560       -6.65010        2.77030
H         -9.73440       -6.78990        4.52450
H        -11.11510       -6.27420        3.55150
H         -5.50530       -6.91560        1.98390
H         -4.03640       -8.30380        0.33930
