
  xtb     03022211153D
 energy: -317.523716166573 gnorm: 0.000247829140 xtb: 6.4.1 (unknown)
170187  0     0  0            999 V2000
   10.0538  -10.1576    3.2007 C   0  0  0  0  0  0  0  0  0  0  0  0
    8.3650   -9.9478    3.3371 S   0  0  0  0  0  0  0  0  0  0  0  0
    8.4582   -8.2384    2.9934 C   0  0  0  0  0  0  0  0  0  0  0  0
    9.7948   -7.8758    2.7747 C   0  0  0  0  0  0  0  0  0  0  0  0
   10.6967   -8.9813    2.8973 C   0  0  0  0  0  0  0  0  0  0  0  0
   12.0887   -8.7946    2.7068 C   0  0  0  0  0  0  0  0  0  0  0  0
   12.5690   -7.5593    2.3905 C   0  0  0  0  0  0  0  0  0  0  0  0
   13.8723   -7.2431    2.1850 O   0  0  0  0  0  0  0  0  0  0  0  0
   14.8291   -8.2656    2.3031 C   0  0  0  0  0  0  0  0  0  0  0  0
   11.6602   -6.4506    2.2294 C   0  0  0  0  0  0  0  0  0  0  0  0
   12.2656   -5.2871    1.8819 O   0  0  0  0  0  0  0  0  0  0  0  0
   11.4650   -4.1507    1.6782 C   0  0  0  0  0  0  0  0  0  0  0  0
   10.3162   -6.6139    2.4173 C   0  0  0  0  0  0  0  0  0  0  0  0
    7.3017   -7.4245    3.0262 C   0  0  0  0  0  0  0  0  0  0  0  0
    7.4403   -5.7132    3.3060 S   0  0  0  0  0  0  0  0  0  0  0  0
    5.7187   -5.4410    3.2729 C   0  0  0  0  0  0  0  0  0  0  0  0
    5.0604   -6.6673    3.0690 C   0  0  0  0  0  0  0  0  0  0  0  0
    5.9464   -7.7747    2.9243 C   0  0  0  0  0  0  0  0  0  0  0  0
    5.4155   -9.0535    2.6522 C   0  0  0  0  0  0  0  0  0  0  0  0
    4.0642   -9.2415    2.5636 C   0  0  0  0  0  0  0  0  0  0  0  0
    3.4525  -10.4220    2.2975 O   0  0  0  0  0  0  0  0  0  0  0  0
    4.2556  -11.5608    2.1088 C   0  0  0  0  0  0  0  0  0  0  0  0
    3.1702   -8.1366    2.7676 C   0  0  0  0  0  0  0  0  0  0  0  0
    1.8536   -8.4462    2.6802 O   0  0  0  0  0  0  0  0  0  0  0  0
    0.9138   -7.4091    2.8232 C   0  0  0  0  0  0  0  0  0  0  0  0
    3.6698   -6.8878    3.0159 C   0  0  0  0  0  0  0  0  0  0  0  0
    5.1955   -4.1340    3.3213 C   0  0  0  0  0  0  0  0  0  0  0  0
    3.5745   -3.8051    2.7767 S   0  0  0  0  0  0  0  0  0  0  0  0
    3.7510   -2.0816    2.9375 C   0  0  0  0  0  0  0  0  0  0  0  0
    5.0210   -1.7723    3.4336 C   0  0  0  0  0  0  0  0  0  0  0  0
    5.8289   -2.9245    3.6666 C   0  0  0  0  0  0  0  0  0  0  0  0
    7.1128   -2.7583    4.2240 C   0  0  0  0  0  0  0  0  0  0  0  0
    7.5979   -1.5073    4.4907 C   0  0  0  0  0  0  0  0  0  0  0  0
    8.8156   -1.2382    5.0266 O   0  0  0  0  0  0  0  0  0  0  0  0
    9.6488   -2.3182    5.3642 C   0  0  0  0  0  0  0  0  0  0  0  0
    6.7990   -0.3460    4.2130 C   0  0  0  0  0  0  0  0  0  0  0  0
    7.3966    0.8338    4.5057 O   0  0  0  0  0  0  0  0  0  0  0  0
    6.6760    2.0200    4.2753 C   0  0  0  0  0  0  0  0  0  0  0  0
    5.5346   -0.4893    3.7123 C   0  0  0  0  0  0  0  0  0  0  0  0
    2.6669   -1.2744    2.5277 C   0  0  0  0  0  0  0  0  0  0  0  0
    1.4297   -1.7348    2.1495 C   0  0  0  0  0  0  0  0  0  0  0  0
    0.5568   -0.7366    1.6742 C   0  0  0  0  0  0  0  0  0  0  0  0
   -0.7626   -0.8821    1.1999 C   0  0  0  0  0  0  0  0  0  0  0  0
   -1.4300   -2.1719    1.1913 C   0  0  0  0  0  0  0  0  0  0  0  0
   -0.7007   -3.5842    0.4810 S   0  0  0  0  0  0  0  0  0  0  0  0
   -2.0656   -4.5797    0.8563 C   0  0  0  0  0  0  0  0  0  0  0  0
   -2.1232   -6.0095    0.4446 C   0  0  0  0  0  0  0  0  0  0  0  0
   -2.7738   -6.1542   -0.9335 C   0  0  0  0  0  0  0  0  0  0  0  0
   -3.0242   -3.8458    1.4878 C   0  0  0  0  0  0  0  0  0  0  0  0
   -4.5204   -4.4924    2.0234 Cl  0  0  0  0  0  0  0  0  0  0  0  0
   -2.6682   -2.4844    1.6819 C   0  0  0  0  0  0  0  0  0  0  0  0
   -3.6752   -1.3876    2.5301 Cl  0  0  0  0  0  0  0  0  0  0  0  0
   -1.3875    0.2606    0.7167 C   0  0  0  0  0  0  0  0  0  0  0  0
   -0.7780    1.5382    0.7408 C   0  0  0  0  0  0  0  0  0  0  0  0
    0.5098    1.6966    1.2896 C   0  0  0  0  0  0  0  0  0  0  0  0
    1.1270    3.0102    1.3497 C   0  0  0  0  0  0  0  0  0  0  0  0
    2.6922    3.3182    0.6562 S   0  0  0  0  0  0  0  0  0  0  0  0
    2.6331    4.9970    1.0736 C   0  0  0  0  0  0  0  0  0  0  0  0
    3.7215    5.9339    0.6798 C   0  0  0  0  0  0  0  0  0  0  0  0
    3.4238    6.5746   -0.6785 C   0  0  0  0  0  0  0  0  0  0  0  0
    1.4645    5.2857    1.7126 C   0  0  0  0  0  0  0  0  0  0  0  0
    0.6106    4.1622    1.8756 C   0  0  0  0  0  0  0  0  0  0  0  0
   -0.8860    4.2523    2.7145 Cl  0  0  0  0  0  0  0  0  0  0  0  0
    1.0467    6.8525    2.2771 Cl  0  0  0  0  0  0  0  0  0  0  0  0
    1.1559    0.5474    1.7104 C   0  0  0  0  0  0  0  0  0  0  0  0
    2.7736    0.4714    2.3517 S   0  0  0  0  0  0  0  0  0  0  0  0
   -1.5608    2.5164    0.0893 C   0  0  0  0  0  0  0  0  0  0  0  0
   -2.7225    2.0320   -0.4442 C   0  0  0  0  0  0  0  0  0  0  0  0
   -2.9253    0.3209   -0.0964 S   0  0  0  0  0  0  0  0  0  0  0  0
   -3.6972    2.7212   -1.2180 C   0  0  0  0  0  0  0  0  0  0  0  0
   -5.3207    2.1245   -1.3045 S   0  0  0  0  0  0  0  0  0  0  0  0
   -5.8175    3.3907   -2.3732 C   0  0  0  0  0  0  0  0  0  0  0  0
   -4.7626    4.2677   -2.6332 C   0  0  0  0  0  0  0  0  0  0  0  0
   -3.5480    3.8742   -1.9947 C   0  0  0  0  0  0  0  0  0  0  0  0
   -2.3720    4.6192   -2.2373 C   0  0  0  0  0  0  0  0  0  0  0  0
   -2.4179    5.7500   -3.0019 C   0  0  0  0  0  0  0  0  0  0  0  0
   -1.3555    6.5418   -3.2909 O   0  0  0  0  0  0  0  0  0  0  0  0
   -0.1085    6.2175   -2.7280 C   0  0  0  0  0  0  0  0  0  0  0  0
   -3.6678    6.2024   -3.5582 C   0  0  0  0  0  0  0  0  0  0  0  0
   -3.5851    7.3665   -4.2467 O   0  0  0  0  0  0  0  0  0  0  0  0
   -4.7640    7.9048   -4.7934 C   0  0  0  0  0  0  0  0  0  0  0  0
   -4.8044    5.4655   -3.3825 C   0  0  0  0  0  0  0  0  0  0  0  0
   -7.1386    3.4384   -2.9022 C   0  0  0  0  0  0  0  0  0  0  0  0
   -7.5196    3.9216   -4.1212 C   0  0  0  0  0  0  0  0  0  0  0  0
   -8.9163    3.8764   -4.3437 C   0  0  0  0  0  0  0  0  0  0  0  0
   -9.6228    4.2913   -5.4857 C   0  0  0  0  0  0  0  0  0  0  0  0
   -8.9354    4.8793   -6.6219 C   0  0  0  0  0  0  0  0  0  0  0  0
   -7.8224    6.2034   -6.4136 S   0  0  0  0  0  0  0  0  0  0  0  0
   -7.5028    6.3150   -8.1109 C   0  0  0  0  0  0  0  0  0  0  0  0
   -6.5180    7.2900   -8.6566 C   0  0  0  0  0  0  0  0  0  0  0  0
   -5.1353    6.6495   -8.8057 C   0  0  0  0  0  0  0  0  0  0  0  0
   -8.2157    5.3696   -8.7844 C   0  0  0  0  0  0  0  0  0  0  0  0
   -8.1535    5.1647  -10.4863 Cl  0  0  0  0  0  0  0  0  0  0  0  0
   -9.0295    4.5580   -7.9476 C   0  0  0  0  0  0  0  0  0  0  0  0
   -9.9516    3.2517   -8.5627 Cl  0  0  0  0  0  0  0  0  0  0  0  0
  -11.0059    4.1439   -5.4581 C   0  0  0  0  0  0  0  0  0  0  0  0
  -11.6957    3.5793   -4.3593 C   0  0  0  0  0  0  0  0  0  0  0  0
  -10.9824    3.1194   -3.2403 C   0  0  0  0  0  0  0  0  0  0  0  0
  -11.6622    2.4815   -2.1250 C   0  0  0  0  0  0  0  0  0  0  0  0
  -11.4501    3.0318   -0.4905 S   0  0  0  0  0  0  0  0  0  0  0  0
  -12.5200    1.8248    0.1362 C   0  0  0  0  0  0  0  0  0  0  0  0
  -12.7684    1.7011    1.5988 C   0  0  0  0  0  0  0  0  0  0  0  0
  -11.6444    0.9147    2.2776 C   0  0  0  0  0  0  0  0  0  0  0  0
  -12.9930    1.0397   -0.8726 C   0  0  0  0  0  0  0  0  0  0  0  0
  -12.5144    1.4131   -2.1569 C   0  0  0  0  0  0  0  0  0  0  0  0
  -12.9186    0.5482   -3.5837 Cl  0  0  0  0  0  0  0  0  0  0  0  0
  -14.0709   -0.2753   -0.6390 Cl  0  0  0  0  0  0  0  0  0  0  0  0
   -9.6068    3.3029   -3.2489 C   0  0  0  0  0  0  0  0  0  0  0  0
   -8.5085    2.8444   -1.9776 S   0  0  0  0  0  0  0  0  0  0  0  0
  -13.1083    3.6227   -4.5465 C   0  0  0  0  0  0  0  0  0  0  0  0
  -13.4638    4.1827   -5.7202 C   0  0  0  0  0  0  0  0  0  0  0  0
  -12.1183    4.6918   -6.6796 S   0  0  0  0  0  0  0  0  0  0  0  0
   10.4796  -11.1301    3.3444 H   0  0  0  0  0  0  0  0  0  0  0  0
   12.7355   -9.6496    2.8158 H   0  0  0  0  0  0  0  0  0  0  0  0
   14.8371   -8.6939    3.3109 H   0  0  0  0  0  0  0  0  0  0  0  0
   15.7900   -7.7947    2.1031 H   0  0  0  0  0  0  0  0  0  0  0  0
   14.6567   -9.0632    1.5728 H   0  0  0  0  0  0  0  0  0  0  0  0
   10.7514   -4.3003    0.8614 H   0  0  0  0  0  0  0  0  0  0  0  0
   12.1531   -3.3490    1.4156 H   0  0  0  0  0  0  0  0  0  0  0  0
   10.9178   -3.8759    2.5864 H   0  0  0  0  0  0  0  0  0  0  0  0
    9.6416   -5.7883    2.2751 H   0  0  0  0  0  0  0  0  0  0  0  0
    6.0907   -9.8758    2.4971 H   0  0  0  0  0  0  0  0  0  0  0  0
    4.9177  -11.4473    1.2441 H   0  0  0  0  0  0  0  0  0  0  0  0
    4.8570  -11.7800    2.9971 H   0  0  0  0  0  0  0  0  0  0  0  0
    3.5632  -12.3812    1.9282 H   0  0  0  0  0  0  0  0  0  0  0  0
    0.9562   -6.9619    3.8215 H   0  0  0  0  0  0  0  0  0  0  0  0
    1.0622   -6.6256    2.0724 H   0  0  0  0  0  0  0  0  0  0  0  0
   -0.0600   -7.8740    2.6786 H   0  0  0  0  0  0  0  0  0  0  0  0
    3.0021   -6.0635    3.1872 H   0  0  0  0  0  0  0  0  0  0  0  0
    7.6969   -3.6292    4.4616 H   0  0  0  0  0  0  0  0  0  0  0  0
    9.1920   -2.9571    6.1270 H   0  0  0  0  0  0  0  0  0  0  0  0
    9.8942   -2.9274    4.4875 H   0  0  0  0  0  0  0  0  0  0  0  0
   10.5598   -1.8744    5.7619 H   0  0  0  0  0  0  0  0  0  0  0  0
    5.7706    2.0654    4.8889 H   0  0  0  0  0  0  0  0  0  0  0  0
    6.4010    2.1251    3.2208 H   0  0  0  0  0  0  0  0  0  0  0  0
    7.3464    2.8294    4.5589 H   0  0  0  0  0  0  0  0  0  0  0  0
    4.9119    0.3689    3.5296 H   0  0  0  0  0  0  0  0  0  0  0  0
    1.1709   -2.7762    2.2070 H   0  0  0  0  0  0  0  0  0  0  0  0
   -1.1131   -6.4205    0.4154 H   0  0  0  0  0  0  0  0  0  0  0  0
   -2.7080   -6.5632    1.1820 H   0  0  0  0  0  0  0  0  0  0  0  0
   -2.1958   -5.6173   -1.6817 H   0  0  0  0  0  0  0  0  0  0  0  0
   -2.8223   -7.2026   -1.2148 H   0  0  0  0  0  0  0  0  0  0  0  0
   -3.7825   -5.7497   -0.9176 H   0  0  0  0  0  0  0  0  0  0  0  0
    3.8067    6.7146    1.4381 H   0  0  0  0  0  0  0  0  0  0  0  0
    4.6653    5.3894    0.6282 H   0  0  0  0  0  0  0  0  0  0  0  0
    3.3262    5.8087   -1.4442 H   0  0  0  0  0  0  0  0  0  0  0  0
    4.2294    7.2480   -0.9578 H   0  0  0  0  0  0  0  0  0  0  0  0
    2.4970    7.1404   -0.6323 H   0  0  0  0  0  0  0  0  0  0  0  0
   -1.2772    3.5493    0.0433 H   0  0  0  0  0  0  0  0  0  0  0  0
   -1.4394    4.2687   -1.8340 H   0  0  0  0  0  0  0  0  0  0  0  0
    0.2514    5.2434   -3.0758 H   0  0  0  0  0  0  0  0  0  0  0  0
   -0.1494    6.2171   -1.6334 H   0  0  0  0  0  0  0  0  0  0  0  0
    0.5764    6.9946   -3.0633 H   0  0  0  0  0  0  0  0  0  0  0  0
   -5.4985    8.1369   -4.0158 H   0  0  0  0  0  0  0  0  0  0  0  0
   -4.4616    8.8234   -5.2929 H   0  0  0  0  0  0  0  0  0  0  0  0
   -5.2217    7.2267   -5.5212 H   0  0  0  0  0  0  0  0  0  0  0  0
   -5.7479    5.7954   -3.7817 H   0  0  0  0  0  0  0  0  0  0  0  0
   -6.8146    4.2458   -4.8624 H   0  0  0  0  0  0  0  0  0  0  0  0
   -6.4546    8.1521   -7.9906 H   0  0  0  0  0  0  0  0  0  0  0  0
   -6.8655    7.6276   -9.6351 H   0  0  0  0  0  0  0  0  0  0  0  0
   -5.1851    5.8038   -9.4865 H   0  0  0  0  0  0  0  0  0  0  0  0
   -4.7692    6.2983   -7.8438 H   0  0  0  0  0  0  0  0  0  0  0  0
   -4.4296    7.3746   -9.2016 H   0  0  0  0  0  0  0  0  0  0  0  0
  -12.8326    2.6968    2.0414 H   0  0  0  0  0  0  0  0  0  0  0  0
  -13.7196    1.1878    1.7504 H   0  0  0  0  0  0  0  0  0  0  0  0
  -11.5779   -0.0859    1.8580 H   0  0  0  0  0  0  0  0  0  0  0  0
  -11.8370    0.8335    3.3439 H   0  0  0  0  0  0  0  0  0  0  0  0
  -10.6913    1.4168    2.1305 H   0  0  0  0  0  0  0  0  0  0  0  0
  -13.8133    3.2645   -3.8195 H   0  0  0  0  0  0  0  0  0  0  0  0
  -14.4529    4.3381   -6.1043 H   0  0  0  0  0  0  0  0  0  0  0  0
  1  2  1  0  0  0  0
  2  3  1  0  0  0  0
  3  4  2  0  0  0  0
  4  5  1  0  0  0  0
  5  6  1  0  0  0  0
  6  7  2  0  0  0  0
  7  8  1  0  0  0  0
  8  9  1  0  0  0  0
  7 10  1  0  0  0  0
 10 11  1  0  0  0  0
 11 12  1  0  0  0  0
 10 13  2  0  0  0  0
  3 14  1  0  0  0  0
 14 15  1  0  0  0  0
 15 16  1  0  0  0  0
 16 17  2  0  0  0  0
 17 18  1  0  0  0  0
 18 19  1  0  0  0  0
 19 20  2  0  0  0  0
 20 21  1  0  0  0  0
 21 22  1  0  0  0  0
 20 23  1  0  0  0  0
 23 24  1  0  0  0  0
 24 25  1  0  0  0  0
 23 26  2  0  0  0  0
 16 27  1  0  0  0  0
 27 28  1  0  0  0  0
 28 29  1  0  0  0  0
 29 30  2  0  0  0  0
 30 31  1  0  0  0  0
 31 32  1  0  0  0  0
 32 33  2  0  0  0  0
 33 34  1  0  0  0  0
 34 35  1  0  0  0  0
 33 36  1  0  0  0  0
 36 37  1  0  0  0  0
 37 38  1  0  0  0  0
 36 39  2  0  0  0  0
 29 40  1  0  0  0  0
 40 41  2  0  0  0  0
 41 42  1  0  0  0  0
 42 43  2  0  0  0  0
 43 44  1  0  0  0  0
 44 45  1  0  0  0  0
 45 46  1  0  0  0  0
 46 47  1  0  0  0  0
 47 48  1  0  0  0  0
 46 49  2  0  0  0  0
 49 50  1  0  0  0  0
 49 51  1  0  0  0  0
 51 52  1  0  0  0  0
 43 53  1  0  0  0  0
 53 54  2  0  0  0  0
 54 55  1  0  0  0  0
 55 56  1  0  0  0  0
 56 57  1  0  0  0  0
 57 58  1  0  0  0  0
 58 59  1  0  0  0  0
 59 60  1  0  0  0  0
 58 61  2  0  0  0  0
 61 62  1  0  0  0  0
 62 63  1  0  0  0  0
 61 64  1  0  0  0  0
 55 65  2  0  0  0  0
 65 66  1  0  0  0  0
 54 67  1  0  0  0  0
 67 68  2  0  0  0  0
 68 69  1  0  0  0  0
 68 70  1  0  0  0  0
 70 71  1  0  0  0  0
 71 72  1  0  0  0  0
 72 73  2  0  0  0  0
 73 74  1  0  0  0  0
 74 75  1  0  0  0  0
 75 76  2  0  0  0  0
 76 77  1  0  0  0  0
 77 78  1  0  0  0  0
 76 79  1  0  0  0  0
 79 80  1  0  0  0  0
 80 81  1  0  0  0  0
 79 82  2  0  0  0  0
 72 83  1  0  0  0  0
 83 84  2  0  0  0  0
 84 85  1  0  0  0  0
 85 86  2  0  0  0  0
 86 87  1  0  0  0  0
 87 88  1  0  0  0  0
 88 89  1  0  0  0  0
 89 90  1  0  0  0  0
 90 91  1  0  0  0  0
 89 92  2  0  0  0  0
 92 93  1  0  0  0  0
 92 94  1  0  0  0  0
 94 95  1  0  0  0  0
 86 96  1  0  0  0  0
 96 97  2  0  0  0  0
 97 98  1  0  0  0  0
 98 99  1  0  0  0  0
 99100  1  0  0  0  0
100101  1  0  0  0  0
101102  1  0  0  0  0
102103  1  0  0  0  0
101104  2  0  0  0  0
104105  1  0  0  0  0
105106  1  0  0  0  0
104107  1  0  0  0  0
 98108  2  0  0  0  0
108109  1  0  0  0  0
 97110  1  0  0  0  0
110111  2  0  0  0  0
111112  1  0  0  0  0
  5  1  2  0  0  0  0
 18 14  2  0  0  0  0
 31 27  2  0  0  0  0
 66 40  1  0  0  0  0
 74 70  2  0  0  0  0
109 83  1  0  0  0  0
 13  4  1  0  0  0  0
 26 17  1  0  0  0  0
 39 30  1  0  0  0  0
 65 42  1  0  0  0  0
 82 73  1  0  0  0  0
108 85  1  0  0  0  0
 51 44  2  0  0  0  0
 69 53  1  0  0  0  0
 94 87  2  0  0  0  0
112 96  1  0  0  0  0
 62 56  2  0  0  0  0
105 99  2  0  0  0  0
  1113  1  0  0  0  0
  6114  1  0  0  0  0
  9115  1  0  0  0  0
  9116  1  0  0  0  0
  9117  1  0  0  0  0
 12118  1  0  0  0  0
 12119  1  0  0  0  0
 12120  1  0  0  0  0
 13121  1  0  0  0  0
 19122  1  0  0  0  0
 22123  1  0  0  0  0
 22124  1  0  0  0  0
 22125  1  0  0  0  0
 25126  1  0  0  0  0
 25127  1  0  0  0  0
 25128  1  0  0  0  0
 26129  1  0  0  0  0
 32130  1  0  0  0  0
 35131  1  0  0  0  0
 35132  1  0  0  0  0
 35133  1  0  0  0  0
 38134  1  0  0  0  0
 38135  1  0  0  0  0
 38136  1  0  0  0  0
 39137  1  0  0  0  0
 41138  1  0  0  0  0
 47139  1  0  0  0  0
 47140  1  0  0  0  0
 48141  1  0  0  0  0
 48142  1  0  0  0  0
 48143  1  0  0  0  0
 59144  1  0  0  0  0
 59145  1  0  0  0  0
 60146  1  0  0  0  0
 60147  1  0  0  0  0
 60148  1  0  0  0  0
 67149  1  0  0  0  0
 75150  1  0  0  0  0
 78151  1  0  0  0  0
 78152  1  0  0  0  0
 78153  1  0  0  0  0
 81154  1  0  0  0  0
 81155  1  0  0  0  0
 81156  1  0  0  0  0
 82157  1  0  0  0  0
 84158  1  0  0  0  0
 90159  1  0  0  0  0
 90160  1  0  0  0  0
 91161  1  0  0  0  0
 91162  1  0  0  0  0
 91163  1  0  0  0  0
102164  1  0  0  0  0
102165  1  0  0  0  0
103166  1  0  0  0  0
103167  1  0  0  0  0
103168  1  0  0  0  0
110169  1  0  0  0  0
111170  1  0  0  0  0
M  END
