98

N          2.50030        1.66450        3.25210
C          1.77950        1.01520        4.25030
C          1.66920        1.42580        5.54140
S          0.78140        0.31030        6.51240
C          0.53400       -0.72760        5.16060
C          1.11850       -0.24420        4.02640
N          1.11360       -0.80250        2.76820
C          0.38820       -1.87370        2.34520
C          0.31440       -2.32650        1.07240
C          0.95710       -1.82890       -0.09610
S          2.19240       -0.59280       -0.06960
C          2.37890       -0.59850       -1.79760
C          1.52180       -1.51000       -2.37990
C          0.73280       -2.22010       -1.41440
C         -0.20920       -3.17490       -1.86980
C         -0.36410       -3.40860       -3.20400
O         -1.23480       -4.29500       -3.75380
C         -2.09160       -5.00050       -2.89220
C          0.41730       -2.67620       -4.17260
O          0.14380       -2.99720       -5.46600
C          0.87900       -2.35470       -6.47510
C          1.32540       -1.74800       -3.76580
N          3.24440        0.32660       -2.34180
C          4.18330        0.12580       -3.34090
C          4.46910       -1.04390       -3.97810
S          5.72820       -0.86580       -5.13990
C          5.88680        0.80580       -4.76550
C          5.01280        1.21190       -3.80190
N          4.95750        2.51050       -3.30900
C          3.82570        3.02490       -2.69630
C          3.80300        3.87510       -1.66510
N          2.59730        4.36920       -1.16770
C          2.36150        4.60570        0.17390
C          3.26530        4.86010        1.15840
S          2.50520        5.06940        2.69670
C          0.94540        4.81530        2.01060
C          1.00760        4.58880        0.67090
N         -0.04300        4.34560       -0.20930
C         -1.23890        3.70410        0.09890
C         -1.43980        2.84140        1.09890
N         -2.65240        2.18980        1.26780
C         -2.85770        1.09760        2.08180
C         -2.04200        0.63000        3.06660
S         -2.67620       -0.78040        3.83170
C         -4.08280       -0.73540        2.83220
C         -4.05660        0.30660        1.95080
N         -5.00270        0.60980        0.98120
C         -5.96270       -0.28220        0.48530
C         -5.77070       -1.56710        0.16270
N         -4.59910       -2.27740        0.32510
C         -4.48140       -3.63400        0.09900
C         -5.19050       -4.34950       -0.81970
S         -4.76260       -6.01880       -0.82500
C         -3.58260       -5.75460        0.39940
C         -3.54450       -4.45960        0.81990
N         -2.70580       -3.95880        1.80660
C         -2.42420       -4.56600        3.01700
C         -2.88660       -5.72120        3.47640
H          2.80900        2.58810        3.52320
H          2.05130        1.67970        2.34560
H          2.07070        2.31430        5.98480
H         -0.02530       -1.62920        5.29790
H          1.73890       -0.37010        2.10600
H         -0.18320       -2.36290        3.11790
H         -0.31240       -3.18850        0.90170
H         -0.79910       -3.70860       -1.14330
H         -1.53410       -5.64000       -2.19990
H         -2.72950       -4.31990       -2.31910
H         -2.71330       -5.62280       -3.53330
H          0.70210       -1.27340       -6.47680
H          0.52550       -2.77870       -7.41350
H          1.95360       -2.54200       -6.37400
H          1.89590       -1.16740       -4.47070
H          3.49690        1.07170       -1.70480
H          4.03690       -2.00800       -3.80780
H          6.62580        1.39590       -5.26810
H          5.83520        2.97960       -3.14900
H          2.89770        2.69380       -3.14620
H          4.69620        4.24390       -1.18760
H          1.78690        3.98220       -1.63800
H          4.33110        4.92740        1.09680
H          0.07850        4.85480        2.63770
H         -0.08360        4.96810       -1.00160
H         -2.02440        3.88770       -0.62180
H         -0.68390        2.62090        1.83230
H         -3.28850        2.25900        0.48560
H         -1.10180        1.01220        3.40220
H         -4.86240       -1.45470        2.98400
H         -5.28540        1.57840        0.95830
H         -6.92280        0.16290        0.27480
H         -6.59360       -2.13010       -0.24710
H         -3.91290       -1.85190        0.93350
H         -5.94970       -4.00430       -1.49050
H         -2.99050       -6.57670        0.74350
H         -2.52490       -2.96660        1.77920
H         -1.74080       -3.97810        3.61510
H         -2.57520       -6.08170        4.43840
H         -3.59310       -6.32360        2.93630
