108

C          5.42680        1.51770      -12.63700
C          4.60220        1.12490      -11.64060
C          5.25590        1.36780      -10.39720
C          6.49640        1.91570      -10.63210
C          6.71850        2.06210      -12.09400
N          7.19290        2.18720       -9.50340
C          6.43910        1.82580       -8.47740
C          5.09880        1.25130       -8.92670
C          6.95950        2.04970       -7.18590
C          6.52530        1.84110       -5.90140
C          5.39330        1.25480       -5.30600
C          5.22510        1.23350       -3.92360
C          4.03750        0.57470       -3.60360
C          3.41710        0.14580       -4.77450
C          4.22090        0.54920       -5.95310
N          2.25960       -0.50500       -4.57970
C          2.05260       -0.53740       -3.26630
C          3.16760        0.14730       -2.47860
C          0.93600       -1.12820       -2.66980
C         -0.04730       -1.75990       -3.39210
C         -1.18490       -2.35580       -2.85360
S         -1.51910       -2.33440       -1.14370
C         -3.00350       -3.24080       -1.31140
C         -3.24020       -3.52650       -2.67600
C         -2.21800       -3.03740       -3.53190
C         -2.29570       -3.24730       -4.91990
C         -3.36770       -3.91090       -5.45590
O         -3.55180       -4.17610       -6.77370
C         -2.57010       -3.74450       -7.68310
C         -4.41970       -4.37560       -4.60070
O         -5.44020       -4.99260       -5.25240
C         -6.51750       -5.48370       -4.49670
C         -4.34820       -4.18170       -3.24580
C         -3.71050       -3.54850       -0.14230
C         -4.79840       -4.39370        0.05990
C         -5.13810       -4.38780        1.41380
C         -4.28200       -3.54080        2.11450
C         -3.29470       -2.94360        1.18590
N         -4.53250       -3.46640        3.42700
C         -5.56590       -4.26320        3.67950
C         -6.08040       -4.95530        2.41090
C         -6.15740       -4.51370        4.92080
C         -5.90830       -4.00500        6.18010
C         -5.03420       -3.01390        6.63540
C         -4.94000       -2.64950        7.98260
C         -4.01570       -1.61930        8.11720
C         -3.49570       -1.29370        6.86030
C         -4.09280       -2.15980        5.82520
N         -2.60390       -0.29210        6.88350
C         -2.48370        0.09690        8.14570
C         -3.36760       -0.70880        9.09620
C         -1.64400        1.14270        8.55740
C         -0.88040        1.86060        7.67530
C         -0.03280        2.93050        7.99970
C          0.72000        3.65580        7.08920
C          1.43210        4.65050        7.77590
C          1.14870        4.57650        9.13010
C          0.19130        3.47510        9.39520
N          1.79640        5.51050        9.87040
C          2.51970        6.22460        9.04350
C          2.38680        5.77420        7.59360
C          3.33340        7.30670        9.50150
C          4.09120        8.07760        8.71720
H          5.22320        1.46490      -13.69130
H          3.62000        0.70090      -11.75570
H          6.87740        3.10130      -12.38720
H          7.58020        1.49110      -12.44350
H          4.26740        1.84470       -8.54540
H          4.97390        0.21950       -8.60050
H          7.93460        2.51850       -7.26030
H          7.21920        2.20970       -5.15130
H          5.91420        1.66630       -3.21910
H          3.65260        1.21350       -6.60250
H          4.54020       -0.31300       -6.53840
H          3.65400       -0.55420       -1.79840
H          2.78140        0.97890       -1.88700
H          0.85600       -1.07900       -1.59160
H          0.08280       -1.79370       -4.46400
H         -1.50210       -2.87500       -5.54530
H         -2.92050       -4.05960       -8.66460
H         -1.59980       -4.20870       -7.47780
H         -2.46030       -2.65510       -7.66960
H         -6.19250       -6.24590       -3.78010
H         -7.19940       -5.93450       -5.21580
H         -7.03530       -4.67990       -3.96220
H         -5.14840       -4.51060       -2.60910
H         -5.28810       -4.98970       -0.68670
H         -3.35010       -1.85410        1.16440
H         -2.26920       -3.20990        1.44650
H         -6.01380       -6.04110        2.49840
H         -7.12260       -4.69410        2.21890
H         -6.95030       -5.25250        4.87490
H         -6.51490       -4.44150        6.96760
H         -5.50370       -3.10290        8.77990
H         -3.35690       -2.76740        5.29920
H         -4.61820       -1.60110        5.05120
H         -4.07290       -0.06380        9.62270
H         -2.76700       -1.23340        9.84160
H         -1.62460        1.37500        9.61370
H         -0.94660        1.57670        6.63390
H          0.74360        3.47590        6.02920
H         -0.73510        3.83790        9.84270
H          0.60780        2.72050       10.06370
H          3.34790        5.45930        7.18580
H          1.99290        6.57280        6.96400
H          3.29810        7.47560       10.56890
H          4.14350        7.93450        7.65080
H          4.68160        8.88100        9.12090
