157

C         -9.78760        4.52410       -6.32750
S         -8.76790        3.22210       -6.74720
C         -7.59710        3.61430       -5.51250
C         -8.02670        4.75010       -4.80860
C         -9.27990        5.25750       -5.28260
C         -9.87160        6.39510       -4.67860
C         -9.24680        7.01160       -3.63670
O         -9.70620        8.09680       -2.96480
C        -10.93800        8.64680       -3.35770
C         -7.97610        6.51730       -3.16580
O         -7.45450        7.22240       -2.13350
C         -6.24100        6.78710       -1.56930
C         -7.38980        5.42740       -3.74680
C         -6.46300        2.79360       -5.29450
S         -5.52650        2.95910       -3.84070
C         -4.45910        1.65190       -4.23770
C         -4.83210        1.08000       -5.45820
C         -5.94270        1.74050       -6.06800
C         -6.37600        1.31090       -7.34110
C         -5.78610        0.24280       -7.95700
O         -6.12180       -0.24150       -9.17920
C         -7.16070        0.39160       -9.88420
C         -4.72750       -0.47340       -7.30170
O         -4.26030       -1.54770       -7.98800
C         -3.21950       -2.30150       -7.42060
C         -4.26670       -0.05030       -6.08770
C         -3.39600        1.35960       -3.34700
C         -2.30130        0.55450       -3.50720
C         -1.45280        0.49590       -2.37730
C         -0.26220       -0.24120       -2.24030
C          0.17860       -1.14660       -3.30700
C         -0.70360       -2.07050       -3.86190
C         -0.32050       -2.89790       -4.89970
C          0.96670       -2.83320       -5.42030
S          1.57620       -3.77500       -6.77950
C          0.28420       -5.02900       -7.08320
C          0.27350       -6.11560       -6.02460
C          1.84770       -1.91820       -4.84010
F          3.10380       -1.83030       -5.32150
C          1.47840       -1.08940       -3.80510
C          0.44440       -0.06800       -1.06150
C          0.01740        0.80030       -0.02610
C         -1.17350        1.53700       -0.16440
C         -1.59420        2.50080        0.85820
C         -0.69800        3.45500        1.34080
C         -1.08950        4.37210        2.29140
C         -2.38930        4.38400        2.79550
S         -2.77870        5.64070        3.97910
C         -3.89540        4.81320        5.17130
C         -3.25340        3.59440        5.80240
C         -3.28190        3.44970        2.28050
C         -2.89810        2.51420        1.34060
F         -4.57020        3.42430        2.68920
C         -1.89510        1.34100       -1.33020
S         -3.39100        2.12900       -1.75990
C          0.87920        0.75410        1.09550
C          1.94400       -0.08980        0.94440
S          1.91290       -0.89820       -0.61810
C          2.99460       -0.36710        1.86100
S          3.80390       -1.90250        1.81450
C          4.83070       -1.49960        3.15300
C          4.53920       -0.21820        3.62700
C          3.51370        0.43430        2.87990
C          3.16170        1.76330        3.20850
C          3.74160        2.38360        4.27870
O          3.47980        3.65050        4.68810
C          2.50330        4.38650        3.99450
C          4.70090        1.68340        5.09390
O          5.15950        2.39370        6.15740
C          6.09280        1.78180        7.01160
C          5.08540        0.41540        4.76660
C          5.78140       -2.43210        3.64600
S          5.38240       -4.11850        3.75350
C          6.89720       -4.53600        4.50490
C          7.69500       -3.39040        4.63260
C          7.07200       -2.21120        4.12530
C          7.79730       -0.99900        4.06740
C          9.05740       -0.93110        4.58680
O          9.85030        0.17160        4.58660
C          9.37860        1.32780        3.94140
C          9.64510       -2.09080        5.20530
O         10.87690       -1.87760        5.73430
C         11.55280       -2.96890        6.30770
C          8.98100       -3.28480        5.20840
C          7.19150       -5.88460        4.82930
S          8.84170       -6.42760        4.99160
C          8.37560       -8.04740        5.26690
C          7.01030       -8.20010        5.24530
C          6.32190       -6.96870        4.99720
C          4.90990       -6.97170        4.99080
C          4.22170       -8.13620        5.18210
O          2.86980       -8.25160        5.19570
C          2.10000       -7.09580        4.97560
C          4.92020       -9.38030        5.39770
O          4.10500      -10.45380        5.55900
C          4.69790      -11.70940        5.77260
C          6.28170       -9.40110        5.43700
H        -10.69860        4.67930       -6.86940
H        -10.81610        6.74080       -5.06580
H        -10.90780        9.00130       -4.39340
H        -11.10980        9.49090       -2.69210
H        -11.75390        7.92470       -3.24670
H         -6.31670        5.76210       -1.19300
H         -6.04380        7.46400       -0.73990
H         -5.41800        6.84600       -2.28900
H         -6.43110        5.08880       -3.39980
H         -7.16790        1.84500       -7.83300
H         -8.10580        0.34700       -9.33320
H         -7.25880       -0.15890      -10.81830
H         -6.91990        1.43720      -10.10240
H         -2.31480       -1.69990       -7.27730
H         -3.01450       -3.09780       -8.13490
H         -3.51830       -2.73980       -6.46170
H         -3.48380       -0.58810       -5.58590
H         -2.05380        0.05990       -4.42570
H         -1.70350       -2.15420       -3.46250
H         -1.04000       -3.59120       -5.30440
H          0.55460       -5.44030       -8.05580
H         -0.67710       -4.52450       -7.17640
H         -0.48340       -6.86000       -6.26490
H          1.24310       -6.60590       -5.98320
H          0.05780       -5.70350       -5.04130
H          2.19790       -0.39050       -3.40940
H          0.30690        3.48590        0.94770
H         -0.39420        5.11110        2.65970
H         -4.83000        4.56950        4.67120
H         -4.08180        5.58850        5.91460
H         -3.06150        2.82620        5.05550
H         -3.91930        3.17970        6.55650
H         -2.31040        3.86020        6.27580
H         -3.62870        1.80070        0.99340
H          0.66650        1.27200        2.01190
H          2.44790        2.27840        2.59040
H          2.43360        5.34240        4.51100
H          1.52940        3.88610        4.02200
H          2.79270        4.55820        2.95220
H          6.32290        2.52290        7.77510
H          5.67780        0.88670        7.48650
H          7.01240        1.51040        6.48170
H          5.79030       -0.13140        5.36940
H          7.33830       -0.15170        3.58650
H          9.18090        1.14330        2.88060
H          8.46790        1.71440        4.41240
H         10.17420        2.06450        4.03890
H         12.51640       -2.57960        6.63170
H         11.70950       -3.77160        5.57990
H         11.01260       -3.36750        7.17290
H          9.42630       -4.15550        5.65570
H          9.12640       -8.79320        5.43290
H          4.38360       -6.04480        4.84750
H          1.06240       -7.42440        5.00680
H          2.26690       -6.34650        5.75640
H          2.31270       -6.65070        3.99820
H          5.33540      -12.00090        4.93120
H          5.28830      -11.72370        6.69500
H          3.87270      -12.41400        5.86150
H          6.83570      -10.30880        5.61180
