
  xtb     03032206513D
 energy: -474.636014338688 gnorm: 0.000476708663 xtb: 6.4.1 (unknown)
273299  0     0  0            999 V2000
  -18.3942    4.3895    8.3989 C   0  0  0  0  0  0  0  0  0  0  0  0
  -17.4487    5.1508    7.8123 C   0  0  0  0  0  0  0  0  0  0  0  0
  -16.5338    4.3917    7.0227 C   0  0  0  0  0  0  0  0  0  0  0  0
  -15.4371    4.8565    6.2804 C   0  0  0  0  0  0  0  0  0  0  0  0
  -15.1212    6.2875    6.1818 C   0  0  0  0  0  0  0  0  0  0  0  0
  -16.0890    7.2132    5.7950 C   0  0  0  0  0  0  0  0  0  0  0  0
  -15.7802    8.5531    5.7021 C   0  0  0  0  0  0  0  0  0  0  0  0
  -14.4984    9.0254    5.9811 C   0  0  0  0  0  0  0  0  0  0  0  0
  -14.2194   10.7603    5.7795 S   0  0  0  0  0  0  0  0  0  0  0  0
  -13.0881   11.2022    7.1500 C   0  0  0  0  0  0  0  0  0  0  0  0
  -13.6741   10.8588    8.5047 C   0  0  0  0  0  0  0  0  0  0  0  0
  -13.5358    8.0857    6.3355 C   0  0  0  0  0  0  0  0  0  0  0  0
  -12.2597    8.4572    6.5848 F   0  0  0  0  0  0  0  0  0  0  0  0
  -13.8352    6.7433    6.4497 C   0  0  0  0  0  0  0  0  0  0  0  0
  -14.6684    3.8968    5.6382 C   0  0  0  0  0  0  0  0  0  0  0  0
  -14.9726    2.5150    5.6854 C   0  0  0  0  0  0  0  0  0  0  0  0
  -16.0868    2.0508    6.4012 C   0  0  0  0  0  0  0  0  0  0  0  0
  -16.3951    0.6155    6.4170 C   0  0  0  0  0  0  0  0  0  0  0  0
  -16.5641   -0.0833    7.6102 C   0  0  0  0  0  0  0  0  0  0  0  0
  -16.7329   -1.4519    7.6015 C   0  0  0  0  0  0  0  0  0  0  0  0
  -16.7612   -2.1741    6.4097 C   0  0  0  0  0  0  0  0  0  0  0  0
  -16.9565   -3.9275    6.5174 S   0  0  0  0  0  0  0  0  0  0  0  0
  -15.8505   -4.5845    5.2103 C   0  0  0  0  0  0  0  0  0  0  0  0
  -14.4207   -4.1085    5.3651 C   0  0  0  0  0  0  0  0  0  0  0  0
  -16.6690   -1.4520    5.2236 C   0  0  0  0  0  0  0  0  0  0  0  0
  -16.4706   -0.0872    5.2176 C   0  0  0  0  0  0  0  0  0  0  0  0
  -16.7621   -2.0709    4.0251 F   0  0  0  0  0  0  0  0  0  0  0  0
  -16.8319    3.0075    7.0731 C   0  0  0  0  0  0  0  0  0  0  0  0
  -18.2467    2.7015    8.0460 S   0  0  0  0  0  0  0  0  0  0  0  0
  -14.0217    1.7418    4.9758 C   0  0  0  0  0  0  0  0  0  0  0  0
  -13.0511    2.4817    4.3724 C   0  0  0  0  0  0  0  0  0  0  0  0
  -13.2514    4.1990    4.6595 S   0  0  0  0  0  0  0  0  0  0  0  0
  -11.9617    1.9657    3.6115 C   0  0  0  0  0  0  0  0  0  0  0  0
  -10.9663    2.6307    2.9619 C   0  0  0  0  0  0  0  0  0  0  0  0
  -10.0286    1.7711    2.3311 C   0  0  0  0  0  0  0  0  0  0  0  0
   -8.8997    2.1158    1.5681 C   0  0  0  0  0  0  0  0  0  0  0  0
   -8.4953    3.5145    1.3886 C   0  0  0  0  0  0  0  0  0  0  0  0
   -8.3835    4.3712    2.4801 C   0  0  0  0  0  0  0  0  0  0  0  0
   -7.9963    5.6877    2.3217 C   0  0  0  0  0  0  0  0  0  0  0  0
   -7.7035    6.1971    1.0614 C   0  0  0  0  0  0  0  0  0  0  0  0
   -7.2274    7.8535    0.7048 S   0  0  0  0  0  0  0  0  0  0  0  0
   -6.8771    8.5874    2.3396 C   0  0  0  0  0  0  0  0  0  0  0  0
   -5.5849    8.0669    2.9404 C   0  0  0  0  0  0  0  0  0  0  0  0
   -7.8210    5.3261   -0.0244 C   0  0  0  0  0  0  0  0  0  0  0  0
   -7.5574    5.7879   -1.2624 F   0  0  0  0  0  0  0  0  0  0  0  0
   -8.2033    4.0123    0.1201 C   0  0  0  0  0  0  0  0  0  0  0  0
   -8.1776    1.0669    1.0171 C   0  0  0  0  0  0  0  0  0  0  0  0
   -8.5180   -0.2974    1.1993 C   0  0  0  0  0  0  0  0  0  0  0  0
   -9.6418   -0.6413    1.9644 C   0  0  0  0  0  0  0  0  0  0  0  0
  -10.0696   -2.0297    2.1787 C   0  0  0  0  0  0  0  0  0  0  0  0
  -10.3081   -2.8855    1.1076 C   0  0  0  0  0  0  0  0  0  0  0  0
  -10.8055   -4.1582    1.3119 C   0  0  0  0  0  0  0  0  0  0  0  0
  -11.0789   -4.6190    2.5948 C   0  0  0  0  0  0  0  0  0  0  0  0
  -11.7332   -6.2146    2.9743 S   0  0  0  0  0  0  0  0  0  0  0  0
  -12.6829   -6.6485    1.4746 C   0  0  0  0  0  0  0  0  0  0  0  0
  -13.8528   -5.7107    1.2493 C   0  0  0  0  0  0  0  0  0  0  0  0
  -10.7922   -3.7669    3.6610 C   0  0  0  0  0  0  0  0  0  0  0  0
  -10.3046   -2.4937    3.4710 C   0  0  0  0  0  0  0  0  0  0  0  0
  -11.0090   -4.1933    4.9208 F   0  0  0  0  0  0  0  0  0  0  0  0
  -10.3616    0.4068    2.5150 C   0  0  0  0  0  0  0  0  0  0  0  0
  -11.8071    0.2243    3.4682 S   0  0  0  0  0  0  0  0  0  0  0  0
   -7.5704   -1.1668    0.6043 C   0  0  0  0  0  0  0  0  0  0  0  0
   -6.5425   -0.5144   -0.0088 C   0  0  0  0  0  0  0  0  0  0  0  0
   -6.7035    1.2290    0.0972 S   0  0  0  0  0  0  0  0  0  0  0  0
   -5.3915   -1.0832   -0.6270 C   0  0  0  0  0  0  0  0  0  0  0  0
   -4.3246   -0.4259   -1.1632 C   0  0  0  0  0  0  0  0  0  0  0  0
   -3.2838   -1.2842   -1.5969 C   0  0  0  0  0  0  0  0  0  0  0  0
   -2.0507   -0.9249   -2.1711 C   0  0  0  0  0  0  0  0  0  0  0  0
   -1.6364    0.4762   -2.3029 C   0  0  0  0  0  0  0  0  0  0  0  0
   -1.7541    1.3556   -1.2261 C   0  0  0  0  0  0  0  0  0  0  0  0
   -1.3059    2.6546   -1.3259 C   0  0  0  0  0  0  0  0  0  0  0  0
   -0.7268    3.1336   -2.4990 C   0  0  0  0  0  0  0  0  0  0  0  0
   -0.2122    4.8262   -2.5226 S   0  0  0  0  0  0  0  0  0  0  0  0
    1.4071    4.7759   -3.3774 C   0  0  0  0  0  0  0  0  0  0  0  0
    2.3814    3.8407   -2.6900 C   0  0  0  0  0  0  0  0  0  0  0  0
   -0.6391    2.2534   -3.5728 C   0  0  0  0  0  0  0  0  0  0  0  0
   -0.1206    2.6581   -4.7539 F   0  0  0  0  0  0  0  0  0  0  0  0
   -1.0683    0.9449   -3.4831 C   0  0  0  0  0  0  0  0  0  0  0  0
   -1.2077   -1.9650   -2.5300 C   0  0  0  0  0  0  0  0  0  0  0  0
   -1.5229   -3.3275   -2.3066 C   0  0  0  0  0  0  0  0  0  0  0  0
   -2.7656   -3.6903   -1.7558 C   0  0  0  0  0  0  0  0  0  0  0  0
   -3.1111   -5.1041   -1.5780 C   0  0  0  0  0  0  0  0  0  0  0  0
   -3.6333   -5.5896   -0.3831 C   0  0  0  0  0  0  0  0  0  0  0  0
   -3.9193   -6.9314   -0.2190 C   0  0  0  0  0  0  0  0  0  0  0  0
   -3.6977   -7.8410   -1.2470 C   0  0  0  0  0  0  0  0  0  0  0  0
   -3.9784   -9.5780   -1.1576 S   0  0  0  0  0  0  0  0  0  0  0  0
   -5.0925   -9.7735    0.2756 C   0  0  0  0  0  0  0  0  0  0  0  0
   -6.4707   -9.1963    0.0157 C   0  0  0  0  0  0  0  0  0  0  0  0
   -3.1767   -7.3403   -2.4413 C   0  0  0  0  0  0  0  0  0  0  0  0
   -2.8915   -6.0068   -2.6196 C   0  0  0  0  0  0  0  0  0  0  0  0
   -2.9344   -8.1916   -3.4624 F   0  0  0  0  0  0  0  0  0  0  0  0
   -3.6104   -2.6502   -1.4006 C   0  0  0  0  0  0  0  0  0  0  0  0
   -5.1872   -2.8247   -0.6731 S   0  0  0  0  0  0  0  0  0  0  0  0
   -0.4362   -4.1831   -2.6038 C   0  0  0  0  0  0  0  0  0  0  0  0
    0.6712   -3.5375   -3.0802 C   0  0  0  0  0  0  0  0  0  0  0  0
    0.4002   -1.8006   -3.1859 S   0  0  0  0  0  0  0  0  0  0  0  0
    1.9587   -4.0467   -3.3949 C   0  0  0  0  0  0  0  0  0  0  0  0
    3.2400   -2.9089   -3.6610 S   0  0  0  0  0  0  0  0  0  0  0  0
    4.4481   -4.1489   -3.7312 C   0  0  0  0  0  0  0  0  0  0  0  0
    3.8681   -5.4099   -3.5956 C   0  0  0  0  0  0  0  0  0  0  0  0
    2.4481   -5.3579   -3.4352 C   0  0  0  0  0  0  0  0  0  0  0  0
    1.7264   -6.5682   -3.3555 C   0  0  0  0  0  0  0  0  0  0  0  0
    2.3798   -7.7695   -3.3796 C   0  0  0  0  0  0  0  0  0  0  0  0
    1.7868   -8.9813   -3.3033 O   0  0  0  0  0  0  0  0  0  0  0  0
    0.3865   -9.0411   -3.1624 C   0  0  0  0  0  0  0  0  0  0  0  0
    3.8157   -7.8149   -3.5024 C   0  0  0  0  0  0  0  0  0  0  0  0
    4.3369   -9.0625   -3.5033 O   0  0  0  0  0  0  0  0  0  0  0  0
    5.7321   -9.2035   -3.6193 C   0  0  0  0  0  0  0  0  0  0  0  0
    4.5299   -6.6565   -3.6244 C   0  0  0  0  0  0  0  0  0  0  0  0
    5.8047   -3.7394   -3.8410 C   0  0  0  0  0  0  0  0  0  0  0  0
    6.2314   -2.5279   -4.3080 C   0  0  0  0  0  0  0  0  0  0  0  0
    7.6194   -2.3067   -4.1552 C   0  0  0  0  0  0  0  0  0  0  0  0
    8.3316   -1.1371   -4.4645 C   0  0  0  0  0  0  0  0  0  0  0  0
    7.6663   -0.0443   -5.1893 C   0  0  0  0  0  0  0  0  0  0  0  0
    7.1154   -0.2955   -6.4442 C   0  0  0  0  0  0  0  0  0  0  0  0
    6.4608    0.7026   -7.1354 C   0  0  0  0  0  0  0  0  0  0  0  0
    6.3151    1.9703   -6.5858 C   0  0  0  0  0  0  0  0  0  0  0  0
    5.4383    3.2140   -7.5049 S   0  0  0  0  0  0  0  0  0  0  0  0
    4.0458    3.5319   -6.3575 C   0  0  0  0  0  0  0  0  0  0  0  0
    3.2078    2.2877   -6.1412 C   0  0  0  0  0  0  0  0  0  0  0  0
    6.8833    2.2129   -5.3405 C   0  0  0  0  0  0  0  0  0  0  0  0
    6.7672    3.4292   -4.7690 F   0  0  0  0  0  0  0  0  0  0  0  0
    7.5583    1.2290   -4.6440 C   0  0  0  0  0  0  0  0  0  0  0  0
    9.6582   -1.0928   -4.0742 C   0  0  0  0  0  0  0  0  0  0  0  0
   10.3016   -2.1821   -3.4345 C   0  0  0  0  0  0  0  0  0  0  0  0
    9.5972   -3.3670   -3.1512 C   0  0  0  0  0  0  0  0  0  0  0  0
   10.2594   -4.4747   -2.4529 C   0  0  0  0  0  0  0  0  0  0  0  0
   10.2004   -5.7815   -2.9317 C   0  0  0  0  0  0  0  0  0  0  0  0
   10.9012   -6.7902   -2.3040 C   0  0  0  0  0  0  0  0  0  0  0  0
   11.6736   -6.5420   -1.1715 C   0  0  0  0  0  0  0  0  0  0  0  0
   12.5618   -7.8933   -0.4545 S   0  0  0  0  0  0  0  0  0  0  0  0
   14.1993   -7.1627   -0.0784 C   0  0  0  0  0  0  0  0  0  0  0  0
   14.8487   -6.5605   -1.3074 C   0  0  0  0  0  0  0  0  0  0  0  0
   11.6657   -5.2463   -0.6634 C   0  0  0  0  0  0  0  0  0  0  0  0
   10.9853   -4.2244   -1.2912 C   0  0  0  0  0  0  0  0  0  0  0  0
   12.3364   -4.9405    0.4694 F   0  0  0  0  0  0  0  0  0  0  0  0
    8.2660   -3.4004   -3.5284 C   0  0  0  0  0  0  0  0  0  0  0  0
    7.1411   -4.7009   -3.2221 S   0  0  0  0  0  0  0  0  0  0  0  0
   11.6617   -1.9011   -3.1689 C   0  0  0  0  0  0  0  0  0  0  0  0
   12.0504   -0.6468   -3.5427 C   0  0  0  0  0  0  0  0  0  0  0  0
   10.7491    0.2502   -4.2974 S   0  0  0  0  0  0  0  0  0  0  0  0
   13.3365   -0.0713   -3.3076 C   0  0  0  0  0  0  0  0  0  0  0  0
   14.3452   -0.6433   -2.5877 C   0  0  0  0  0  0  0  0  0  0  0  0
   15.4907    0.1785   -2.4585 C   0  0  0  0  0  0  0  0  0  0  0  0
   16.6733   -0.1034   -1.7556 C   0  0  0  0  0  0  0  0  0  0  0  0
   16.8103   -1.3459   -0.9856 C   0  0  0  0  0  0  0  0  0  0  0  0
   15.8199   -1.7354   -0.0824 C   0  0  0  0  0  0  0  0  0  0  0  0
   15.9377   -2.9073    0.6318 C   0  0  0  0  0  0  0  0  0  0  0  0
   17.0430   -3.7432    0.4740 C   0  0  0  0  0  0  0  0  0  0  0  0
   17.0610   -5.2411    1.4102 S   0  0  0  0  0  0  0  0  0  0  0  0
   18.8437   -5.5361    1.7447 C   0  0  0  0  0  0  0  0  0  0  0  0
   18.9701   -6.3974    2.9856 C   0  0  0  0  0  0  0  0  0  0  0  0
   18.0163   -3.3500   -0.4395 C   0  0  0  0  0  0  0  0  0  0  0  0
   19.0936   -4.1314   -0.6817 F   0  0  0  0  0  0  0  0  0  0  0  0
   17.9186   -2.1692   -1.1481 C   0  0  0  0  0  0  0  0  0  0  0  0
   17.6732    0.8558   -1.8201 C   0  0  0  0  0  0  0  0  0  0  0  0
   17.5230    2.0834   -2.5105 C   0  0  0  0  0  0  0  0  0  0  0  0
   16.3279    2.3774   -3.1831 C   0  0  0  0  0  0  0  0  0  0  0  0
   16.1231    3.6586   -3.8716 C   0  0  0  0  0  0  0  0  0  0  0  0
   16.3248    4.8663   -3.2104 C   0  0  0  0  0  0  0  0  0  0  0  0
   16.1147    6.0739   -3.8480 C   0  0  0  0  0  0  0  0  0  0  0  0
   15.6959    6.1158   -5.1731 C   0  0  0  0  0  0  0  0  0  0  0  0
   15.4218    7.5815   -6.1118 S   0  0  0  0  0  0  0  0  0  0  0  0
   15.2392    8.8895   -4.8501 C   0  0  0  0  0  0  0  0  0  0  0  0
   13.9666    8.7327   -4.0401 C   0  0  0  0  0  0  0  0  0  0  0  0
   15.5079    4.8962   -5.8264 C   0  0  0  0  0  0  0  0  0  0  0  0
   15.7064    3.6864   -5.2004 C   0  0  0  0  0  0  0  0  0  0  0  0
   15.1221    4.8987   -7.1167 F   0  0  0  0  0  0  0  0  0  0  0  0
   15.3411    1.4030   -3.1539 C   0  0  0  0  0  0  0  0  0  0  0  0
   13.7643    1.5215   -3.8938 S   0  0  0  0  0  0  0  0  0  0  0  0
   18.7020    2.8827   -2.4203 C   0  0  0  0  0  0  0  0  0  0  0  0
   19.6728    2.3071   -1.6837 C   0  0  0  0  0  0  0  0  0  0  0  0
   19.2368    0.7556   -1.0515 S   0  0  0  0  0  0  0  0  0  0  0  0
  -19.1930    4.7090    9.0393 H   0  0  0  0  0  0  0  0  0  0  0  0
  -17.3786    6.2163    7.9355 H   0  0  0  0  0  0  0  0  0  0  0  0
  -17.0847    6.8743    5.5528 H   0  0  0  0  0  0  0  0  0  0  0  0
  -16.5319    9.2677    5.4047 H   0  0  0  0  0  0  0  0  0  0  0  0
  -12.9699   12.2797    7.0348 H   0  0  0  0  0  0  0  0  0  0  0  0
  -12.1265   10.7209    6.9871 H   0  0  0  0  0  0  0  0  0  0  0  0
  -14.6462   11.3308    8.6310 H   0  0  0  0  0  0  0  0  0  0  0  0
  -13.0092   11.2107    9.2909 H   0  0  0  0  0  0  0  0  0  0  0  0
  -13.7950    9.7827    8.6142 H   0  0  0  0  0  0  0  0  0  0  0  0
  -13.0539    6.0635    6.7518 H   0  0  0  0  0  0  0  0  0  0  0  0
  -16.5203    0.4443    8.5502 H   0  0  0  0  0  0  0  0  0  0  0  0
  -16.8305   -1.9950    8.5284 H   0  0  0  0  0  0  0  0  0  0  0  0
  -15.9214   -5.6628    5.3552 H   0  0  0  0  0  0  0  0  0  0  0  0
  -16.2652   -4.3283    4.2374 H   0  0  0  0  0  0  0  0  0  0  0  0
  -14.0550   -4.3070    6.3699 H   0  0  0  0  0  0  0  0  0  0  0  0
  -14.3381   -3.0406    5.1715 H   0  0  0  0  0  0  0  0  0  0  0  0
  -13.7809   -4.6350    4.6605 H   0  0  0  0  0  0  0  0  0  0  0  0
  -16.3999    0.4232    4.2693 H   0  0  0  0  0  0  0  0  0  0  0  0
  -14.0405    0.6678    4.9300 H   0  0  0  0  0  0  0  0  0  0  0  0
  -10.9180    3.7041    2.9211 H   0  0  0  0  0  0  0  0  0  0  0  0
   -8.5805    3.9970    3.4735 H   0  0  0  0  0  0  0  0  0  0  0  0
   -7.9308    6.3161    3.1948 H   0  0  0  0  0  0  0  0  0  0  0  0
   -7.7372    8.4244    2.9876 H   0  0  0  0  0  0  0  0  0  0  0  0
   -6.8021    9.6539    2.1275 H   0  0  0  0  0  0  0  0  0  0  0  0
   -4.7516    8.2769    2.2742 H   0  0  0  0  0  0  0  0  0  0  0  0
   -5.6311    6.9918    3.1005 H   0  0  0  0  0  0  0  0  0  0  0  0
   -5.3986    8.5537    3.8959 H   0  0  0  0  0  0  0  0  0  0  0  0
   -8.2904    3.3930   -0.7585 H   0  0  0  0  0  0  0  0  0  0  0  0
  -10.1283   -2.5411    0.1003 H   0  0  0  0  0  0  0  0  0  0  0  0
  -10.9849   -4.7930    0.4589 H   0  0  0  0  0  0  0  0  0  0  0  0
  -13.0279   -7.6621    1.6784 H   0  0  0  0  0  0  0  0  0  0  0  0
  -12.0046   -6.6780    0.6229 H   0  0  0  0  0  0  0  0  0  0  0  0
  -13.5095   -4.6892    1.0966 H   0  0  0  0  0  0  0  0  0  0  0  0
  -14.4132   -6.0234    0.3706 H   0  0  0  0  0  0  0  0  0  0  0  0
  -14.5186   -5.7246    2.1092 H   0  0  0  0  0  0  0  0  0  0  0  0
  -10.1063   -1.8751    4.3318 H   0  0  0  0  0  0  0  0  0  0  0  0
   -7.6317   -2.2395    0.6567 H   0  0  0  0  0  0  0  0  0  0  0  0
   -4.2920    0.6455   -1.2489 H   0  0  0  0  0  0  0  0  0  0  0  0
   -2.1629    1.0041   -0.2913 H   0  0  0  0  0  0  0  0  0  0  0  0
   -1.3881    3.3267   -0.4860 H   0  0  0  0  0  0  0  0  0  0  0  0
    1.2495    4.5134   -4.4213 H   0  0  0  0  0  0  0  0  0  0  0  0
    1.7490    5.8093   -3.3216 H   0  0  0  0  0  0  0  0  0  0  0  0
    2.0463    2.8070   -2.7587 H   0  0  0  0  0  0  0  0  0  0  0  0
    3.3595    3.9172   -3.1598 H   0  0  0  0  0  0  0  0  0  0  0  0
    2.4799    4.1015   -1.6382 H   0  0  0  0  0  0  0  0  0  0  0  0
   -0.9789    0.3109   -4.3512 H   0  0  0  0  0  0  0  0  0  0  0  0
   -3.7944   -4.9149    0.4432 H   0  0  0  0  0  0  0  0  0  0  0  0
   -4.3040   -7.2665    0.7305 H   0  0  0  0  0  0  0  0  0  0  0  0
   -5.1428  -10.8540    0.4101 H   0  0  0  0  0  0  0  0  0  0  0  0
   -4.6159   -9.3377    1.1527 H   0  0  0  0  0  0  0  0  0  0  0  0
   -6.9204   -9.6762   -0.8505 H   0  0  0  0  0  0  0  0  0  0  0  0
   -7.1106   -9.3652    0.8797 H   0  0  0  0  0  0  0  0  0  0  0  0
   -6.4175   -8.1260   -0.1736 H   0  0  0  0  0  0  0  0  0  0  0  0
   -2.5211   -5.6718   -3.5759 H   0  0  0  0  0  0  0  0  0  0  0  0
   -0.4665   -5.2323   -2.3874 H   0  0  0  0  0  0  0  0  0  0  0  0
    0.6536   -6.5405   -3.3089 H   0  0  0  0  0  0  0  0  0  0  0  0
    0.0534   -8.5377   -2.2489 H   0  0  0  0  0  0  0  0  0  0  0  0
   -0.1275   -8.6064   -4.0247 H   0  0  0  0  0  0  0  0  0  0  0  0
    0.1403  -10.0989   -3.0975 H   0  0  0  0  0  0  0  0  0  0  0  0
    6.0962   -8.8102   -4.5740 H   0  0  0  0  0  0  0  0  0  0  0  0
    6.2562   -8.7029   -2.7989 H   0  0  0  0  0  0  0  0  0  0  0  0
    5.9232  -10.2741   -3.5729 H   0  0  0  0  0  0  0  0  0  0  0  0
    5.5994   -6.6703   -3.7474 H   0  0  0  0  0  0  0  0  0  0  0  0
    5.5593   -1.7995   -4.7258 H   0  0  0  0  0  0  0  0  0  0  0  0
    7.2087   -1.2802   -6.8768 H   0  0  0  0  0  0  0  0  0  0  0  0
    6.0386    0.5115   -8.1095 H   0  0  0  0  0  0  0  0  0  0  0  0
    3.4715    4.3146   -6.8517 H   0  0  0  0  0  0  0  0  0  0  0  0
    4.4528    3.9230   -5.4266 H   0  0  0  0  0  0  0  0  0  0  0  0
    2.3226    2.5295   -5.5593 H   0  0  0  0  0  0  0  0  0  0  0  0
    2.8881    1.8780   -7.0968 H   0  0  0  0  0  0  0  0  0  0  0  0
    3.7746    1.5244   -5.6100 H   0  0  0  0  0  0  0  0  0  0  0  0
    7.9798    1.4601   -3.6781 H   0  0  0  0  0  0  0  0  0  0  0  0
    9.6333   -5.9981   -3.8238 H   0  0  0  0  0  0  0  0  0  0  0  0
   10.8767   -7.7961   -2.6932 H   0  0  0  0  0  0  0  0  0  0  0  0
   14.7729   -8.0120    0.2911 H   0  0  0  0  0  0  0  0  0  0  0  0
   14.0946   -6.4349    0.7229 H   0  0  0  0  0  0  0  0  0  0  0  0
   14.2795   -5.7066   -1.6712 H   0  0  0  0  0  0  0  0  0  0  0  0
   15.8502   -6.2206   -1.0551 H   0  0  0  0  0  0  0  0  0  0  0  0
   14.9170   -7.2963   -2.1059 H   0  0  0  0  0  0  0  0  0  0  0  0
   11.0039   -3.2398   -0.8497 H   0  0  0  0  0  0  0  0  0  0  0  0
   12.3336   -2.6138   -2.7294 H   0  0  0  0  0  0  0  0  0  0  0  0
   14.2820   -1.6268   -2.1613 H   0  0  0  0  0  0  0  0  0  0  0  0
   14.9659   -1.0958    0.0803 H   0  0  0  0  0  0  0  0  0  0  0  0
   15.1701   -3.2016    1.3307 H   0  0  0  0  0  0  0  0  0  0  0  0
   19.2808   -6.0283    0.8772 H   0  0  0  0  0  0  0  0  0  0  0  0
   19.3088   -4.5624    1.8906 H   0  0  0  0  0  0  0  0  0  0  0  0
   18.4704   -7.3526    2.8398 H   0  0  0  0  0  0  0  0  0  0  0  0
   18.5211   -5.9011    3.8431 H   0  0  0  0  0  0  0  0  0  0  0  0
   20.0209   -6.5824    3.1978 H   0  0  0  0  0  0  0  0  0  0  0  0
   18.6996   -1.9225   -1.8500 H   0  0  0  0  0  0  0  0  0  0  0  0
   16.6317    4.8614   -2.1750 H   0  0  0  0  0  0  0  0  0  0  0  0
   16.2868    6.9872   -3.3018 H   0  0  0  0  0  0  0  0  0  0  0  0
   15.2134    9.8058   -5.4398 H   0  0  0  0  0  0  0  0  0  0  0  0
   16.1323    8.9054   -4.2266 H   0  0  0  0  0  0  0  0  0  0  0  0
   13.1006    8.7435   -4.6976 H   0  0  0  0  0  0  0  0  0  0  0  0
   13.9661    7.7942   -3.4895 H   0  0  0  0  0  0  0  0  0  0  0  0
   13.8758    9.5529   -3.3305 H   0  0  0  0  0  0  0  0  0  0  0  0
   15.5510    2.7759   -5.7572 H   0  0  0  0  0  0  0  0  0  0  0  0
   18.8052    3.8365   -2.9050 H   0  0  0  0  0  0  0  0  0  0  0  0
   20.6500    2.6907   -1.4641 H   0  0  0  0  0  0  0  0  0  0  0  0
  1  2  2  0  0  0  0
  2  3  1  0  0  0  0
  3  4  2  0  0  0  0
  4  5  1  0  0  0  0
  5  6  2  0  0  0  0
  6  7  1  0  0  0  0
  7  8  2  0  0  0  0
  8  9  1  0  0  0  0
  9 10  1  0  0  0  0
 10 11  1  0  0  0  0
  8 12  1  0  0  0  0
 12 13  1  0  0  0  0
 12 14  2  0  0  0  0
  4 15  1  0  0  0  0
 15 16  2  0  0  0  0
 16 17  1  0  0  0  0
 17 18  1  0  0  0  0
 18 19  2  0  0  0  0
 19 20  1  0  0  0  0
 20 21  2  0  0  0  0
 21 22  1  0  0  0  0
 22 23  1  0  0  0  0
 23 24  1  0  0  0  0
 21 25  1  0  0  0  0
 25 26  2  0  0  0  0
 25 27  1  0  0  0  0
 17 28  2  0  0  0  0
 28 29  1  0  0  0  0
 16 30  1  0  0  0  0
 30 31  2  0  0  0  0
 31 32  1  0  0  0  0
 31 33  1  0  0  0  0
 33 34  2  0  0  0  0
 34 35  1  0  0  0  0
 35 36  2  0  0  0  0
 36 37  1  0  0  0  0
 37 38  2  0  0  0  0
 38 39  1  0  0  0  0
 39 40  2  0  0  0  0
 40 41  1  0  0  0  0
 41 42  1  0  0  0  0
 42 43  1  0  0  0  0
 40 44  1  0  0  0  0
 44 45  1  0  0  0  0
 44 46  2  0  0  0  0
 36 47  1  0  0  0  0
 47 48  2  0  0  0  0
 48 49  1  0  0  0  0
 49 50  1  0  0  0  0
 50 51  2  0  0  0  0
 51 52  1  0  0  0  0
 52 53  2  0  0  0  0
 53 54  1  0  0  0  0
 54 55  1  0  0  0  0
 55 56  1  0  0  0  0
 53 57  1  0  0  0  0
 57 58  2  0  0  0  0
 57 59  1  0  0  0  0
 49 60  2  0  0  0  0
 60 61  1  0  0  0  0
 48 62  1  0  0  0  0
 62 63  2  0  0  0  0
 63 64  1  0  0  0  0
 63 65  1  0  0  0  0
 65 66  2  0  0  0  0
 66 67  1  0  0  0  0
 67 68  2  0  0  0  0
 68 69  1  0  0  0  0
 69 70  2  0  0  0  0
 70 71  1  0  0  0  0
 71 72  2  0  0  0  0
 72 73  1  0  0  0  0
 73 74  1  0  0  0  0
 74 75  1  0  0  0  0
 72 76  1  0  0  0  0
 76 77  1  0  0  0  0
 76 78  2  0  0  0  0
 68 79  1  0  0  0  0
 79 80  2  0  0  0  0
 80 81  1  0  0  0  0
 81 82  1  0  0  0  0
 82 83  2  0  0  0  0
 83 84  1  0  0  0  0
 84 85  2  0  0  0  0
 85 86  1  0  0  0  0
 86 87  1  0  0  0  0
 87 88  1  0  0  0  0
 85 89  1  0  0  0  0
 89 90  2  0  0  0  0
 89 91  1  0  0  0  0
 81 92  2  0  0  0  0
 92 93  1  0  0  0  0
 80 94  1  0  0  0  0
 94 95  2  0  0  0  0
 95 96  1  0  0  0  0
 95 97  1  0  0  0  0
 97 98  1  0  0  0  0
 98 99  1  0  0  0  0
 99100  2  0  0  0  0
100101  1  0  0  0  0
101102  1  0  0  0  0
102103  2  0  0  0  0
103104  1  0  0  0  0
104105  1  0  0  0  0
103106  1  0  0  0  0
106107  1  0  0  0  0
107108  1  0  0  0  0
106109  2  0  0  0  0
 99110  1  0  0  0  0
110111  2  0  0  0  0
111112  1  0  0  0  0
112113  2  0  0  0  0
113114  1  0  0  0  0
114115  2  0  0  0  0
115116  1  0  0  0  0
116117  2  0  0  0  0
117118  1  0  0  0  0
118119  1  0  0  0  0
119120  1  0  0  0  0
117121  1  0  0  0  0
121122  1  0  0  0  0
121123  2  0  0  0  0
113124  1  0  0  0  0
124125  2  0  0  0  0
125126  1  0  0  0  0
126127  1  0  0  0  0
127128  2  0  0  0  0
128129  1  0  0  0  0
129130  2  0  0  0  0
130131  1  0  0  0  0
131132  1  0  0  0  0
132133  1  0  0  0  0
130134  1  0  0  0  0
134135  2  0  0  0  0
134136  1  0  0  0  0
126137  2  0  0  0  0
137138  1  0  0  0  0
125139  1  0  0  0  0
139140  2  0  0  0  0
140141  1  0  0  0  0
140142  1  0  0  0  0
142143  2  0  0  0  0
143144  1  0  0  0  0
144145  2  0  0  0  0
145146  1  0  0  0  0
146147  2  0  0  0  0
147148  1  0  0  0  0
148149  2  0  0  0  0
149150  1  0  0  0  0
150151  1  0  0  0  0
151152  1  0  0  0  0
149153  1  0  0  0  0
153154  1  0  0  0  0
153155  2  0  0  0  0
145156  1  0  0  0  0
156157  2  0  0  0  0
157158  1  0  0  0  0
158159  1  0  0  0  0
159160  2  0  0  0  0
160161  1  0  0  0  0
161162  2  0  0  0  0
162163  1  0  0  0  0
163164  1  0  0  0  0
164165  1  0  0  0  0
162166  1  0  0  0  0
166167  2  0  0  0  0
166168  1  0  0  0  0
158169  2  0  0  0  0
169170  1  0  0  0  0
157171  1  0  0  0  0
171172  2  0  0  0  0
172173  1  0  0  0  0
 29  1  1  0  0  0  0
 61 33  1  0  0  0  0
 93 65  1  0  0  0  0
101 97  2  0  0  0  0
138110  1  0  0  0  0
170142  1  0  0  0  0
 28  3  1  0  0  0  0
 60 35  1  0  0  0  0
 92 67  1  0  0  0  0
109100  1  0  0  0  0
137112  1  0  0  0  0
169144  1  0  0  0  0
 14  5  1  0  0  0  0
 32 15  1  0  0  0  0
 46 37  1  0  0  0  0
 64 47  1  0  0  0  0
 78 69  1  0  0  0  0
 96 79  1  0  0  0  0
123114  1  0  0  0  0
141124  1  0  0  0  0
155146  1  0  0  0  0
173156  1  0  0  0  0
 26 18  1  0  0  0  0
 58 50  1  0  0  0  0
 90 82  1  0  0  0  0
135127  1  0  0  0  0
167159  1  0  0  0  0
  1174  1  0  0  0  0
  2175  1  0  0  0  0
  6176  1  0  0  0  0
  7177  1  0  0  0  0
 10178  1  0  0  0  0
 10179  1  0  0  0  0
 11180  1  0  0  0  0
 11181  1  0  0  0  0
 11182  1  0  0  0  0
 14183  1  0  0  0  0
 19184  1  0  0  0  0
 20185  1  0  0  0  0
 23186  1  0  0  0  0
 23187  1  0  0  0  0
 24188  1  0  0  0  0
 24189  1  0  0  0  0
 24190  1  0  0  0  0
 26191  1  0  0  0  0
 30192  1  0  0  0  0
 34193  1  0  0  0  0
 38194  1  0  0  0  0
 39195  1  0  0  0  0
 42196  1  0  0  0  0
 42197  1  0  0  0  0
 43198  1  0  0  0  0
 43199  1  0  0  0  0
 43200  1  0  0  0  0
 46201  1  0  0  0  0
 51202  1  0  0  0  0
 52203  1  0  0  0  0
 55204  1  0  0  0  0
 55205  1  0  0  0  0
 56206  1  0  0  0  0
 56207  1  0  0  0  0
 56208  1  0  0  0  0
 58209  1  0  0  0  0
 62210  1  0  0  0  0
 66211  1  0  0  0  0
 70212  1  0  0  0  0
 71213  1  0  0  0  0
 74214  1  0  0  0  0
 74215  1  0  0  0  0
 75216  1  0  0  0  0
 75217  1  0  0  0  0
 75218  1  0  0  0  0
 78219  1  0  0  0  0
 83220  1  0  0  0  0
 84221  1  0  0  0  0
 87222  1  0  0  0  0
 87223  1  0  0  0  0
 88224  1  0  0  0  0
 88225  1  0  0  0  0
 88226  1  0  0  0  0
 90227  1  0  0  0  0
 94228  1  0  0  0  0
102229  1  0  0  0  0
105230  1  0  0  0  0
105231  1  0  0  0  0
105232  1  0  0  0  0
108233  1  0  0  0  0
108234  1  0  0  0  0
108235  1  0  0  0  0
109236  1  0  0  0  0
111237  1  0  0  0  0
115238  1  0  0  0  0
116239  1  0  0  0  0
119240  1  0  0  0  0
119241  1  0  0  0  0
120242  1  0  0  0  0
120243  1  0  0  0  0
120244  1  0  0  0  0
123245  1  0  0  0  0
128246  1  0  0  0  0
129247  1  0  0  0  0
132248  1  0  0  0  0
132249  1  0  0  0  0
133250  1  0  0  0  0
133251  1  0  0  0  0
133252  1  0  0  0  0
135253  1  0  0  0  0
139254  1  0  0  0  0
143255  1  0  0  0  0
147256  1  0  0  0  0
148257  1  0  0  0  0
151258  1  0  0  0  0
151259  1  0  0  0  0
152260  1  0  0  0  0
152261  1  0  0  0  0
152262  1  0  0  0  0
155263  1  0  0  0  0
160264  1  0  0  0  0
161265  1  0  0  0  0
164266  1  0  0  0  0
164267  1  0  0  0  0
165268  1  0  0  0  0
165269  1  0  0  0  0
165270  1  0  0  0  0
167271  1  0  0  0  0
171272  1  0  0  0  0
172273  1  0  0  0  0
M  END
