
  xtb     03072216183D
 energy: -323.224748317145 gnorm: 0.000357292350 xtb: 6.4.1 (unknown)
186203  0     0  0            999 V2000
    4.9734  -11.5904    8.7784 C   0  0  0  0  0  0  0  0  0  0  0  0
    3.6792  -10.5017    8.5524 S   0  0  0  0  0  0  0  0  0  0  0  0
    4.4885   -9.6904    7.2479 C   0  0  0  0  0  0  0  0  0  0  0  0
    5.7462  -10.2509    7.0287 C   0  0  0  0  0  0  0  0  0  0  0  0
    6.0095  -11.3535    7.9053 C   0  0  0  0  0  0  0  0  0  0  0  0
    7.2329  -12.0634    7.8077 C   0  0  0  0  0  0  0  0  0  0  0  0
    8.1649  -11.6836    6.8893 C   0  0  0  0  0  0  0  0  0  0  0  0
    9.3656  -12.2819    6.6835 O   0  0  0  0  0  0  0  0  0  0  0  0
    9.6973  -13.3918    7.4790 C   0  0  0  0  0  0  0  0  0  0  0  0
    7.9249  -10.5389    6.0420 C   0  0  0  0  0  0  0  0  0  0  0  0
    8.9516  -10.2464    5.2035 O   0  0  0  0  0  0  0  0  0  0  0  0
    8.8192   -9.1417    4.3452 C   0  0  0  0  0  0  0  0  0  0  0  0
    6.7518   -9.8455    6.1211 C   0  0  0  0  0  0  0  0  0  0  0  0
    3.8276   -8.6358    6.5547 C   0  0  0  0  0  0  0  0  0  0  0  0
    4.0583   -8.1627    5.2950 C   0  0  0  0  0  0  0  0  0  0  0  0
    3.2041   -7.1013    4.9098 C   0  0  0  0  0  0  0  0  0  0  0  0
    3.1972   -6.4040    3.6889 C   0  0  0  0  0  0  0  0  0  0  0  0
    4.1228   -6.7482    2.6024 C   0  0  0  0  0  0  0  0  0  0  0  0
    4.2398   -8.0554    2.1394 C   0  0  0  0  0  0  0  0  0  0  0  0
    5.1204   -8.3809    1.1251 C   0  0  0  0  0  0  0  0  0  0  0  0
    5.9234   -7.4085    0.5403 C   0  0  0  0  0  0  0  0  0  0  0  0
    7.0866   -7.6758   -0.7569 S   0  0  0  0  0  0  0  0  0  0  0  0
    7.2502   -9.4919   -0.8540 C   0  0  0  0  0  0  0  0  0  0  0  0
    8.0032  -10.0711    0.3287 C   0  0  0  0  0  0  0  0  0  0  0  0
    5.7796   -6.0980    0.9997 C   0  0  0  0  0  0  0  0  0  0  0  0
    6.5322   -5.1250    0.4446 F   0  0  0  0  0  0  0  0  0  0  0  0
    4.9042   -5.7603    2.0059 C   0  0  0  0  0  0  0  0  0  0  0  0
    2.2854   -5.3693    3.5699 C   0  0  0  0  0  0  0  0  0  0  0  0
    1.3691   -5.0212    4.5928 C   0  0  0  0  0  0  0  0  0  0  0  0
    1.3518   -5.7428    5.8007 C   0  0  0  0  0  0  0  0  0  0  0  0
    0.3592   -5.4423    6.8378 C   0  0  0  0  0  0  0  0  0  0  0  0
    0.7232   -5.2648    8.1687 C   0  0  0  0  0  0  0  0  0  0  0  0
   -0.2187   -4.9670    9.1346 C   0  0  0  0  0  0  0  0  0  0  0  0
   -1.5642   -4.8464    8.8068 C   0  0  0  0  0  0  0  0  0  0  0  0
   -2.8592   -4.4428    9.9328 S   0  0  0  0  0  0  0  0  0  0  0  0
   -2.1416   -4.7935   11.5746 C   0  0  0  0  0  0  0  0  0  0  0  0
   -1.9083   -6.2756   11.7967 C   0  0  0  0  0  0  0  0  0  0  0  0
   -1.9160   -5.0294    7.4689 C   0  0  0  0  0  0  0  0  0  0  0  0
   -0.9881   -5.3224    6.4967 C   0  0  0  0  0  0  0  0  0  0  0  0
   -3.2133   -4.9150    7.1069 F   0  0  0  0  0  0  0  0  0  0  0  0
    2.2926   -6.7514    5.9362 C   0  0  0  0  0  0  0  0  0  0  0  0
    2.5016   -7.7792    7.3310 S   0  0  0  0  0  0  0  0  0  0  0  0
    0.5712   -3.9082    4.2385 C   0  0  0  0  0  0  0  0  0  0  0  0
    0.7993   -3.4368    2.9736 C   0  0  0  0  0  0  0  0  0  0  0  0
    2.0683   -4.3578    2.1675 S   0  0  0  0  0  0  0  0  0  0  0  0
    0.2137   -2.3560    2.2699 C   0  0  0  0  0  0  0  0  0  0  0  0
    0.9992   -1.8145    0.8234 S   0  0  0  0  0  0  0  0  0  0  0  0
   -0.1483   -0.5406    0.5338 C   0  0  0  0  0  0  0  0  0  0  0  0
   -1.1195   -0.5475    1.5574 C   0  0  0  0  0  0  0  0  0  0  0  0
   -0.9261   -1.5842    2.5205 C   0  0  0  0  0  0  0  0  0  0  0  0
   -1.8661   -1.7573    3.5582 C   0  0  0  0  0  0  0  0  0  0  0  0
   -2.9330   -0.9108    3.6813 C   0  0  0  0  0  0  0  0  0  0  0  0
   -3.8894   -0.9891    4.6347 O   0  0  0  0  0  0  0  0  0  0  0  0
   -3.7952   -2.0110    5.5986 C   0  0  0  0  0  0  0  0  0  0  0  0
   -3.0951    0.1727    2.7510 C   0  0  0  0  0  0  0  0  0  0  0  0
   -4.1671    0.9641    2.9845 O   0  0  0  0  0  0  0  0  0  0  0  0
   -4.4260    2.0253    2.0953 C   0  0  0  0  0  0  0  0  0  0  0  0
   -2.2077    0.3333    1.7211 C   0  0  0  0  0  0  0  0  0  0  0  0
   -0.0511    0.2650   -0.6208 C   0  0  0  0  0  0  0  0  0  0  0  0
   -1.3282    1.3669   -1.0452 S   0  0  0  0  0  0  0  0  0  0  0  0
   -0.5619    1.8763   -2.5131 C   0  0  0  0  0  0  0  0  0  0  0  0
    0.6481    1.1962   -2.6903 C   0  0  0  0  0  0  0  0  0  0  0  0
    0.9492    0.3056   -1.6154 C   0  0  0  0  0  0  0  0  0  0  0  0
    2.1651   -0.4068   -1.6482 C   0  0  0  0  0  0  0  0  0  0  0  0
    3.0216   -0.2906   -2.7095 C   0  0  0  0  0  0  0  0  0  0  0  0
    4.2049   -0.9358   -2.8285 O   0  0  0  0  0  0  0  0  0  0  0  0
    4.5903   -1.8275   -1.8088 C   0  0  0  0  0  0  0  0  0  0  0  0
    2.6848    0.5581   -3.8193 C   0  0  0  0  0  0  0  0  0  0  0  0
    3.5915    0.5669   -4.8232 O   0  0  0  0  0  0  0  0  0  0  0  0
    3.3464    1.3865   -5.9413 C   0  0  0  0  0  0  0  0  0  0  0  0
    1.5236    1.2799   -3.7937 C   0  0  0  0  0  0  0  0  0  0  0  0
   -1.2084    2.8668   -3.2931 C   0  0  0  0  0  0  0  0  0  0  0  0
   -0.7326    3.6420   -4.3159 C   0  0  0  0  0  0  0  0  0  0  0  0
   -1.6872    4.5348   -4.8559 C   0  0  0  0  0  0  0  0  0  0  0  0
   -1.5165    5.4263   -5.9306 C   0  0  0  0  0  0  0  0  0  0  0  0
   -0.2727    5.4287   -6.7082 C   0  0  0  0  0  0  0  0  0  0  0  0
    0.4117    6.6047   -6.9964 C   0  0  0  0  0  0  0  0  0  0  0  0
    1.5948    6.5881   -7.7108 C   0  0  0  0  0  0  0  0  0  0  0  0
    2.1399    5.3915   -8.1612 C   0  0  0  0  0  0  0  0  0  0  0  0
    3.6358    5.2186   -9.0773 S   0  0  0  0  0  0  0  0  0  0  0  0
    4.4583    6.8388   -8.9024 C   0  0  0  0  0  0  0  0  0  0  0  0
    4.9825    7.0723   -7.4981 C   0  0  0  0  0  0  0  0  0  0  0  0
    1.4285    4.2221   -7.8887 C   0  0  0  0  0  0  0  0  0  0  0  0
    1.9128    3.0398   -8.3314 F   0  0  0  0  0  0  0  0  0  0  0  0
    0.2500    4.2244   -7.1802 C   0  0  0  0  0  0  0  0  0  0  0  0
   -2.5864    6.2552   -6.2254 C   0  0  0  0  0  0  0  0  0  0  0  0
   -3.8251    6.1994   -5.5386 C   0  0  0  0  0  0  0  0  0  0  0  0
   -4.0098    5.2758   -4.4932 C   0  0  0  0  0  0  0  0  0  0  0  0
   -5.2890    5.1526   -3.7840 C   0  0  0  0  0  0  0  0  0  0  0  0
   -6.4870    5.0090   -4.4779 C   0  0  0  0  0  0  0  0  0  0  0  0
   -7.6901    4.8759   -3.8116 C   0  0  0  0  0  0  0  0  0  0  0  0
   -7.7382    4.8712   -2.4225 C   0  0  0  0  0  0  0  0  0  0  0  0
   -9.1989    4.7311   -1.4462 S   0  0  0  0  0  0  0  0  0  0  0  0
  -10.4731    4.1619   -2.6235 C   0  0  0  0  0  0  0  0  0  0  0  0
  -10.2557    2.7248   -3.0580 C   0  0  0  0  0  0  0  0  0  0  0  0
   -6.5296    5.0163   -1.7393 C   0  0  0  0  0  0  0  0  0  0  0  0
   -5.3258    5.1555   -2.3907 C   0  0  0  0  0  0  0  0  0  0  0  0
   -6.5372    5.0242   -0.3896 F   0  0  0  0  0  0  0  0  0  0  0  0
   -2.9246    4.4778   -4.1695 C   0  0  0  0  0  0  0  0  0  0  0  0
   -2.8897    3.2522   -2.9291 S   0  0  0  0  0  0  0  0  0  0  0  0
   -4.7528    7.1479   -6.0347 C   0  0  0  0  0  0  0  0  0  0  0  0
   -4.2822    7.8974   -7.0757 C   0  0  0  0  0  0  0  0  0  0  0  0
   -2.6306    7.4509   -7.4929 S   0  0  0  0  0  0  0  0  0  0  0  0
   -4.9236    8.9149   -7.8368 C   0  0  0  0  0  0  0  0  0  0  0  0
   -4.1979    9.4175   -9.3326 S   0  0  0  0  0  0  0  0  0  0  0  0
   -5.4481   10.5268   -9.6644 C   0  0  0  0  0  0  0  0  0  0  0  0
   -6.4015   10.5392   -8.6719 C   0  0  0  0  0  0  0  0  0  0  0  0
   -6.1082    9.6216   -7.6098 C   0  0  0  0  0  0  0  0  0  0  0  0
   -6.9858    9.5870   -6.5114 C   0  0  0  0  0  0  0  0  0  0  0  0
   -8.1160   10.3647   -6.4658 C   0  0  0  0  0  0  0  0  0  0  0  0
   -8.8704   10.1871   -5.3467 O   0  0  0  0  0  0  0  0  0  0  0  0
   -9.8547   11.1170   -4.9522 C   0  0  0  0  0  0  0  0  0  0  0  0
   -8.4299   11.2439   -7.5616 C   0  0  0  0  0  0  0  0  0  0  0  0
   -9.5963   11.9532   -7.4731 O   0  0  0  0  0  0  0  0  0  0  0  0
   -9.9353   12.8228   -8.5238 C   0  0  0  0  0  0  0  0  0  0  0  0
   -7.5731   11.3291   -8.6220 C   0  0  0  0  0  0  0  0  0  0  0  0
    4.9064  -12.3476    9.5335 H   0  0  0  0  0  0  0  0  0  0  0  0
    7.3925  -12.8956    8.4734 H   0  0  0  0  0  0  0  0  0  0  0  0
    8.9867  -14.2133    7.3385 H   0  0  0  0  0  0  0  0  0  0  0  0
    9.7380  -13.1271    8.5408 H   0  0  0  0  0  0  0  0  0  0  0  0
   10.6849  -13.7077    7.1475 H   0  0  0  0  0  0  0  0  0  0  0  0
    9.7356   -9.1125    3.7584 H   0  0  0  0  0  0  0  0  0  0  0  0
    8.7162   -8.2057    4.9039 H   0  0  0  0  0  0  0  0  0  0  0  0
    7.9617   -9.2535    3.6728 H   0  0  0  0  0  0  0  0  0  0  0  0
    6.5910   -8.9680    5.5205 H   0  0  0  0  0  0  0  0  0  0  0  0
    4.7954   -8.5762    4.6342 H   0  0  0  0  0  0  0  0  0  0  0  0
    3.6138   -8.8275    2.5610 H   0  0  0  0  0  0  0  0  0  0  0  0
    5.1659   -9.4034    0.7866 H   0  0  0  0  0  0  0  0  0  0  0  0
    7.8069   -9.6457   -1.7784 H   0  0  0  0  0  0  0  0  0  0  0  0
    6.2584   -9.9267   -0.9717 H   0  0  0  0  0  0  0  0  0  0  0  0
    8.9873   -9.6153    0.4064 H   0  0  0  0  0  0  0  0  0  0  0  0
    8.1255  -11.1449    0.2013 H   0  0  0  0  0  0  0  0  0  0  0  0
    7.4682   -9.8915    1.2586 H   0  0  0  0  0  0  0  0  0  0  0  0
    4.8500   -4.7337    2.3310 H   0  0  0  0  0  0  0  0  0  0  0  0
    1.7619   -5.3368    8.4520 H   0  0  0  0  0  0  0  0  0  0  0  0
    0.1099   -4.8164   10.1500 H   0  0  0  0  0  0  0  0  0  0  0  0
   -2.8931   -4.4105   12.2650 H   0  0  0  0  0  0  0  0  0  0  0  0
   -1.2321   -4.2057   11.6928 H   0  0  0  0  0  0  0  0  0  0  0  0
   -2.8416   -6.8224   11.6852 H   0  0  0  0  0  0  0  0  0  0  0  0
   -1.1915   -6.6712   11.0800 H   0  0  0  0  0  0  0  0  0  0  0  0
   -1.5241   -6.4428   12.8012 H   0  0  0  0  0  0  0  0  0  0  0  0
   -1.3200   -5.4838    5.4829 H   0  0  0  0  0  0  0  0  0  0  0  0
   -0.0995   -3.4429    4.9342 H   0  0  0  0  0  0  0  0  0  0  0  0
   -1.7474   -2.5820    4.2365 H   0  0  0  0  0  0  0  0  0  0  0  0
   -2.8719   -1.9300    6.1815 H   0  0  0  0  0  0  0  0  0  0  0  0
   -3.8507   -3.0042    5.1437 H   0  0  0  0  0  0  0  0  0  0  0  0
   -4.6479   -1.8750    6.2605 H   0  0  0  0  0  0  0  0  0  0  0  0
   -4.5799    1.6661    1.0730 H   0  0  0  0  0  0  0  0  0  0  0  0
   -3.6151    2.7605    2.1000 H   0  0  0  0  0  0  0  0  0  0  0  0
   -5.3398    2.4950    2.4540 H   0  0  0  0  0  0  0  0  0  0  0  0
   -2.3367    1.1492    1.0351 H   0  0  0  0  0  0  0  0  0  0  0  0
    2.4304   -1.0417   -0.8241 H   0  0  0  0  0  0  0  0  0  0  0  0
    3.8620   -2.6348   -1.6833 H   0  0  0  0  0  0  0  0  0  0  0  0
    5.5427   -2.2468   -2.1275 H   0  0  0  0  0  0  0  0  0  0  0  0
    4.7238   -1.3118   -0.8526 H   0  0  0  0  0  0  0  0  0  0  0  0
    3.2778    2.4419   -5.6580 H   0  0  0  0  0  0  0  0  0  0  0  0
    4.1983    1.2490   -6.6039 H   0  0  0  0  0  0  0  0  0  0  0  0
    2.4339    1.0926   -6.4677 H   0  0  0  0  0  0  0  0  0  0  0  0
    1.2510    1.8977   -4.6293 H   0  0  0  0  0  0  0  0  0  0  0  0
    0.2891    3.6339   -4.6427 H   0  0  0  0  0  0  0  0  0  0  0  0
    0.0248    7.5477   -6.6426 H   0  0  0  0  0  0  0  0  0  0  0  0
    2.0887    7.5239   -7.9153 H   0  0  0  0  0  0  0  0  0  0  0  0
    5.2790    6.7846   -9.6177 H   0  0  0  0  0  0  0  0  0  0  0  0
    3.7685    7.6172   -9.2261 H   0  0  0  0  0  0  0  0  0  0  0  0
    4.1717    7.0753   -6.7727 H   0  0  0  0  0  0  0  0  0  0  0  0
    5.6835    6.2873   -7.2246 H   0  0  0  0  0  0  0  0  0  0  0  0
    5.4962    8.0306   -7.4493 H   0  0  0  0  0  0  0  0  0  0  0  0
   -0.2692    3.2928   -7.0167 H   0  0  0  0  0  0  0  0  0  0  0  0
   -6.4774    4.9788   -5.5572 H   0  0  0  0  0  0  0  0  0  0  0  0
   -8.5941    4.7781   -4.3904 H   0  0  0  0  0  0  0  0  0  0  0  0
  -11.4009    4.2596   -2.0597 H   0  0  0  0  0  0  0  0  0  0  0  0
  -10.5060    4.8530   -3.4648 H   0  0  0  0  0  0  0  0  0  0  0  0
   -9.3030    2.6106   -3.5707 H   0  0  0  0  0  0  0  0  0  0  0  0
  -11.0531    2.4164   -3.7318 H   0  0  0  0  0  0  0  0  0  0  0  0
  -10.2582    2.0677   -2.1917 H   0  0  0  0  0  0  0  0  0  0  0  0
   -4.4271    5.2794   -1.8079 H   0  0  0  0  0  0  0  0  0  0  0  0
   -5.7411    7.2483   -5.6309 H   0  0  0  0  0  0  0  0  0  0  0  0
   -5.4229   11.1078  -10.5643 H   0  0  0  0  0  0  0  0  0  0  0  0
   -6.7903    8.9607   -5.6587 H   0  0  0  0  0  0  0  0  0  0  0  0
   -9.4681   12.1383   -4.9473 H   0  0  0  0  0  0  0  0  0  0  0  0
  -10.1237   10.8273   -3.9362 H   0  0  0  0  0  0  0  0  0  0  0  0
  -10.7393   11.0686   -5.5906 H   0  0  0  0  0  0  0  0  0  0  0  0
  -10.0528   12.2841   -9.4694 H   0  0  0  0  0  0  0  0  0  0  0  0
   -9.1905   13.6157   -8.6463 H   0  0  0  0  0  0  0  0  0  0  0  0
  -10.8889   13.2651   -8.2393 H   0  0  0  0  0  0  0  0  0  0  0  0
   -7.7675   11.9895   -9.4510 H   0  0  0  0  0  0  0  0  0  0  0  0
  1  2  1  0  0  0  0
  2  3  1  0  0  0  0
  3  4  2  0  0  0  0
  4  5  1  0  0  0  0
  5  6  1  0  0  0  0
  6  7  2  0  0  0  0
  7  8  1  0  0  0  0
  8  9  1  0  0  0  0
  7 10  1  0  0  0  0
 10 11  1  0  0  0  0
 11 12  1  0  0  0  0
 10 13  2  0  0  0  0
  3 14  1  0  0  0  0
 14 15  2  0  0  0  0
 15 16  1  0  0  0  0
 16 17  2  0  0  0  0
 17 18  1  0  0  0  0
 18 19  2  0  0  0  0
 19 20  1  0  0  0  0
 20 21  2  0  0  0  0
 21 22  1  0  0  0  0
 22 23  1  0  0  0  0
 23 24  1  0  0  0  0
 21 25  1  0  0  0  0
 25 26  1  0  0  0  0
 25 27  2  0  0  0  0
 17 28  1  0  0  0  0
 28 29  2  0  0  0  0
 29 30  1  0  0  0  0
 30 31  1  0  0  0  0
 31 32  2  0  0  0  0
 32 33  1  0  0  0  0
 33 34  2  0  0  0  0
 34 35  1  0  0  0  0
 35 36  1  0  0  0  0
 36 37  1  0  0  0  0
 34 38  1  0  0  0  0
 38 39  2  0  0  0  0
 38 40  1  0  0  0  0
 30 41  2  0  0  0  0
 41 42  1  0  0  0  0
 29 43  1  0  0  0  0
 43 44  2  0  0  0  0
 44 45  1  0  0  0  0
 44 46  1  0  0  0  0
 46 47  1  0  0  0  0
 47 48  1  0  0  0  0
 48 49  2  0  0  0  0
 49 50  1  0  0  0  0
 50 51  1  0  0  0  0
 51 52  2  0  0  0  0
 52 53  1  0  0  0  0
 53 54  1  0  0  0  0
 52 55  1  0  0  0  0
 55 56  1  0  0  0  0
 56 57  1  0  0  0  0
 55 58  2  0  0  0  0
 48 59  1  0  0  0  0
 59 60  1  0  0  0  0
 60 61  1  0  0  0  0
 61 62  2  0  0  0  0
 62 63  1  0  0  0  0
 63 64  1  0  0  0  0
 64 65  2  0  0  0  0
 65 66  1  0  0  0  0
 66 67  1  0  0  0  0
 65 68  1  0  0  0  0
 68 69  1  0  0  0  0
 69 70  1  0  0  0  0
 68 71  2  0  0  0  0
 61 72  1  0  0  0  0
 72 73  2  0  0  0  0
 73 74  1  0  0  0  0
 74 75  2  0  0  0  0
 75 76  1  0  0  0  0
 76 77  2  0  0  0  0
 77 78  1  0  0  0  0
 78 79  2  0  0  0  0
 79 80  1  0  0  0  0
 80 81  1  0  0  0  0
 81 82  1  0  0  0  0
 79 83  1  0  0  0  0
 83 84  1  0  0  0  0
 83 85  2  0  0  0  0
 75 86  1  0  0  0  0
 86 87  2  0  0  0  0
 87 88  1  0  0  0  0
 88 89  1  0  0  0  0
 89 90  2  0  0  0  0
 90 91  1  0  0  0  0
 91 92  2  0  0  0  0
 92 93  1  0  0  0  0
 93 94  1  0  0  0  0
 94 95  1  0  0  0  0
 92 96  1  0  0  0  0
 96 97  2  0  0  0  0
 96 98  1  0  0  0  0
 88 99  2  0  0  0  0
 99100  1  0  0  0  0
 87101  1  0  0  0  0
101102  2  0  0  0  0
102103  1  0  0  0  0
102104  1  0  0  0  0
104105  1  0  0  0  0
105106  1  0  0  0  0
106107  2  0  0  0  0
107108  1  0  0  0  0
108109  1  0  0  0  0
109110  2  0  0  0  0
110111  1  0  0  0  0
111112  1  0  0  0  0
110113  1  0  0  0  0
113114  1  0  0  0  0
114115  1  0  0  0  0
113116  2  0  0  0  0
  5  1  2  0  0  0  0
 42 14  1  0  0  0  0
 50 46  2  0  0  0  0
 63 59  2  0  0  0  0
100 72  1  0  0  0  0
108104  2  0  0  0  0
 13  4  1  0  0  0  0
 41 16  1  0  0  0  0
 58 49  1  0  0  0  0
 71 62  1  0  0  0  0
 99 74  1  0  0  0  0
116107  1  0  0  0  0
 27 18  1  0  0  0  0
 45 28  1  0  0  0  0
 85 76  1  0  0  0  0
103 86  1  0  0  0  0
 39 31  1  0  0  0  0
 97 89  1  0  0  0  0
  1117  1  0  0  0  0
  6118  1  0  0  0  0
  9119  1  0  0  0  0
  9120  1  0  0  0  0
  9121  1  0  0  0  0
 12122  1  0  0  0  0
 12123  1  0  0  0  0
 12124  1  0  0  0  0
 13125  1  0  0  0  0
 15126  1  0  0  0  0
 19127  1  0  0  0  0
 20128  1  0  0  0  0
 23129  1  0  0  0  0
 23130  1  0  0  0  0
 24131  1  0  0  0  0
 24132  1  0  0  0  0
 24133  1  0  0  0  0
 27134  1  0  0  0  0
 32135  1  0  0  0  0
 33136  1  0  0  0  0
 36137  1  0  0  0  0
 36138  1  0  0  0  0
 37139  1  0  0  0  0
 37140  1  0  0  0  0
 37141  1  0  0  0  0
 39142  1  0  0  0  0
 43143  1  0  0  0  0
 51144  1  0  0  0  0
 54145  1  0  0  0  0
 54146  1  0  0  0  0
 54147  1  0  0  0  0
 57148  1  0  0  0  0
 57149  1  0  0  0  0
 57150  1  0  0  0  0
 58151  1  0  0  0  0
 64152  1  0  0  0  0
 67153  1  0  0  0  0
 67154  1  0  0  0  0
 67155  1  0  0  0  0
 70156  1  0  0  0  0
 70157  1  0  0  0  0
 70158  1  0  0  0  0
 71159  1  0  0  0  0
 73160  1  0  0  0  0
 77161  1  0  0  0  0
 78162  1  0  0  0  0
 81163  1  0  0  0  0
 81164  1  0  0  0  0
 82165  1  0  0  0  0
 82166  1  0  0  0  0
 82167  1  0  0  0  0
 85168  1  0  0  0  0
 90169  1  0  0  0  0
 91170  1  0  0  0  0
 94171  1  0  0  0  0
 94172  1  0  0  0  0
 95173  1  0  0  0  0
 95174  1  0  0  0  0
 95175  1  0  0  0  0
 97176  1  0  0  0  0
101177  1  0  0  0  0
106178  1  0  0  0  0
109179  1  0  0  0  0
112180  1  0  0  0  0
112181  1  0  0  0  0
112182  1  0  0  0  0
115183  1  0  0  0  0
115184  1  0  0  0  0
115185  1  0  0  0  0
116186  1  0  0  0  0
M  END
