
  xtb     03022200223D
 energy: -365.142696829021 gnorm: 0.000382444828 xtb: 6.4.1 (unknown)
191211  0     0  0            999 V2000
    5.8808  -10.3854   12.4373 C   0  0  0  0  0  0  0  0  0  0  0  0
    4.9218  -10.0351   11.0710 S   0  0  0  0  0  0  0  0  0  0  0  0
    5.8142   -8.5815   10.7233 C   0  0  0  0  0  0  0  0  0  0  0  0
    6.8321   -8.4005   11.6600 C   0  0  0  0  0  0  0  0  0  0  0  0
    6.8609   -9.4426   12.6430 C   0  0  0  0  0  0  0  0  0  0  0  0
    7.8303   -9.4182   13.6773 C   0  0  0  0  0  0  0  0  0  0  0  0
    8.7417   -8.4062   13.7270 C   0  0  0  0  0  0  0  0  0  0  0  0
    9.7157   -8.2607   14.6592 O   0  0  0  0  0  0  0  0  0  0  0  0
    9.8092   -9.2234   15.6788 C   0  0  0  0  0  0  0  0  0  0  0  0
    8.7286   -7.3663   12.7238 C   0  0  0  0  0  0  0  0  0  0  0  0
    9.6987   -6.4353   12.8762 O   0  0  0  0  0  0  0  0  0  0  0  0
    9.7737   -5.3892   11.9371 C   0  0  0  0  0  0  0  0  0  0  0  0
    7.7959   -7.3714   11.7259 C   0  0  0  0  0  0  0  0  0  0  0  0
    5.4268   -7.7930    9.6075 C   0  0  0  0  0  0  0  0  0  0  0  0
    4.5071   -8.1279    8.6502 C   0  0  0  0  0  0  0  0  0  0  0  0
    4.3043   -7.1307    7.6701 C   0  0  0  0  0  0  0  0  0  0  0  0
    3.4058   -7.1370    6.5889 C   0  0  0  0  0  0  0  0  0  0  0  0
    2.4708   -8.2287    6.3781 C   0  0  0  0  0  0  0  0  0  0  0  0
    2.3415   -9.0153    4.8329 S   0  0  0  0  0  0  0  0  0  0  0  0
    1.0802  -10.0644    5.3839 C   0  0  0  0  0  0  0  0  0  0  0  0
    0.4309  -11.0293    4.4548 C   0  0  0  0  0  0  0  0  0  0  0  0
   -0.5046  -10.3049    3.4840 C   0  0  0  0  0  0  0  0  0  0  0  0
    0.7852   -9.8046    6.6887 C   0  0  0  0  0  0  0  0  0  0  0  0
   -0.4215  -10.6343    7.5841 Cl  0  0  0  0  0  0  0  0  0  0  0  0
    1.5741   -8.7685    7.2577 C   0  0  0  0  0  0  0  0  0  0  0  0
    1.3402   -8.2091    8.8636 Cl  0  0  0  0  0  0  0  0  0  0  0  0
    3.4310   -6.0375    5.7413 C   0  0  0  0  0  0  0  0  0  0  0  0
    4.2879   -4.9273    5.9331 C   0  0  0  0  0  0  0  0  0  0  0  0
    5.1711   -4.9079    7.0292 C   0  0  0  0  0  0  0  0  0  0  0  0
    6.0332   -3.7662    7.2853 C   0  0  0  0  0  0  0  0  0  0  0  0
    5.3752   -2.1563    7.3600 S   0  0  0  0  0  0  0  0  0  0  0  0
    6.9139   -1.4544    7.7256 C   0  0  0  0  0  0  0  0  0  0  0  0
    7.0722    0.0192    7.8666 C   0  0  0  0  0  0  0  0  0  0  0  0
    7.1461    0.6924    6.4939 C   0  0  0  0  0  0  0  0  0  0  0  0
    7.8718   -2.4216    7.7769 C   0  0  0  0  0  0  0  0  0  0  0  0
    7.3777   -3.7315    7.5323 C   0  0  0  0  0  0  0  0  0  0  0  0
    8.4167   -5.0927    7.4641 Cl  0  0  0  0  0  0  0  0  0  0  0  0
    9.5273   -2.1154    8.1124 Cl  0  0  0  0  0  0  0  0  0  0  0  0
    5.1493   -6.0100    7.8711 C   0  0  0  0  0  0  0  0  0  0  0  0
    6.0992   -6.1996    9.3136 S   0  0  0  0  0  0  0  0  0  0  0  0
    4.1116   -3.9447    4.9298 C   0  0  0  0  0  0  0  0  0  0  0  0
    3.1390   -4.2579    4.0267 C   0  0  0  0  0  0  0  0  0  0  0  0
    2.3993   -5.8117    4.3577 S   0  0  0  0  0  0  0  0  0  0  0  0
    2.6934   -3.4873    2.9161 C   0  0  0  0  0  0  0  0  0  0  0  0
    1.6556   -3.7713    2.0782 C   0  0  0  0  0  0  0  0  0  0  0  0
    1.4584   -2.8004    1.0688 C   0  0  0  0  0  0  0  0  0  0  0  0
    0.4683   -2.7770    0.0669 C   0  0  0  0  0  0  0  0  0  0  0  0
   -0.4353   -3.8981   -0.1179 C   0  0  0  0  0  0  0  0  0  0  0  0
   -2.1542   -3.6708   -0.2508 S   0  0  0  0  0  0  0  0  0  0  0  0
   -2.4436   -5.3660   -0.4385 C   0  0  0  0  0  0  0  0  0  0  0  0
   -3.8249   -5.9082   -0.5597 C   0  0  0  0  0  0  0  0  0  0  0  0
   -4.4076   -6.2360    0.8172 C   0  0  0  0  0  0  0  0  0  0  0  0
   -1.2683   -6.0549   -0.3947 C   0  0  0  0  0  0  0  0  0  0  0  0
   -1.1551   -7.7607   -0.5418 Cl  0  0  0  0  0  0  0  0  0  0  0  0
   -0.1270   -5.2277   -0.2221 C   0  0  0  0  0  0  0  0  0  0  0  0
    1.4707   -5.8568   -0.2428 Cl  0  0  0  0  0  0  0  0  0  0  0  0
    0.4097   -1.6446   -0.7311 C   0  0  0  0  0  0  0  0  0  0  0  0
    1.3276   -0.5721   -0.6137 C   0  0  0  0  0  0  0  0  0  0  0  0
    2.3384   -0.6108    0.3651 C   0  0  0  0  0  0  0  0  0  0  0  0
    3.2888    0.4819    0.4889 C   0  0  0  0  0  0  0  0  0  0  0  0
    5.0034    0.2013    0.4071 S   0  0  0  0  0  0  0  0  0  0  0  0
    5.3654    1.8883    0.5356 C   0  0  0  0  0  0  0  0  0  0  0  0
    6.7641    2.3930    0.4590 C   0  0  0  0  0  0  0  0  0  0  0  0
    7.1353    2.7519   -0.9822 C   0  0  0  0  0  0  0  0  0  0  0  0
    4.2154    2.6129    0.6360 C   0  0  0  0  0  0  0  0  0  0  0  0
    3.0374    1.8202    0.6194 C   0  0  0  0  0  0  0  0  0  0  0  0
    1.4701    2.4975    0.8226 Cl  0  0  0  0  0  0  0  0  0  0  0  0
    4.1731    4.3251    0.7658 Cl  0  0  0  0  0  0  0  0  0  0  0  0
    2.3795   -1.7305    1.1820 C   0  0  0  0  0  0  0  0  0  0  0  0
    3.4856   -1.9787    2.5038 S   0  0  0  0  0  0  0  0  0  0  0  0
    1.0975    0.4371   -1.5724 C   0  0  0  0  0  0  0  0  0  0  0  0
    0.0274    0.1965   -2.3917 C   0  0  0  0  0  0  0  0  0  0  0  0
   -0.7272   -1.3513   -2.0156 S   0  0  0  0  0  0  0  0  0  0  0  0
   -0.5490    1.0134   -3.3950 C   0  0  0  0  0  0  0  0  0  0  0  0
   -2.1469    0.6285   -3.9455 S   0  0  0  0  0  0  0  0  0  0  0  0
   -2.2532    2.0270   -4.9733 C   0  0  0  0  0  0  0  0  0  0  0  0
   -1.0389    2.7415   -4.9203 C   0  0  0  0  0  0  0  0  0  0  0  0
   -0.0830    2.1734   -4.0259 C   0  0  0  0  0  0  0  0  0  0  0  0
    1.1759    2.7912   -3.8732 C   0  0  0  0  0  0  0  0  0  0  0  0
    1.4711    3.9491   -4.5382 C   0  0  0  0  0  0  0  0  0  0  0  0
    2.6317    4.6383   -4.4294 O   0  0  0  0  0  0  0  0  0  0  0  0
    3.5879    4.1968   -3.4962 C   0  0  0  0  0  0  0  0  0  0  0  0
    0.5160    4.5130   -5.4505 C   0  0  0  0  0  0  0  0  0  0  0  0
    0.9244    5.6432   -6.0756 O   0  0  0  0  0  0  0  0  0  0  0  0
    0.0432    6.2624   -6.9810 C   0  0  0  0  0  0  0  0  0  0  0  0
   -0.6931    3.9014   -5.6420 C   0  0  0  0  0  0  0  0  0  0  0  0
   -3.4625    2.3584   -5.6198 C   0  0  0  0  0  0  0  0  0  0  0  0
   -3.6951    3.9436   -6.2996 S   0  0  0  0  0  0  0  0  0  0  0  0
   -5.3563    3.6500   -6.7093 C   0  0  0  0  0  0  0  0  0  0  0  0
   -5.7195    2.3507   -6.3454 C   0  0  0  0  0  0  0  0  0  0  0  0
   -4.6533    1.6163   -5.7442 C   0  0  0  0  0  0  0  0  0  0  0  0
   -4.8797    0.2785   -5.3631 C   0  0  0  0  0  0  0  0  0  0  0  0
   -6.1135   -0.2930   -5.5207 C   0  0  0  0  0  0  0  0  0  0  0  0
   -6.4328   -1.5626   -5.1760 O   0  0  0  0  0  0  0  0  0  0  0  0
   -5.4400   -2.3666   -4.5851 C   0  0  0  0  0  0  0  0  0  0  0  0
   -7.1945    0.4625   -6.0931 C   0  0  0  0  0  0  0  0  0  0  0  0
   -8.3694   -0.2037   -6.1818 O   0  0  0  0  0  0  0  0  0  0  0  0
   -9.4807    0.4777   -6.7119 C   0  0  0  0  0  0  0  0  0  0  0  0
   -6.9841    1.7485   -6.5061 C   0  0  0  0  0  0  0  0  0  0  0  0
   -6.0782    4.7113   -7.3047 C   0  0  0  0  0  0  0  0  0  0  0  0
   -5.5523    5.9324   -7.6410 C   0  0  0  0  0  0  0  0  0  0  0  0
   -6.4891    6.8415   -8.1757 C   0  0  0  0  0  0  0  0  0  0  0  0
   -6.2651    8.1525   -8.6322 C   0  0  0  0  0  0  0  0  0  0  0  0
   -4.9412    8.7495   -8.5908 C   0  0  0  0  0  0  0  0  0  0  0  0
   -4.0072    8.7930   -7.1223 S   0  0  0  0  0  0  0  0  0  0  0  0
   -2.6898    9.6136   -7.8875 C   0  0  0  0  0  0  0  0  0  0  0  0
   -1.4849   10.0339   -7.1201 C   0  0  0  0  0  0  0  0  0  0  0  0
   -1.6685   11.4389   -6.5409 C   0  0  0  0  0  0  0  0  0  0  0  0
   -2.9745    9.8395   -9.2007 C   0  0  0  0  0  0  0  0  0  0  0  0
   -1.9031   10.6247  -10.2867 Cl  0  0  0  0  0  0  0  0  0  0  0  0
   -4.2457    9.3494   -9.6040 C   0  0  0  0  0  0  0  0  0  0  0  0
   -4.7879    9.4344  -11.2272 Cl  0  0  0  0  0  0  0  0  0  0  0  0
   -7.3703    8.8500   -9.1077 C   0  0  0  0  0  0  0  0  0  0  0  0
   -8.6670    8.2874   -9.1757 C   0  0  0  0  0  0  0  0  0  0  0  0
   -8.8766    6.9558   -8.7771 C   0  0  0  0  0  0  0  0  0  0  0  0
  -10.1762    6.3187   -8.9070 C   0  0  0  0  0  0  0  0  0  0  0  0
  -10.9205    5.4878   -7.5735 S   0  0  0  0  0  0  0  0  0  0  0  0
  -12.3006    5.0431   -8.5189 C   0  0  0  0  0  0  0  0  0  0  0  0
  -13.3883    4.2052   -7.9433 C   0  0  0  0  0  0  0  0  0  0  0  0
  -12.9956    2.7258   -7.9460 C   0  0  0  0  0  0  0  0  0  0  0  0
  -12.1713    5.5079   -9.7932 C   0  0  0  0  0  0  0  0  0  0  0  0
  -10.9710    6.2354  -10.0163 C   0  0  0  0  0  0  0  0  0  0  0  0
  -10.5457    6.8628  -11.5567 Cl  0  0  0  0  0  0  0  0  0  0  0  0
  -13.3352    5.2538  -11.0287 Cl  0  0  0  0  0  0  0  0  0  0  0  0
   -7.7842    6.2763   -8.2603 C   0  0  0  0  0  0  0  0  0  0  0  0
   -7.7932    4.6354   -7.6760 S   0  0  0  0  0  0  0  0  0  0  0  0
   -9.6309    9.2403   -9.6147 C   0  0  0  0  0  0  0  0  0  0  0  0
   -9.0917   10.4493   -9.8733 C   0  0  0  0  0  0  0  0  0  0  0  0
   -7.3850   10.5177   -9.6057 S   0  0  0  0  0  0  0  0  0  0  0  0
    5.6770  -11.2630   13.0176 H   0  0  0  0  0  0  0  0  0  0  0  0
    7.8192  -10.2134   14.4046 H   0  0  0  0  0  0  0  0  0  0  0  0
   10.0172  -10.2191   15.2732 H   0  0  0  0  0  0  0  0  0  0  0  0
   10.6412   -8.9081   16.3061 H   0  0  0  0  0  0  0  0  0  0  0  0
    8.8948   -9.2615   16.2801 H   0  0  0  0  0  0  0  0  0  0  0  0
   10.6174   -4.7757   12.2482 H   0  0  0  0  0  0  0  0  0  0  0  0
    9.9527   -5.7684   10.9261 H   0  0  0  0  0  0  0  0  0  0  0  0
    8.8623   -4.7827   11.9373 H   0  0  0  0  0  0  0  0  0  0  0  0
    7.7922   -6.5995   10.9774 H   0  0  0  0  0  0  0  0  0  0  0  0
    4.0031   -9.0771    8.6459 H   0  0  0  0  0  0  0  0  0  0  0  0
   -0.1341  -11.7547    5.0425 H   0  0  0  0  0  0  0  0  0  0  0  0
    1.1977  -11.5604    3.8872 H   0  0  0  0  0  0  0  0  0  0  0  0
   -1.2852   -9.7823    4.0314 H   0  0  0  0  0  0  0  0  0  0  0  0
   -0.9697  -11.0189    2.8097 H   0  0  0  0  0  0  0  0  0  0  0  0
    0.0520   -9.5793    2.8955 H   0  0  0  0  0  0  0  0  0  0  0  0
    7.9876    0.2207    8.4253 H   0  0  0  0  0  0  0  0  0  0  0  0
    6.2252    0.4246    8.4231 H   0  0  0  0  0  0  0  0  0  0  0  0
    6.2371    0.4986    5.9291 H   0  0  0  0  0  0  0  0  0  0  0  0
    7.9935    0.3087    5.9311 H   0  0  0  0  0  0  0  0  0  0  0  0
    7.2626    1.7664    6.6107 H   0  0  0  0  0  0  0  0  0  0  0  0
    4.6787   -3.0334    4.8709 H   0  0  0  0  0  0  0  0  0  0  0  0
    1.0378   -4.6413    2.2058 H   0  0  0  0  0  0  0  0  0  0  0  0
   -4.4582   -5.1729   -1.0586 H   0  0  0  0  0  0  0  0  0  0  0  0
   -3.7940   -6.8153   -1.1665 H   0  0  0  0  0  0  0  0  0  0  0  0
   -4.4468   -5.3406    1.4329 H   0  0  0  0  0  0  0  0  0  0  0  0
   -3.7915   -6.9772    1.3197 H   0  0  0  0  0  0  0  0  0  0  0  0
   -5.4138   -6.6323    0.7118 H   0  0  0  0  0  0  0  0  0  0  0  0
    6.8543    3.2807    1.0882 H   0  0  0  0  0  0  0  0  0  0  0  0
    7.4452    1.6273    0.8325 H   0  0  0  0  0  0  0  0  0  0  0  0
    7.0539    1.8765   -1.6218 H   0  0  0  0  0  0  0  0  0  0  0  0
    6.4697    3.5235   -1.3613 H   0  0  0  0  0  0  0  0  0  0  0  0
    8.1565    3.1206   -1.0236 H   0  0  0  0  0  0  0  0  0  0  0  0
    1.6900    1.3277   -1.6137 H   0  0  0  0  0  0  0  0  0  0  0  0
    1.9112    2.3308   -3.2403 H   0  0  0  0  0  0  0  0  0  0  0  0
    3.1753    4.1674   -2.4823 H   0  0  0  0  0  0  0  0  0  0  0  0
    4.3945    4.9268   -3.5361 H   0  0  0  0  0  0  0  0  0  0  0  0
    3.9822    3.2087   -3.7566 H   0  0  0  0  0  0  0  0  0  0  0  0
    0.5589    7.1564   -7.3271 H   0  0  0  0  0  0  0  0  0  0  0  0
   -0.8974    6.5461   -6.4973 H   0  0  0  0  0  0  0  0  0  0  0  0
   -0.1738    5.6158   -7.8372 H   0  0  0  0  0  0  0  0  0  0  0  0
   -1.3840    4.2987   -6.3619 H   0  0  0  0  0  0  0  0  0  0  0  0
   -4.0690   -0.2990   -4.9581 H   0  0  0  0  0  0  0  0  0  0  0  0
   -5.0674   -1.9280   -3.6538 H   0  0  0  0  0  0  0  0  0  0  0  0
   -5.9245   -3.3177   -4.3709 H   0  0  0  0  0  0  0  0  0  0  0  0
   -4.5992   -2.5334   -5.2658 H   0  0  0  0  0  0  0  0  0  0  0  0
   -9.7235    1.3669   -6.1208 H   0  0  0  0  0  0  0  0  0  0  0  0
  -10.3082   -0.2281   -6.6644 H   0  0  0  0  0  0  0  0  0  0  0  0
   -9.3130    0.7723   -7.7529 H   0  0  0  0  0  0  0  0  0  0  0  0
   -7.7759    2.3209   -6.9559 H   0  0  0  0  0  0  0  0  0  0  0  0
   -4.5120    6.1632   -7.5019 H   0  0  0  0  0  0  0  0  0  0  0  0
   -1.3053    9.3269   -6.3089 H   0  0  0  0  0  0  0  0  0  0  0  0
   -0.6230   10.0277   -7.7904 H   0  0  0  0  0  0  0  0  0  0  0  0
   -0.7809   11.7329   -5.9875 H   0  0  0  0  0  0  0  0  0  0  0  0
   -1.8356   12.1565   -7.3399 H   0  0  0  0  0  0  0  0  0  0  0  0
   -2.5231   11.4611   -5.8690 H   0  0  0  0  0  0  0  0  0  0  0  0
  -13.5896    4.5245   -6.9192 H   0  0  0  0  0  0  0  0  0  0  0  0
  -14.2918    4.3469   -8.5388 H   0  0  0  0  0  0  0  0  0  0  0  0
  -12.0940    2.5739   -7.3571 H   0  0  0  0  0  0  0  0  0  0  0  0
  -13.7963    2.1260   -7.5220 H   0  0  0  0  0  0  0  0  0  0  0  0
  -12.8075    2.3883   -8.9620 H   0  0  0  0  0  0  0  0  0  0  0  0
  -10.6788    9.0237   -9.7087 H   0  0  0  0  0  0  0  0  0  0  0  0
   -9.5920   11.3352  -10.2123 H   0  0  0  0  0  0  0  0  0  0  0  0
  1  2  1  0  0  0  0
  2  3  1  0  0  0  0
  3  4  2  0  0  0  0
  4  5  1  0  0  0  0
  5  6  1  0  0  0  0
  6  7  2  0  0  0  0
  7  8  1  0  0  0  0
  8  9  1  0  0  0  0
  7 10  1  0  0  0  0
 10 11  1  0  0  0  0
 11 12  1  0  0  0  0
 10 13  2  0  0  0  0
  3 14  1  0  0  0  0
 14 15  2  0  0  0  0
 15 16  1  0  0  0  0
 16 17  2  0  0  0  0
 17 18  1  0  0  0  0
 18 19  1  0  0  0  0
 19 20  1  0  0  0  0
 20 21  1  0  0  0  0
 21 22  1  0  0  0  0
 20 23  2  0  0  0  0
 23 24  1  0  0  0  0
 23 25  1  0  0  0  0
 25 26  1  0  0  0  0
 17 27  1  0  0  0  0
 27 28  2  0  0  0  0
 28 29  1  0  0  0  0
 29 30  1  0  0  0  0
 30 31  1  0  0  0  0
 31 32  1  0  0  0  0
 32 33  1  0  0  0  0
 33 34  1  0  0  0  0
 32 35  2  0  0  0  0
 35 36  1  0  0  0  0
 36 37  1  0  0  0  0
 35 38  1  0  0  0  0
 29 39  2  0  0  0  0
 39 40  1  0  0  0  0
 28 41  1  0  0  0  0
 41 42  2  0  0  0  0
 42 43  1  0  0  0  0
 42 44  1  0  0  0  0
 44 45  2  0  0  0  0
 45 46  1  0  0  0  0
 46 47  2  0  0  0  0
 47 48  1  0  0  0  0
 48 49  1  0  0  0  0
 49 50  1  0  0  0  0
 50 51  1  0  0  0  0
 51 52  1  0  0  0  0
 50 53  2  0  0  0  0
 53 54  1  0  0  0  0
 53 55  1  0  0  0  0
 55 56  1  0  0  0  0
 47 57  1  0  0  0  0
 57 58  2  0  0  0  0
 58 59  1  0  0  0  0
 59 60  1  0  0  0  0
 60 61  1  0  0  0  0
 61 62  1  0  0  0  0
 62 63  1  0  0  0  0
 63 64  1  0  0  0  0
 62 65  2  0  0  0  0
 65 66  1  0  0  0  0
 66 67  1  0  0  0  0
 65 68  1  0  0  0  0
 59 69  2  0  0  0  0
 69 70  1  0  0  0  0
 58 71  1  0  0  0  0
 71 72  2  0  0  0  0
 72 73  1  0  0  0  0
 72 74  1  0  0  0  0
 74 75  1  0  0  0  0
 75 76  1  0  0  0  0
 76 77  2  0  0  0  0
 77 78  1  0  0  0  0
 78 79  1  0  0  0  0
 79 80  2  0  0  0  0
 80 81  1  0  0  0  0
 81 82  1  0  0  0  0
 80 83  1  0  0  0  0
 83 84  1  0  0  0  0
 84 85  1  0  0  0  0
 83 86  2  0  0  0  0
 76 87  1  0  0  0  0
 87 88  1  0  0  0  0
 88 89  1  0  0  0  0
 89 90  2  0  0  0  0
 90 91  1  0  0  0  0
 91 92  1  0  0  0  0
 92 93  2  0  0  0  0
 93 94  1  0  0  0  0
 94 95  1  0  0  0  0
 93 96  1  0  0  0  0
 96 97  1  0  0  0  0
 97 98  1  0  0  0  0
 96 99  2  0  0  0  0
 89100  1  0  0  0  0
100101  2  0  0  0  0
101102  1  0  0  0  0
102103  2  0  0  0  0
103104  1  0  0  0  0
104105  1  0  0  0  0
105106  1  0  0  0  0
106107  1  0  0  0  0
107108  1  0  0  0  0
106109  2  0  0  0  0
109110  1  0  0  0  0
109111  1  0  0  0  0
111112  1  0  0  0  0
103113  1  0  0  0  0
113114  2  0  0  0  0
114115  1  0  0  0  0
115116  1  0  0  0  0
116117  1  0  0  0  0
117118  1  0  0  0  0
118119  1  0  0  0  0
119120  1  0  0  0  0
118121  2  0  0  0  0
121122  1  0  0  0  0
122123  1  0  0  0  0
121124  1  0  0  0  0
115125  2  0  0  0  0
125126  1  0  0  0  0
114127  1  0  0  0  0
127128  2  0  0  0  0
128129  1  0  0  0  0
  5  1  2  0  0  0  0
 40 14  1  0  0  0  0
 70 44  1  0  0  0  0
 78 74  2  0  0  0  0
 91 87  2  0  0  0  0
126100  1  0  0  0  0
 13  4  1  0  0  0  0
 39 16  1  0  0  0  0
 69 46  1  0  0  0  0
 86 77  1  0  0  0  0
 99 90  1  0  0  0  0
125102  1  0  0  0  0
 25 18  2  0  0  0  0
 43 27  1  0  0  0  0
 55 48  2  0  0  0  0
 73 57  1  0  0  0  0
111104  2  0  0  0  0
129113  1  0  0  0  0
 36 30  2  0  0  0  0
 66 60  2  0  0  0  0
122116  2  0  0  0  0
  1130  1  0  0  0  0
  6131  1  0  0  0  0
  9132  1  0  0  0  0
  9133  1  0  0  0  0
  9134  1  0  0  0  0
 12135  1  0  0  0  0
 12136  1  0  0  0  0
 12137  1  0  0  0  0
 13138  1  0  0  0  0
 15139  1  0  0  0  0
 21140  1  0  0  0  0
 21141  1  0  0  0  0
 22142  1  0  0  0  0
 22143  1  0  0  0  0
 22144  1  0  0  0  0
 33145  1  0  0  0  0
 33146  1  0  0  0  0
 34147  1  0  0  0  0
 34148  1  0  0  0  0
 34149  1  0  0  0  0
 41150  1  0  0  0  0
 45151  1  0  0  0  0
 51152  1  0  0  0  0
 51153  1  0  0  0  0
 52154  1  0  0  0  0
 52155  1  0  0  0  0
 52156  1  0  0  0  0
 63157  1  0  0  0  0
 63158  1  0  0  0  0
 64159  1  0  0  0  0
 64160  1  0  0  0  0
 64161  1  0  0  0  0
 71162  1  0  0  0  0
 79163  1  0  0  0  0
 82164  1  0  0  0  0
 82165  1  0  0  0  0
 82166  1  0  0  0  0
 85167  1  0  0  0  0
 85168  1  0  0  0  0
 85169  1  0  0  0  0
 86170  1  0  0  0  0
 92171  1  0  0  0  0
 95172  1  0  0  0  0
 95173  1  0  0  0  0
 95174  1  0  0  0  0
 98175  1  0  0  0  0
 98176  1  0  0  0  0
 98177  1  0  0  0  0
 99178  1  0  0  0  0
101179  1  0  0  0  0
107180  1  0  0  0  0
107181  1  0  0  0  0
108182  1  0  0  0  0
108183  1  0  0  0  0
108184  1  0  0  0  0
119185  1  0  0  0  0
119186  1  0  0  0  0
120187  1  0  0  0  0
120188  1  0  0  0  0
120189  1  0  0  0  0
127190  1  0  0  0  0
128191  1  0  0  0  0
M  END
