113

C          1.97160        2.49820        2.40930
S          1.91350        1.33530        1.13610
C          2.56460        2.47550       -0.03040
C          2.81170        3.67160        0.59310
C          2.47140        3.67820        1.96700
C          2.74690        5.01540        2.57650
C          3.67490        5.67310        1.53790
C          3.35720        5.00270        0.18590
C          2.69890        2.05210       -1.38470
C          3.07490        2.82000       -2.42870
C          3.06370        2.36510       -3.77860
S          2.73120        0.69180       -4.17960
C          2.55510        1.05130       -5.88610
C          2.88220        2.36290       -6.10510
C          3.15220        3.09880       -4.93480
C          3.39270        4.53760       -5.26070
C          3.64900        4.49930       -6.78040
C          2.91850        3.24880       -7.30770
C          2.13700        0.07320       -6.85390
C          1.24100       -0.91540       -6.66960
C          0.44290       -1.13810       -5.49530
S         -0.22050        0.17550       -4.54250
C         -0.78140       -0.91400       -3.28690
C         -0.58270       -2.21050       -3.69280
C          0.08630       -2.33180       -4.92600
C          0.35120       -3.76760       -5.24350
C         -0.59960       -4.50510       -4.28000
C         -0.82600       -3.55440       -3.08760
C         -1.17720       -0.42920       -2.01320
C         -1.06610        0.86490       -1.63720
C         -1.26690        1.35100       -0.32220
S         -1.58840        0.28030        1.02850
C         -1.60950        1.60430        2.17810
C         -1.38520        2.78910        1.50570
C         -1.18930        2.64950        0.12790
C         -0.88470        3.96460       -0.51100
C         -1.27730        4.97770        0.58370
C         -1.24800        4.21660        1.92560
C         -1.68030        1.47090        3.59130
C         -1.79170        0.36660        4.36820
C         -2.07360       -0.97710        3.97870
S         -1.21950       -2.26780        4.76490
C         -2.00220       -3.49990        3.81760
C         -2.93750       -2.91840        2.95520
C         -2.98980       -1.49640        3.06830
C         -3.95620       -0.76680        2.33940
C         -4.77140       -1.40960        1.45300
O         -5.71330       -0.81470        0.67730
C         -5.80020        0.58740        0.70780
C         -4.66810       -2.83480        1.28040
O         -5.51320       -3.34850        0.35000
C         -5.48450       -4.73510        0.12080
C         -3.78710       -3.56240        2.02960
C         -1.63640       -4.85450        4.02170
S         -2.46300       -6.19810        3.25250
C         -1.46400       -7.39680        4.05450
C         -0.54680       -6.75990        4.84870
C         -0.64000       -5.35620        4.83060
C          0.39010       -4.74060        5.71870
C          1.35730       -5.90890        5.98940
C          0.55560       -7.20390        5.75470
C         -1.71670       -8.78360        3.79300
C         -1.14700       -9.81180        4.42060
H          1.63290        2.21960        3.38740
H          1.81640        5.58140        2.68020
H          3.20870        4.94670        3.56130
H          3.54920        6.75450        1.49970
H          4.71220        5.46290        1.80320
H          4.24450        4.92370       -0.44270
H          2.59950        5.56900       -0.36470
H          2.42480        1.02200       -1.57550
H          3.32980        3.86060       -2.28880
H          4.23190        4.96540       -4.71140
H          2.50090        5.12750       -5.02920
H          4.71990        4.38820       -6.95820
H          3.31660        5.41000       -7.27670
H          3.43330        2.79440       -8.15480
H          1.90010        3.49140       -7.62390
H          2.60160        0.17210       -7.82810
H          1.09940       -1.63820       -7.46460
H          1.39570       -4.00980       -5.02810
H          0.15810       -4.01490       -6.28790
H         -1.55220       -4.67950       -4.78310
H         -0.20090       -5.46910       -3.96740
H         -0.09980       -3.74220       -2.29150
H         -1.82460       -3.65390       -2.66150
H         -1.49100       -1.17350       -1.29220
H         -0.75680        1.60360       -2.36690
H          0.18350        4.02050       -0.74040
H         -1.43520        4.12590       -1.43830
H         -2.29120        5.33430        0.39590
H         -0.61500        5.84250        0.59340
H         -0.29400        4.35860        2.44050
H         -2.04430        4.54160        2.59680
H         -1.51860        2.41170        4.10600
H         -1.58660        0.49410        5.42520
H         -4.03120        0.29340        2.51160
H         -6.11360        0.95110        1.69240
H         -4.84630        1.05250        0.43770
H         -6.55540        0.85240       -0.03050
H         -6.22110       -4.91920       -0.65960
H         -4.49870       -5.06570       -0.22320
H         -5.75770       -5.29760        1.01950
H         -3.72690       -4.63090        1.92240
H         -0.07580       -4.38380        6.64170
H          0.89360       -3.89200        5.25480
H          1.78030       -5.86580        6.99180
H          2.17990       -5.86360        5.27430
H          1.17110       -7.98860        5.31420
H          0.13660       -7.58360        6.69090
H         -2.44960       -8.97020        3.01790
H         -0.43020       -9.67830        5.21020
H         -1.39290      -10.82600        4.15910
