104

C          5.93600        0.86100        7.79180
S          4.39260        1.58920        7.97390
C          3.96530        1.18220        6.34280
C          4.99760        0.50950        5.71220
C          6.12680        0.32470        6.55180
S          7.63780       -0.48490        6.13640
C          7.14740       -1.41750        4.63630
C          7.08320       -0.39940        3.53130
O          7.98860       -0.18930        2.76930
C          5.79740        0.41660        3.48190
O          4.82030        0.05680        4.43390
C          2.71200        1.47350        5.74150
S          2.39820        0.96550        4.11410
C          0.78390        1.63100        4.14950
C          0.52170        2.21850        5.37800
C          1.62050        2.13780        6.26480
S          1.66670        2.86620        7.87820
C          0.42740        1.80010        8.69750
C         -0.74760        1.58840        7.77750
O         -1.27600        0.52040        7.63570
C         -1.16130        2.82480        6.98000
O         -0.70830        2.74900        5.63720
C         -0.04260        1.45930        3.00410
S          0.28170        0.09220        1.98090
C         -1.04890        0.45130        0.92900
C         -1.67660        1.63580        1.32300
C         -1.10950        2.20820        2.50140
C         -1.59850        3.44810        2.96730
C         -2.61990        4.07600        2.31210
O         -3.17650        5.25750        2.67940
C         -2.68460        5.89210        3.83330
C         -3.17380        3.50900        1.10980
O         -4.15430        4.25130        0.53600
C         -4.71960        3.79180       -0.66650
C         -2.69480        2.32510        0.62660
C         -1.35790       -0.39420       -0.16800
S         -0.09790       -1.09990       -1.12530
C         -1.22120       -1.82380       -2.24290
C         -2.54250       -1.56220       -1.83770
C         -2.61250       -0.76690       -0.65690
C         -3.85860       -0.50530       -0.04600
C         -5.01230       -0.94960       -0.62550
O         -6.26330       -0.75620       -0.13660
C         -6.39850       -0.08690        1.09280
C         -4.95390       -1.69980       -1.85110
O         -6.16160       -2.07560       -2.33490
C         -6.20260       -2.85320       -3.50690
C         -3.74770       -2.00450       -2.42240
C         -0.73920       -2.52960       -3.36960
S         -1.82880       -3.14190       -4.59280
C         -0.52680       -3.77210       -5.54680
C          0.68910       -3.53670       -4.93820
C          0.57740       -2.81630       -3.72500
S          1.93710       -2.29670       -2.73180
C          3.36500       -2.49960       -3.86830
C          3.65290       -3.97350       -3.86980
O          4.50990       -4.49120       -3.20480
C          2.69660       -4.78590       -4.73200
O          1.83230       -4.00480       -5.52610
C         -0.75950       -4.45900       -6.77440
S         -2.16120       -5.47380       -6.97240
C         -1.66030       -5.93040       -8.54740
C         -0.47050       -5.36710       -8.90250
C          0.03890       -4.49360       -7.89440
S          1.48040       -3.50360       -8.07530
C          1.08920       -2.73130       -9.70500
C          1.37190       -3.70040      -10.81650
O          2.39270       -3.68140      -11.45190
C          0.27710       -4.73720      -11.08320
O          0.16250       -5.71140      -10.06220
H          6.62690        0.85610        8.60930
H          7.94860       -2.13340        4.46270
H          6.19840       -1.91660        4.82110
H          5.32970        0.25040        2.50620
H          6.05510        1.48240        3.55400
H          0.87650        0.84860        8.98440
H          0.11330        2.34210        9.59040
H         -0.79700        3.74170        7.45820
H         -2.25240        2.85080        6.89960
H         -1.14720        3.88070        3.84010
H         -3.28790        6.79030        3.95470
H         -2.79240        5.25580        4.71780
H         -1.63260        6.17340        3.71880
H         -5.19430        2.81210       -0.54400
H         -3.97240        3.72900       -1.46410
H         -5.47560        4.52730       -0.93580
H         -3.05680        1.90800       -0.29760
H         -3.86590        0.02450        0.89130
H         -7.46800       -0.05320        1.29300
H         -6.00630        0.93490        1.04440
H         -5.89340       -0.62540        1.90090
H         -5.76260       -2.32280       -4.35740
H         -5.68660       -3.80930       -3.37330
H         -7.25840       -3.03540       -3.69950
H         -3.71480       -2.60090       -3.31530
H          4.17540       -1.93650       -3.41010
H          3.10680       -2.10800       -4.84960
H          3.28900       -5.38150       -5.43360
H          2.13840       -5.47950       -4.08750
H         -2.23780       -6.62950       -9.11770
H          1.76300       -1.87820       -9.77130
H          0.05060       -2.40590       -9.67790
H         -0.68270       -4.22520      -11.24350
H          0.54690       -5.30140      -11.97960
