
  xtb     03032215543D
 energy: -145.665299105842 gnorm: 0.000198659060 xtb: 6.4.1 (unknown)
 76 83  0     0  0            999 V2000
    1.8495   -4.9400    2.3876 C   0  0  0  0  0  0  0  0  0  0  0  0
    0.1471   -4.9059    2.2333 S   0  0  0  0  0  0  0  0  0  0  0  0
    0.1872   -3.5793    1.1012 C   0  0  0  0  0  0  0  0  0  0  0  0
    1.5139   -3.2097    0.8550 C   0  0  0  0  0  0  0  0  0  0  0  0
    2.4545   -3.9869    1.6051 C   0  0  0  0  0  0  0  0  0  0  0  0
    3.8432   -3.7221    1.4958 C   0  0  0  0  0  0  0  0  0  0  0  0
    4.2799   -2.7480    0.6507 C   0  0  0  0  0  0  0  0  0  0  0  0
    5.5793   -2.3820    0.4703 O   0  0  0  0  0  0  0  0  0  0  0  0
    6.5664   -3.0710    1.1935 C   0  0  0  0  0  0  0  0  0  0  0  0
    3.3410   -2.0146   -0.1629 C   0  0  0  0  0  0  0  0  0  0  0  0
    3.9211   -1.1358   -1.0198 O   0  0  0  0  0  0  0  0  0  0  0  0
    3.0904   -0.4232   -1.9016 C   0  0  0  0  0  0  0  0  0  0  0  0
    1.9992   -2.2426   -0.0524 C   0  0  0  0  0  0  0  0  0  0  0  0
   -1.0109   -2.9672    0.6527 C   0  0  0  0  0  0  0  0  0  0  0  0
   -1.0075   -1.2990    0.1597 S   0  0  0  0  0  0  0  0  0  0  0  0
   -2.7282   -1.2628   -0.0681 C   0  0  0  0  0  0  0  0  0  0  0  0
   -3.2897   -2.5077    0.2132 C   0  0  0  0  0  0  0  0  0  0  0  0
   -2.3176   -3.4712    0.6229 C   0  0  0  0  0  0  0  0  0  0  0  0
   -2.7384   -4.7858    0.9224 C   0  0  0  0  0  0  0  0  0  0  0  0
   -4.0616   -5.1194    0.8597 C   0  0  0  0  0  0  0  0  0  0  0  0
   -4.5748   -6.3475    1.1352 O   0  0  0  0  0  0  0  0  0  0  0  0
   -3.6908   -7.3565    1.5540 C   0  0  0  0  0  0  0  0  0  0  0  0
   -5.0399   -4.1384    0.4748 C   0  0  0  0  0  0  0  0  0  0  0  0
   -6.3203   -4.5957    0.4593 O   0  0  0  0  0  0  0  0  0  0  0  0
   -7.3352   -3.6970    0.0901 C   0  0  0  0  0  0  0  0  0  0  0  0
   -4.6522   -2.8695    0.1525 C   0  0  0  0  0  0  0  0  0  0  0  0
   -3.2666   -0.0057   -0.4546 C   0  0  0  0  0  0  0  0  0  0  0  0
   -2.3710    1.0205   -0.4642 O   0  0  0  0  0  0  0  0  0  0  0  0
   -3.0021    2.1526   -0.8360 C   0  0  0  0  0  0  0  0  0  0  0  0
   -4.3321    1.8742   -1.0820 C   0  0  0  0  0  0  0  0  0  0  0  0
   -4.5035    0.4976   -0.8399 C   0  0  0  0  0  0  0  0  0  0  0  0
   -5.6679   -0.1947   -0.9708 O   0  0  0  0  0  0  0  0  0  0  0  0
   -2.2203    3.3443   -0.8846 C   0  0  0  0  0  0  0  0  0  0  0  0
   -0.9068    3.2465   -0.5395 O   0  0  0  0  0  0  0  0  0  0  0  0
   -0.3635    4.4751   -0.6481 C   0  0  0  0  0  0  0  0  0  0  0  0
   -1.3086    5.3890   -1.0627 C   0  0  0  0  0  0  0  0  0  0  0  0
   -2.5046    4.6626   -1.2151 C   0  0  0  0  0  0  0  0  0  0  0  0
   -3.6846    5.1907   -1.6128 O   0  0  0  0  0  0  0  0  0  0  0  0
    1.0210    4.6203   -0.3499 C   0  0  0  0  0  0  0  0  0  0  0  0
    1.7211    3.5188    0.0501 O   0  0  0  0  0  0  0  0  0  0  0  0
    3.0065    3.8953    0.2403 C   0  0  0  0  0  0  0  0  0  0  0  0
    3.1539    5.2376   -0.0271 C   0  0  0  0  0  0  0  0  0  0  0  0
    1.8782    5.7054   -0.4050 C   0  0  0  0  0  0  0  0  0  0  0  0
    1.5200    6.9602   -0.7592 O   0  0  0  0  0  0  0  0  0  0  0  0
    3.9268    2.8849    0.6540 C   0  0  0  0  0  0  0  0  0  0  0  0
    5.2608    3.1371    0.7401 O   0  0  0  0  0  0  0  0  0  0  0  0
    5.8494    1.9926    1.1219 C   0  0  0  0  0  0  0  0  0  0  0  0
    4.9419    0.9941    1.2981 C   0  0  0  0  0  0  0  0  0  0  0  0
    3.6808    1.5649    0.9971 C   0  0  0  0  0  0  0  0  0  0  0  0
    2.4972    0.9298    1.0566 O   0  0  0  0  0  0  0  0  0  0  0  0
    2.3072   -5.6565    3.0393 H   0  0  0  0  0  0  0  0  0  0  0  0
    4.5208   -4.3083    2.0950 H   0  0  0  0  0  0  0  0  0  0  0  0
    6.5751   -4.1380    0.9468 H   0  0  0  0  0  0  0  0  0  0  0  0
    6.4311   -2.9533    2.2744 H   0  0  0  0  0  0  0  0  0  0  0  0
    7.5146   -2.6246    0.8979 H   0  0  0  0  0  0  0  0  0  0  0  0
    2.5652   -1.0972   -2.5872 H   0  0  0  0  0  0  0  0  0  0  0  0
    2.3570    0.1832   -1.3629 H   0  0  0  0  0  0  0  0  0  0  0  0
    3.7543    0.2267   -2.4699 H   0  0  0  0  0  0  0  0  0  0  0  0
    1.2982   -1.7015   -0.6626 H   0  0  0  0  0  0  0  0  0  0  0  0
   -1.9990   -5.5203    1.1890 H   0  0  0  0  0  0  0  0  0  0  0  0
   -2.9594   -7.6000    0.7760 H   0  0  0  0  0  0  0  0  0  0  0  0
   -4.3123   -8.2287    1.7505 H   0  0  0  0  0  0  0  0  0  0  0  0
   -3.1608   -7.0722    2.4691 H   0  0  0  0  0  0  0  0  0  0  0  0
   -7.1932   -3.3277   -0.9309 H   0  0  0  0  0  0  0  0  0  0  0  0
   -8.2642   -4.2623    0.1464 H   0  0  0  0  0  0  0  0  0  0  0  0
   -7.3845   -2.8442    0.7752 H   0  0  0  0  0  0  0  0  0  0  0  0
   -5.3618   -2.1248   -0.1554 H   0  0  0  0  0  0  0  0  0  0  0  0
   -5.1047    2.5502   -1.3947 H   0  0  0  0  0  0  0  0  0  0  0  0
   -6.3538    0.4123   -1.2718 H   0  0  0  0  0  0  0  0  0  0  0  0
   -1.1598    6.4331   -1.2324 H   0  0  0  0  0  0  0  0  0  0  0  0
   -4.3508    4.4969   -1.6480 H   0  0  0  0  0  0  0  0  0  0  0  0
    4.0614    5.8016    0.0421 H   0  0  0  0  0  0  0  0  0  0  0  0
    2.2943    7.5333   -0.7130 H   0  0  0  0  0  0  0  0  0  0  0  0
    6.9150    2.0105    1.2349 H   0  0  0  0  0  0  0  0  0  0  0  0
    5.1266   -0.0206    1.5761 H   0  0  0  0  0  0  0  0  0  0  0  0
    1.7841    1.5374    0.8127 H   0  0  0  0  0  0  0  0  0  0  0  0
  1  2  1  0  0  0  0
  2  3  1  0  0  0  0
  3  4  2  0  0  0  0
  4  5  1  0  0  0  0
  5  6  1  0  0  0  0
  6  7  2  0  0  0  0
  7  8  1  0  0  0  0
  8  9  1  0  0  0  0
  7 10  1  0  0  0  0
 10 11  1  0  0  0  0
 11 12  1  0  0  0  0
 10 13  2  0  0  0  0
  3 14  1  0  0  0  0
 14 15  1  0  0  0  0
 15 16  1  0  0  0  0
 16 17  2  0  0  0  0
 17 18  1  0  0  0  0
 18 19  1  0  0  0  0
 19 20  2  0  0  0  0
 20 21  1  0  0  0  0
 21 22  1  0  0  0  0
 20 23  1  0  0  0  0
 23 24  1  0  0  0  0
 24 25  1  0  0  0  0
 23 26  2  0  0  0  0
 16 27  1  0  0  0  0
 27 28  1  0  0  0  0
 28 29  1  0  0  0  0
 29 30  2  0  0  0  0
 30 31  1  0  0  0  0
 31 32  1  0  0  0  0
 29 33  1  0  0  0  0
 33 34  1  0  0  0  0
 34 35  1  0  0  0  0
 35 36  2  0  0  0  0
 36 37  1  0  0  0  0
 37 38  1  0  0  0  0
 35 39  1  0  0  0  0
 39 40  1  0  0  0  0
 40 41  1  0  0  0  0
 41 42  2  0  0  0  0
 42 43  1  0  0  0  0
 43 44  1  0  0  0  0
 41 45  1  0  0  0  0
 45 46  1  0  0  0  0
 46 47  1  0  0  0  0
 47 48  2  0  0  0  0
 48 49  1  0  0  0  0
 49 50  1  0  0  0  0
  5  1  2  0  0  0  0
 18 14  2  0  0  0  0
 31 27  2  0  0  0  0
 37 33  2  0  0  0  0
 43 39  2  0  0  0  0
 49 45  2  0  0  0  0
 13  4  1  0  0  0  0
 26 17  1  0  0  0  0
  1 51  1  0  0  0  0
  6 52  1  0  0  0  0
  9 53  1  0  0  0  0
  9 54  1  0  0  0  0
  9 55  1  0  0  0  0
 12 56  1  0  0  0  0
 12 57  1  0  0  0  0
 12 58  1  0  0  0  0
 13 59  1  0  0  0  0
 19 60  1  0  0  0  0
 22 61  1  0  0  0  0
 22 62  1  0  0  0  0
 22 63  1  0  0  0  0
 25 64  1  0  0  0  0
 25 65  1  0  0  0  0
 25 66  1  0  0  0  0
 26 67  1  0  0  0  0
 30 68  1  0  0  0  0
 32 69  1  0  0  0  0
 36 70  1  0  0  0  0
 38 71  1  0  0  0  0
 42 72  1  0  0  0  0
 44 73  1  0  0  0  0
 47 74  1  0  0  0  0
 48 75  1  0  0  0  0
 50 76  1  0  0  0  0
M  END
