
  xtb     03082209293D
 energy: -338.764427513812 gnorm: 0.000351795017 xtb: 6.4.1 (unknown)
185205  0     0  0            999 V2000
   -0.8837   -0.0821  -13.3852 C   0  0  0  0  0  0  0  0  0  0  0  0
   -0.4733   -0.9464  -12.4434 C   0  0  0  0  0  0  0  0  0  0  0  0
   -1.0662   -1.0230  -11.1930 O   0  0  0  0  0  0  0  0  0  0  0  0
   -1.9013    0.0236  -10.9207 C   0  0  0  0  0  0  0  0  0  0  0  0
   -2.3192    0.9439  -11.9281 C   0  0  0  0  0  0  0  0  0  0  0  0
   -3.1607    1.8935  -11.4518 C   0  0  0  0  0  0  0  0  0  0  0  0
   -3.4448    1.6866   -9.7627 S   0  0  0  0  0  0  0  0  0  0  0  0
   -2.4159    0.3049   -9.7004 C   0  0  0  0  0  0  0  0  0  0  0  0
   -1.8669    0.8523  -13.2164 O   0  0  0  0  0  0  0  0  0  0  0  0
    0.5931   -1.9052  -12.6776 C   0  0  0  0  0  0  0  0  0  0  0  0
    1.3320   -2.5076  -11.7116 C   0  0  0  0  0  0  0  0  0  0  0  0
    2.2264   -3.5315  -11.9758 O   0  0  0  0  0  0  0  0  0  0  0  0
    2.3640   -3.8497  -13.2958 C   0  0  0  0  0  0  0  0  0  0  0  0
    1.6410   -3.1662  -14.3156 C   0  0  0  0  0  0  0  0  0  0  0  0
    1.9332   -3.6175  -15.5596 C   0  0  0  0  0  0  0  0  0  0  0  0
    3.0983   -4.8874  -15.5058 S   0  0  0  0  0  0  0  0  0  0  0  0
    3.1897   -4.8059  -13.7860 C   0  0  0  0  0  0  0  0  0  0  0  0
    0.7414   -2.1766  -14.0284 O   0  0  0  0  0  0  0  0  0  0  0  0
    1.3116   -2.1864  -10.3021 C   0  0  0  0  0  0  0  0  0  0  0  0
    1.4849   -3.0691   -9.2795 C   0  0  0  0  0  0  0  0  0  0  0  0
    1.3967   -2.4704   -7.9957 C   0  0  0  0  0  0  0  0  0  0  0  0
    1.4150   -3.0948   -6.7379 C   0  0  0  0  0  0  0  0  0  0  0  0
    1.7138   -4.5234   -6.5823 C   0  0  0  0  0  0  0  0  0  0  0  0
    0.9001   -5.3502   -5.8099 C   0  0  0  0  0  0  0  0  0  0  0  0
    1.2264   -6.6757   -5.6184 C   0  0  0  0  0  0  0  0  0  0  0  0
    2.3705   -7.2285   -6.1879 C   0  0  0  0  0  0  0  0  0  0  0  0
    2.6930   -8.9445   -5.8921 S   0  0  0  0  0  0  0  0  0  0  0  0
    4.4790   -8.9659   -5.4876 C   0  0  0  0  0  0  0  0  0  0  0  0
    4.7904   -8.1131   -4.2739 C   0  0  0  0  0  0  0  0  0  0  0  0
    3.1522   -6.4020   -6.9896 C   0  0  0  0  0  0  0  0  0  0  0  0
    4.2533   -6.8820   -7.6074 F   0  0  0  0  0  0  0  0  0  0  0  0
    2.8445   -5.0703   -7.1814 C   0  0  0  0  0  0  0  0  0  0  0  0
    1.1552   -2.2885   -5.6395 C   0  0  0  0  0  0  0  0  0  0  0  0
    0.8837   -0.9003   -5.7337 C   0  0  0  0  0  0  0  0  0  0  0  0
    0.8798   -0.2758   -6.9888 C   0  0  0  0  0  0  0  0  0  0  0  0
    0.5144    1.1349   -7.1738 C   0  0  0  0  0  0  0  0  0  0  0  0
   -0.7000    1.6184   -6.6912 C   0  0  0  0  0  0  0  0  0  0  0  0
   -1.0878    2.9185   -6.9482 C   0  0  0  0  0  0  0  0  0  0  0  0
   -0.2712    3.7688   -7.6789 C   0  0  0  0  0  0  0  0  0  0  0  0
   -0.7884    5.4412   -8.0221 S   0  0  0  0  0  0  0  0  0  0  0  0
   -1.8490    5.1012   -9.4761 C   0  0  0  0  0  0  0  0  0  0  0  0
   -1.0498    4.5811  -10.6540 C   0  0  0  0  0  0  0  0  0  0  0  0
    0.9495    3.2866   -8.1332 C   0  0  0  0  0  0  0  0  0  0  0  0
    1.3425    1.9827   -7.9006 C   0  0  0  0  0  0  0  0  0  0  0  0
    1.7726    4.0850   -8.8333 F   0  0  0  0  0  0  0  0  0  0  0  0
    1.1644   -1.0758   -8.0849 C   0  0  0  0  0  0  0  0  0  0  0  0
    1.1538   -0.5399   -9.7394 S   0  0  0  0  0  0  0  0  0  0  0  0
    0.6814   -0.3086   -4.4603 C   0  0  0  0  0  0  0  0  0  0  0  0
    0.7842   -1.1929   -3.4292 C   0  0  0  0  0  0  0  0  0  0  0  0
    1.1424   -2.8204   -3.9792 S   0  0  0  0  0  0  0  0  0  0  0  0
    0.6296   -0.9564   -2.0321 C   0  0  0  0  0  0  0  0  0  0  0  0
    0.6439   -1.8925   -1.0419 C   0  0  0  0  0  0  0  0  0  0  0  0
    0.4512   -1.3551    0.2542 C   0  0  0  0  0  0  0  0  0  0  0  0
    0.4414   -2.0494    1.4756 C   0  0  0  0  0  0  0  0  0  0  0  0
    0.5493   -3.5132    1.5084 C   0  0  0  0  0  0  0  0  0  0  0  0
   -0.2998   -4.3015    0.7328 C   0  0  0  0  0  0  0  0  0  0  0  0
   -0.1814   -5.6751    0.7371 C   0  0  0  0  0  0  0  0  0  0  0  0
    0.7845   -6.3112    1.5111 C   0  0  0  0  0  0  0  0  0  0  0  0
    0.8673   -8.0819    1.4647 S   0  0  0  0  0  0  0  0  0  0  0  0
    2.6460   -8.3702    1.1363 C   0  0  0  0  0  0  0  0  0  0  0  0
    3.0725   -7.7774   -0.1923 C   0  0  0  0  0  0  0  0  0  0  0  0
    1.5974   -5.5155    2.3118 C   0  0  0  0  0  0  0  0  0  0  0  0
    2.5271   -6.0757    3.1142 F   0  0  0  0  0  0  0  0  0  0  0  0
    1.4957   -4.1388    2.3126 C   0  0  0  0  0  0  0  0  0  0  0  0
    0.3100   -1.2853    2.6238 C   0  0  0  0  0  0  0  0  0  0  0  0
    0.1705    0.1243    2.5912 C   0  0  0  0  0  0  0  0  0  0  0  0
    0.1877    0.8217    1.3704 C   0  0  0  0  0  0  0  0  0  0  0  0
    0.0927    2.2860    1.3610 C   0  0  0  0  0  0  0  0  0  0  0  0
    0.9141    3.0496    2.1925 C   0  0  0  0  0  0  0  0  0  0  0  0
    0.7738    4.4169    2.2554 C   0  0  0  0  0  0  0  0  0  0  0  0
   -0.1798    5.0884    1.4880 C   0  0  0  0  0  0  0  0  0  0  0  0
   -0.2682    6.8366    1.7017 S   0  0  0  0  0  0  0  0  0  0  0  0
   -1.9847    7.2822    1.2252 C   0  0  0  0  0  0  0  0  0  0  0  0
   -2.3421    8.6088    1.8658 C   0  0  0  0  0  0  0  0  0  0  0  0
   -0.9424    4.3213    0.6118 C   0  0  0  0  0  0  0  0  0  0  0  0
   -0.8236    2.9463    0.5520 C   0  0  0  0  0  0  0  0  0  0  0  0
   -1.8431    4.8966   -0.2159 F   0  0  0  0  0  0  0  0  0  0  0  0
    0.3118    0.0557    0.2230 C   0  0  0  0  0  0  0  0  0  0  0  0
    0.3819    0.6643   -1.4118 S   0  0  0  0  0  0  0  0  0  0  0  0
   -0.0169    0.6636    3.8849 C   0  0  0  0  0  0  0  0  0  0  0  0
    0.0040   -0.2701    4.8805 C   0  0  0  0  0  0  0  0  0  0  0  0
    0.2387   -1.8897    4.2598 S   0  0  0  0  0  0  0  0  0  0  0  0
   -0.1048    0.0032    6.2773 C   0  0  0  0  0  0  0  0  0  0  0  0
   -0.2011    1.2439    6.8385 C   0  0  0  0  0  0  0  0  0  0  0  0
   -0.2362    1.2303    8.2524 C   0  0  0  0  0  0  0  0  0  0  0  0
   -0.3402    2.3360    9.1162 C   0  0  0  0  0  0  0  0  0  0  0  0
   -0.3300    3.6988    8.5729 C   0  0  0  0  0  0  0  0  0  0  0  0
    0.6357    4.0776    7.6425 C   0  0  0  0  0  0  0  0  0  0  0  0
    0.6233    5.3297    7.0603 C   0  0  0  0  0  0  0  0  0  0  0  0
   -0.3577    6.2581    7.3930 C   0  0  0  0  0  0  0  0  0  0  0  0
   -0.5082    7.8666    6.7008 S   0  0  0  0  0  0  0  0  0  0  0  0
    0.7021    7.8550    5.3241 C   0  0  0  0  0  0  0  0  0  0  0  0
    0.6267    9.1837    4.5970 C   0  0  0  0  0  0  0  0  0  0  0  0
   -1.2926    5.8809    8.3608 C   0  0  0  0  0  0  0  0  0  0  0  0
   -2.2455    6.7632    8.7226 F   0  0  0  0  0  0  0  0  0  0  0  0
   -1.2932    4.6345    8.9450 C   0  0  0  0  0  0  0  0  0  0  0  0
   -0.4393    2.0519   10.4685 C   0  0  0  0  0  0  0  0  0  0  0  0
   -0.4135    0.7316   10.9869 C   0  0  0  0  0  0  0  0  0  0  0  0
   -0.2969   -0.3700   10.1226 C   0  0  0  0  0  0  0  0  0  0  0  0
   -0.3088   -1.7513   10.6165 C   0  0  0  0  0  0  0  0  0  0  0  0
    0.6504   -2.6698   10.1998 C   0  0  0  0  0  0  0  0  0  0  0  0
    0.6185   -3.9818   10.6294 C   0  0  0  0  0  0  0  0  0  0  0  0
   -0.3846   -4.4281   11.4823 C   0  0  0  0  0  0  0  0  0  0  0  0
   -0.5380   -6.0722   12.0962 S   0  0  0  0  0  0  0  0  0  0  0  0
    0.4320   -7.0712   10.9140 C   0  0  0  0  0  0  0  0  0  0  0  0
   -0.1942   -7.0970    9.5330 C   0  0  0  0  0  0  0  0  0  0  0  0
   -1.3306   -3.4924   11.9054 C   0  0  0  0  0  0  0  0  0  0  0  0
   -1.3063   -2.1803   11.4906 C   0  0  0  0  0  0  0  0  0  0  0  0
   -2.3124   -3.8845   12.7417 F   0  0  0  0  0  0  0  0  0  0  0  0
   -0.1976   -0.0875    8.7679 C   0  0  0  0  0  0  0  0  0  0  0  0
   -0.0758   -1.2641    7.4837 S   0  0  0  0  0  0  0  0  0  0  0  0
   -0.4634    0.7223   12.4048 C   0  0  0  0  0  0  0  0  0  0  0  0
   -0.5411    1.9656   12.9547 C   0  0  0  0  0  0  0  0  0  0  0  0
   -0.5514    3.2333   11.7510 S   0  0  0  0  0  0  0  0  0  0  0  0
   -0.6137    2.2720   14.3578 C   0  0  0  0  0  0  0  0  0  0  0  0
   -0.6970    3.5195   14.8490 C   0  0  0  0  0  0  0  0  0  0  0  0
   -0.7704    3.8441   16.1737 O   0  0  0  0  0  0  0  0  0  0  0  0
   -0.7598    2.7549   17.0036 C   0  0  0  0  0  0  0  0  0  0  0  0
   -0.6733    1.4212   16.5005 C   0  0  0  0  0  0  0  0  0  0  0  0
   -0.6795    0.4900   17.4839 C   0  0  0  0  0  0  0  0  0  0  0  0
   -0.7900    1.2219   19.0425 S   0  0  0  0  0  0  0  0  0  0  0  0
   -0.8288    2.8029   18.3561 C   0  0  0  0  0  0  0  0  0  0  0  0
   -0.5927    1.1424   15.1642 O   0  0  0  0  0  0  0  0  0  0  0  0
   -0.4392   -0.0443  -14.3636 H   0  0  0  0  0  0  0  0  0  0  0  0
   -3.6328    2.6883  -11.9899 H   0  0  0  0  0  0  0  0  0  0  0  0
   -2.2626   -0.2220   -8.7824 H   0  0  0  0  0  0  0  0  0  0  0  0
    1.5357   -3.2803  -16.4936 H   0  0  0  0  0  0  0  0  0  0  0  0
    3.8379   -5.4599  -13.2414 H   0  0  0  0  0  0  0  0  0  0  0  0
    1.6064   -4.1247   -9.4397 H   0  0  0  0  0  0  0  0  0  0  0  0
    0.0024   -4.9524   -5.3630 H   0  0  0  0  0  0  0  0  0  0  0  0
    0.5979   -7.3117   -5.0150 H   0  0  0  0  0  0  0  0  0  0  0  0
    4.6807  -10.0188   -5.2915 H   0  0  0  0  0  0  0  0  0  0  0  0
    5.0448   -8.6540   -6.3625 H   0  0  0  0  0  0  0  0  0  0  0  0
    5.8444   -8.2077   -4.0199 H   0  0  0  0  0  0  0  0  0  0  0  0
    4.1948   -8.4314   -3.4208 H   0  0  0  0  0  0  0  0  0  0  0  0
    4.5762   -7.0639   -4.4710 H   0  0  0  0  0  0  0  0  0  0  0  0
    3.5000   -4.4656   -7.7888 H   0  0  0  0  0  0  0  0  0  0  0  0
   -1.3516    0.9633   -6.1326 H   0  0  0  0  0  0  0  0  0  0  0  0
   -2.0348    3.2885   -6.5866 H   0  0  0  0  0  0  0  0  0  0  0  0
   -2.3024    6.0654   -9.7021 H   0  0  0  0  0  0  0  0  0  0  0  0
   -2.6234    4.3972   -9.1697 H   0  0  0  0  0  0  0  0  0  0  0  0
   -0.2175    5.2472  -10.8701 H   0  0  0  0  0  0  0  0  0  0  0  0
   -1.6842    4.5170  -11.5356 H   0  0  0  0  0  0  0  0  0  0  0  0
   -0.6533    3.5887  -10.4443 H   0  0  0  0  0  0  0  0  0  0  0  0
    2.2949    1.6436   -8.2767 H   0  0  0  0  0  0  0  0  0  0  0  0
    0.4808    0.7381   -4.3150 H   0  0  0  0  0  0  0  0  0  0  0  0
    0.8039   -2.9381   -1.2367 H   0  0  0  0  0  0  0  0  0  0  0  0
   -1.0627   -3.8305    0.1320 H   0  0  0  0  0  0  0  0  0  0  0  0
   -0.8362   -6.2836    0.1330 H   0  0  0  0  0  0  0  0  0  0  0  0
    3.2262   -7.9726    1.9660 H   0  0  0  0  0  0  0  0  0  0  0  0
    2.7336   -9.4562    1.1295 H   0  0  0  0  0  0  0  0  0  0  0  0
    2.4591   -8.1731   -0.9992 H   0  0  0  0  0  0  0  0  0  0  0  0
    4.1140   -8.0253   -0.3884 H   0  0  0  0  0  0  0  0  0  0  0  0
    2.9720   -6.6930   -0.1834 H   0  0  0  0  0  0  0  0  0  0  0  0
    2.1642   -3.5667    2.9367 H   0  0  0  0  0  0  0  0  0  0  0  0
    1.6710    2.5617    2.7875 H   0  0  0  0  0  0  0  0  0  0  0  0
    1.4036    5.0007    2.9094 H   0  0  0  0  0  0  0  0  0  0  0  0
   -2.0321    7.3427    0.1390 H   0  0  0  0  0  0  0  0  0  0  0  0
   -2.6376    6.4873    1.5816 H   0  0  0  0  0  0  0  0  0  0  0  0
   -1.6394    9.3822    1.5631 H   0  0  0  0  0  0  0  0  0  0  0  0
   -2.3258    8.5266    2.9503 H   0  0  0  0  0  0  0  0  0  0  0  0
   -3.3412    8.9057    1.5549 H   0  0  0  0  0  0  0  0  0  0  0  0
   -1.4667    2.4031   -0.1226 H   0  0  0  0  0  0  0  0  0  0  0  0
   -0.1842    1.7088    4.0641 H   0  0  0  0  0  0  0  0  0  0  0  0
   -0.2644    2.1469    6.2613 H   0  0  0  0  0  0  0  0  0  0  0  0
    1.4225    3.3855    7.3824 H   0  0  0  0  0  0  0  0  0  0  0  0
    1.3871    5.5789    6.3421 H   0  0  0  0  0  0  0  0  0  0  0  0
    1.6965    7.7025    5.7434 H   0  0  0  0  0  0  0  0  0  0  0  0
    0.4396    7.0347    4.6559 H   0  0  0  0  0  0  0  0  0  0  0  0
   -0.3856    9.3691    4.2478 H   0  0  0  0  0  0  0  0  0  0  0  0
    1.2911    9.1670    3.7362 H   0  0  0  0  0  0  0  0  0  0  0  0
    0.9187    9.9982    5.2554 H   0  0  0  0  0  0  0  0  0  0  0  0
   -2.0598    4.3923    9.6635 H   0  0  0  0  0  0  0  0  0  0  0  0
    1.4478   -2.3509    9.5463 H   0  0  0  0  0  0  0  0  0  0  0  0
    1.3900   -4.6567   10.2964 H   0  0  0  0  0  0  0  0  0  0  0  0
    1.4573   -6.7033   10.9000 H   0  0  0  0  0  0  0  0  0  0  0  0
    0.4273   -8.0649   11.3619 H   0  0  0  0  0  0  0  0  0  0  0  0
    0.3911   -7.7345    8.8734 H   0  0  0  0  0  0  0  0  0  0  0  0
   -0.2359   -6.0984    9.1027 H   0  0  0  0  0  0  0  0  0  0  0  0
   -1.2069   -7.4895    9.5878 H   0  0  0  0  0  0  0  0  0  0  0  0
   -2.0825   -1.5092   11.8233 H   0  0  0  0  0  0  0  0  0  0  0  0
   -0.4232   -0.1695   13.0021 H   0  0  0  0  0  0  0  0  0  0  0  0
   -0.7141    4.3882   14.2133 H   0  0  0  0  0  0  0  0  0  0  0  0
   -0.6272   -0.5738   17.3840 H   0  0  0  0  0  0  0  0  0  0  0  0
   -0.8998    3.6679   18.9814 H   0  0  0  0  0  0  0  0  0  0  0  0
  1  2  2  0  0  0  0
  2  3  1  0  0  0  0
  3  4  1  0  0  0  0
  4  5  1  0  0  0  0
  5  6  2  0  0  0  0
  6  7  1  0  0  0  0
  7  8  1  0  0  0  0
  5  9  1  0  0  0  0
  2 10  1  0  0  0  0
 10 11  2  0  0  0  0
 11 12  1  0  0  0  0
 12 13  1  0  0  0  0
 13 14  1  0  0  0  0
 14 15  2  0  0  0  0
 15 16  1  0  0  0  0
 16 17  1  0  0  0  0
 14 18  1  0  0  0  0
 11 19  1  0  0  0  0
 19 20  2  0  0  0  0
 20 21  1  0  0  0  0
 21 22  2  0  0  0  0
 22 23  1  0  0  0  0
 23 24  2  0  0  0  0
 24 25  1  0  0  0  0
 25 26  2  0  0  0  0
 26 27  1  0  0  0  0
 27 28  1  0  0  0  0
 28 29  1  0  0  0  0
 26 30  1  0  0  0  0
 30 31  1  0  0  0  0
 30 32  2  0  0  0  0
 22 33  1  0  0  0  0
 33 34  2  0  0  0  0
 34 35  1  0  0  0  0
 35 36  1  0  0  0  0
 36 37  2  0  0  0  0
 37 38  1  0  0  0  0
 38 39  2  0  0  0  0
 39 40  1  0  0  0  0
 40 41  1  0  0  0  0
 41 42  1  0  0  0  0
 39 43  1  0  0  0  0
 43 44  2  0  0  0  0
 43 45  1  0  0  0  0
 35 46  2  0  0  0  0
 46 47  1  0  0  0  0
 34 48  1  0  0  0  0
 48 49  2  0  0  0  0
 49 50  1  0  0  0  0
 49 51  1  0  0  0  0
 51 52  2  0  0  0  0
 52 53  1  0  0  0  0
 53 54  2  0  0  0  0
 54 55  1  0  0  0  0
 55 56  2  0  0  0  0
 56 57  1  0  0  0  0
 57 58  2  0  0  0  0
 58 59  1  0  0  0  0
 59 60  1  0  0  0  0
 60 61  1  0  0  0  0
 58 62  1  0  0  0  0
 62 63  1  0  0  0  0
 62 64  2  0  0  0  0
 54 65  1  0  0  0  0
 65 66  2  0  0  0  0
 66 67  1  0  0  0  0
 67 68  1  0  0  0  0
 68 69  2  0  0  0  0
 69 70  1  0  0  0  0
 70 71  2  0  0  0  0
 71 72  1  0  0  0  0
 72 73  1  0  0  0  0
 73 74  1  0  0  0  0
 71 75  1  0  0  0  0
 75 76  2  0  0  0  0
 75 77  1  0  0  0  0
 67 78  2  0  0  0  0
 78 79  1  0  0  0  0
 66 80  1  0  0  0  0
 80 81  2  0  0  0  0
 81 82  1  0  0  0  0
 81 83  1  0  0  0  0
 83 84  2  0  0  0  0
 84 85  1  0  0  0  0
 85 86  2  0  0  0  0
 86 87  1  0  0  0  0
 87 88  2  0  0  0  0
 88 89  1  0  0  0  0
 89 90  2  0  0  0  0
 90 91  1  0  0  0  0
 91 92  1  0  0  0  0
 92 93  1  0  0  0  0
 90 94  1  0  0  0  0
 94 95  1  0  0  0  0
 94 96  2  0  0  0  0
 86 97  1  0  0  0  0
 97 98  2  0  0  0  0
 98 99  1  0  0  0  0
 99100  1  0  0  0  0
100101  2  0  0  0  0
101102  1  0  0  0  0
102103  2  0  0  0  0
103104  1  0  0  0  0
104105  1  0  0  0  0
105106  1  0  0  0  0
103107  1  0  0  0  0
107108  2  0  0  0  0
107109  1  0  0  0  0
 99110  2  0  0  0  0
110111  1  0  0  0  0
 98112  1  0  0  0  0
112113  2  0  0  0  0
113114  1  0  0  0  0
113115  1  0  0  0  0
115116  2  0  0  0  0
116117  1  0  0  0  0
117118  1  0  0  0  0
118119  1  0  0  0  0
119120  2  0  0  0  0
120121  1  0  0  0  0
121122  1  0  0  0  0
119123  1  0  0  0  0
  9  1  1  0  0  0  0
 18 10  1  0  0  0  0
 47 19  1  0  0  0  0
 79 51  1  0  0  0  0
111 83  1  0  0  0  0
123115  1  0  0  0  0
  8  4  2  0  0  0  0
 17 13  2  0  0  0  0
 46 21  1  0  0  0  0
 78 53  1  0  0  0  0
110 85  1  0  0  0  0
122118  2  0  0  0  0
 32 23  1  0  0  0  0
 50 33  1  0  0  0  0
 64 55  1  0  0  0  0
 82 65  1  0  0  0  0
 96 87  1  0  0  0  0
114 97  1  0  0  0  0
 44 36  1  0  0  0  0
 76 68  1  0  0  0  0
108100  1  0  0  0  0
  1124  1  0  0  0  0
  6125  1  0  0  0  0
  8126  1  0  0  0  0
 15127  1  0  0  0  0
 17128  1  0  0  0  0
 20129  1  0  0  0  0
 24130  1  0  0  0  0
 25131  1  0  0  0  0
 28132  1  0  0  0  0
 28133  1  0  0  0  0
 29134  1  0  0  0  0
 29135  1  0  0  0  0
 29136  1  0  0  0  0
 32137  1  0  0  0  0
 37138  1  0  0  0  0
 38139  1  0  0  0  0
 41140  1  0  0  0  0
 41141  1  0  0  0  0
 42142  1  0  0  0  0
 42143  1  0  0  0  0
 42144  1  0  0  0  0
 44145  1  0  0  0  0
 48146  1  0  0  0  0
 52147  1  0  0  0  0
 56148  1  0  0  0  0
 57149  1  0  0  0  0
 60150  1  0  0  0  0
 60151  1  0  0  0  0
 61152  1  0  0  0  0
 61153  1  0  0  0  0
 61154  1  0  0  0  0
 64155  1  0  0  0  0
 69156  1  0  0  0  0
 70157  1  0  0  0  0
 73158  1  0  0  0  0
 73159  1  0  0  0  0
 74160  1  0  0  0  0
 74161  1  0  0  0  0
 74162  1  0  0  0  0
 76163  1  0  0  0  0
 80164  1  0  0  0  0
 84165  1  0  0  0  0
 88166  1  0  0  0  0
 89167  1  0  0  0  0
 92168  1  0  0  0  0
 92169  1  0  0  0  0
 93170  1  0  0  0  0
 93171  1  0  0  0  0
 93172  1  0  0  0  0
 96173  1  0  0  0  0
101174  1  0  0  0  0
102175  1  0  0  0  0
105176  1  0  0  0  0
105177  1  0  0  0  0
106178  1  0  0  0  0
106179  1  0  0  0  0
106180  1  0  0  0  0
108181  1  0  0  0  0
112182  1  0  0  0  0
116183  1  0  0  0  0
120184  1  0  0  0  0
122185  1  0  0  0  0
M  END
