
  xtb     03012209573D
 energy: -453.633728572736 gnorm: 0.000407697086 xtb: 6.4.1 (unknown)
226253  0     0  0            999 V2000
    2.7166   -7.9068    9.8850 C   0  0  0  0  0  0  0  0  0  0  0  0
    3.2124   -7.6001    8.6690 C   0  0  0  0  0  0  0  0  0  0  0  0
    2.1955   -7.4209    7.6868 C   0  0  0  0  0  0  0  0  0  0  0  0
    2.3432   -7.0671    6.3380 C   0  0  0  0  0  0  0  0  0  0  0  0
    3.6404   -6.7902    5.7390 C   0  0  0  0  0  0  0  0  0  0  0  0
    4.7126   -5.5993    6.4168 S   0  0  0  0  0  0  0  0  0  0  0  0
    5.8677   -5.7963    5.1435 C   0  0  0  0  0  0  0  0  0  0  0  0
    7.1524   -5.0418    5.1100 C   0  0  0  0  0  0  0  0  0  0  0  0
    7.0752   -3.7066    5.8387 C   0  0  0  0  0  0  0  0  0  0  0  0
    5.4348   -6.7371    4.2568 C   0  0  0  0  0  0  0  0  0  0  0  0
    6.3147   -7.1940    2.8568 Cl  0  0  0  0  0  0  0  0  0  0  0  0
    4.1761   -7.3041    4.5906 C   0  0  0  0  0  0  0  0  0  0  0  0
    3.4690   -8.5750    3.6835 Cl  0  0  0  0  0  0  0  0  0  0  0  0
    1.1766   -6.9360    5.5935 C   0  0  0  0  0  0  0  0  0  0  0  0
   -0.1172   -7.1347    6.1338 C   0  0  0  0  0  0  0  0  0  0  0  0
   -0.2628   -7.4995    7.4832 C   0  0  0  0  0  0  0  0  0  0  0  0
   -1.5818   -7.6700    8.0701 C   0  0  0  0  0  0  0  0  0  0  0  0
   -2.7800   -6.4148    7.9354 S   0  0  0  0  0  0  0  0  0  0  0  0
   -3.9545   -7.3282    8.8207 C   0  0  0  0  0  0  0  0  0  0  0  0
   -5.3307   -6.7991    9.0278 C   0  0  0  0  0  0  0  0  0  0  0  0
   -6.1211   -6.8023    7.7174 C   0  0  0  0  0  0  0  0  0  0  0  0
   -3.4339   -8.5314    9.1907 C   0  0  0  0  0  0  0  0  0  0  0  0
   -2.0881   -8.7266    8.7732 C   0  0  0  0  0  0  0  0  0  0  0  0
   -1.2441  -10.1901    9.0573 Cl  0  0  0  0  0  0  0  0  0  0  0  0
   -4.2979   -9.7199   10.0767 Cl  0  0  0  0  0  0  0  0  0  0  0  0
    0.9034   -7.6367    8.2274 C   0  0  0  0  0  0  0  0  0  0  0  0
    0.9917   -8.0119    9.9247 S   0  0  0  0  0  0  0  0  0  0  0  0
   -1.1327   -6.8947    5.1748 C   0  0  0  0  0  0  0  0  0  0  0  0
   -0.6482   -6.4948    3.9634 C   0  0  0  0  0  0  0  0  0  0  0  0
    1.0955   -6.4297    3.9377 S   0  0  0  0  0  0  0  0  0  0  0  0
   -1.3836   -6.0688    2.8152 C   0  0  0  0  0  0  0  0  0  0  0  0
   -2.7058   -5.7316    2.7588 C   0  0  0  0  0  0  0  0  0  0  0  0
   -3.0995   -5.1879    1.5124 C   0  0  0  0  0  0  0  0  0  0  0  0
   -4.3384   -4.6096    1.1672 C   0  0  0  0  0  0  0  0  0  0  0  0
   -5.4444   -4.5526    2.1075 C   0  0  0  0  0  0  0  0  0  0  0  0
   -5.2411   -3.9599    3.7317 S   0  0  0  0  0  0  0  0  0  0  0  0
   -6.9143   -4.1797    4.1093 C   0  0  0  0  0  0  0  0  0  0  0  0
   -7.4672   -3.7933    5.4366 C   0  0  0  0  0  0  0  0  0  0  0  0
   -7.9863   -2.3535    5.4151 C   0  0  0  0  0  0  0  0  0  0  0  0
   -7.5815   -4.6756    3.0289 C   0  0  0  0  0  0  0  0  0  0  0  0
   -9.2594   -5.0326    3.0262 Cl  0  0  0  0  0  0  0  0  0  0  0  0
   -6.7541   -4.8865    1.8935 C   0  0  0  0  0  0  0  0  0  0  0  0
   -7.3487   -5.5743    0.4412 Cl  0  0  0  0  0  0  0  0  0  0  0  0
   -4.4310   -4.0234   -0.0904 C   0  0  0  0  0  0  0  0  0  0  0  0
   -3.3620   -4.0639   -1.0165 C   0  0  0  0  0  0  0  0  0  0  0  0
   -2.1308   -4.6472   -0.6811 C   0  0  0  0  0  0  0  0  0  0  0  0
   -1.0321   -4.5549   -1.6375 C   0  0  0  0  0  0  0  0  0  0  0  0
   -0.4061   -2.9984   -2.1035 S   0  0  0  0  0  0  0  0  0  0  0  0
    0.6007   -3.6854   -3.3311 C   0  0  0  0  0  0  0  0  0  0  0  0
    1.4328   -2.8259   -4.2203 C   0  0  0  0  0  0  0  0  0  0  0  0
    1.8636   -1.5317   -3.5405 C   0  0  0  0  0  0  0  0  0  0  0  0
    0.4640   -5.0417   -3.3488 C   0  0  0  0  0  0  0  0  0  0  0  0
   -0.4519   -5.5396   -2.3801 C   0  0  0  0  0  0  0  0  0  0  0  0
   -0.8143   -7.2056   -2.2012 Cl  0  0  0  0  0  0  0  0  0  0  0  0
    1.2853   -6.0723   -4.4509 Cl  0  0  0  0  0  0  0  0  0  0  0  0
   -2.0206   -5.1812    0.5884 C   0  0  0  0  0  0  0  0  0  0  0  0
   -0.5616   -5.8044    1.2942 S   0  0  0  0  0  0  0  0  0  0  0  0
   -3.6325   -3.3111   -2.1762 C   0  0  0  0  0  0  0  0  0  0  0  0
   -4.8039   -2.6134   -2.1194 C   0  0  0  0  0  0  0  0  0  0  0  0
   -5.7233   -3.0017   -0.6764 S   0  0  0  0  0  0  0  0  0  0  0  0
   -5.0632   -1.4889   -2.9600 C   0  0  0  0  0  0  0  0  0  0  0  0
   -6.0057   -0.5054   -2.8673 C   0  0  0  0  0  0  0  0  0  0  0  0
   -5.6751    0.6597   -3.6085 C   0  0  0  0  0  0  0  0  0  0  0  0
   -6.3038    1.9183   -3.6075 C   0  0  0  0  0  0  0  0  0  0  0  0
   -7.5514    2.1606   -2.8994 C   0  0  0  0  0  0  0  0  0  0  0  0
   -8.9138    2.8499   -3.7330 S   0  0  0  0  0  0  0  0  0  0  0  0
   -9.8942    2.8313   -2.3088 C   0  0  0  0  0  0  0  0  0  0  0  0
  -11.3145    3.2752   -2.3427 C   0  0  0  0  0  0  0  0  0  0  0  0
  -12.2312    2.1402   -2.8057 C   0  0  0  0  0  0  0  0  0  0  0  0
   -9.1951    2.3152   -1.2584 C   0  0  0  0  0  0  0  0  0  0  0  0
   -9.8334    2.1396    0.3248 Cl  0  0  0  0  0  0  0  0  0  0  0  0
   -7.8656    1.9371   -1.5877 C   0  0  0  0  0  0  0  0  0  0  0  0
   -6.7658    1.3511   -0.4106 Cl  0  0  0  0  0  0  0  0  0  0  0  0
   -5.6538    2.9500   -4.2787 C   0  0  0  0  0  0  0  0  0  0  0  0
   -4.4270    2.7731   -4.9696 C   0  0  0  0  0  0  0  0  0  0  0  0
   -3.8443    1.4968   -5.0542 C   0  0  0  0  0  0  0  0  0  0  0  0
   -2.6052    1.2188   -5.7609 C   0  0  0  0  0  0  0  0  0  0  0  0
   -1.1344    2.0971   -5.4535 S   0  0  0  0  0  0  0  0  0  0  0  0
   -0.2121    1.0766   -6.5036 C   0  0  0  0  0  0  0  0  0  0  0  0
    1.2460    1.2779   -6.7320 C   0  0  0  0  0  0  0  0  0  0  0  0
    1.9207    1.9952   -5.5717 C   0  0  0  0  0  0  0  0  0  0  0  0
   -1.0142    0.1262   -7.0629 C   0  0  0  0  0  0  0  0  0  0  0  0
   -2.3685    0.2018   -6.6466 C   0  0  0  0  0  0  0  0  0  0  0  0
   -3.5772   -0.8373   -7.2740 Cl  0  0  0  0  0  0  0  0  0  0  0  0
   -0.4497   -1.0716   -8.1550 Cl  0  0  0  0  0  0  0  0  0  0  0  0
   -4.4729    0.4875   -4.3427 C   0  0  0  0  0  0  0  0  0  0  0  0
   -3.7897   -1.0832   -4.0971 S   0  0  0  0  0  0  0  0  0  0  0  0
   -3.8900    3.9981   -5.4138 C   0  0  0  0  0  0  0  0  0  0  0  0
   -4.6501    5.0830   -5.0655 C   0  0  0  0  0  0  0  0  0  0  0  0
   -6.1321    4.6276   -4.2610 S   0  0  0  0  0  0  0  0  0  0  0  0
   -4.2645    6.4472   -5.2306 C   0  0  0  0  0  0  0  0  0  0  0  0
   -5.0864    7.4100   -5.5848 N   0  0  0  0  0  0  0  0  0  0  0  0
   -4.3228    8.5190   -5.7246 C   0  0  0  0  0  0  0  0  0  0  0  0
   -2.9131    8.2301   -5.4219 C   0  0  0  0  0  0  0  0  0  0  0  0
   -2.0873    9.4426   -5.5582 C   0  0  0  0  0  0  0  0  0  0  0  0
   -0.8940    9.5610   -5.3953 O   0  0  0  0  0  0  0  0  0  0  0  0
   -3.0857   10.4584   -5.9448 C   0  0  0  0  0  0  0  0  0  0  0  0
   -4.4320    9.8496   -6.0395 C   0  0  0  0  0  0  0  0  0  0  0  0
   -5.3561   10.7858   -6.3692 N   0  0  0  0  0  0  0  0  0  0  0  0
   -4.6870   11.9068   -6.4732 C   0  0  0  0  0  0  0  0  0  0  0  0
   -3.2668   11.7766   -6.2117 C   0  0  0  0  0  0  0  0  0  0  0  0
   -2.8609    6.9165   -5.0542 C   0  0  0  0  0  0  0  0  0  0  0  0
   -1.7787    6.1656   -4.5038 C   0  0  0  0  0  0  0  0  0  0  0  0
   -1.8607    5.0958   -3.6539 C   0  0  0  0  0  0  0  0  0  0  0  0
   -0.6044    4.5776   -3.2769 C   0  0  0  0  0  0  0  0  0  0  0  0
   -0.3532    3.4685   -2.4506 C   0  0  0  0  0  0  0  0  0  0  0  0
   -1.4241    2.8116   -1.7212 C   0  0  0  0  0  0  0  0  0  0  0  0
   -1.6391    1.0863   -1.7002 S   0  0  0  0  0  0  0  0  0  0  0  0
   -2.8910    1.1800   -0.5047 C   0  0  0  0  0  0  0  0  0  0  0  0
   -3.5131   -0.0436    0.0691 C   0  0  0  0  0  0  0  0  0  0  0  0
   -2.4612   -1.0131    0.6041 C   0  0  0  0  0  0  0  0  0  0  0  0
   -3.1339    2.4799   -0.1758 C   0  0  0  0  0  0  0  0  0  0  0  0
   -4.2807    2.9874    0.9933 Cl  0  0  0  0  0  0  0  0  0  0  0  0
   -2.3106    3.4078   -0.8670 C   0  0  0  0  0  0  0  0  0  0  0  0
   -2.3688    5.0937   -0.5507 Cl  0  0  0  0  0  0  0  0  0  0  0  0
    0.9737    3.1039   -2.2809 C   0  0  0  0  0  0  0  0  0  0  0  0
    2.0506    3.8597   -2.8078 C   0  0  0  0  0  0  0  0  0  0  0  0
    1.7967    4.9717   -3.6315 C   0  0  0  0  0  0  0  0  0  0  0  0
    2.8820    5.7483   -4.2084 C   0  0  0  0  0  0  0  0  0  0  0  0
    4.1237    6.4484   -3.2129 S   0  0  0  0  0  0  0  0  0  0  0  0
    4.9212    7.1629   -4.5709 C   0  0  0  0  0  0  0  0  0  0  0  0
    6.1262    8.0194   -4.3971 C   0  0  0  0  0  0  0  0  0  0  0  0
    5.7264    9.4786   -4.1642 C   0  0  0  0  0  0  0  0  0  0  0  0
    4.2507    6.8716   -5.7214 C   0  0  0  0  0  0  0  0  0  0  0  0
    3.0967    6.0682   -5.5205 C   0  0  0  0  0  0  0  0  0  0  0  0
    2.1406    5.5005   -6.8219 Cl  0  0  0  0  0  0  0  0  0  0  0  0
    4.7447    7.4017   -7.2766 Cl  0  0  0  0  0  0  0  0  0  0  0  0
    0.4650    5.2938   -3.8712 C   0  0  0  0  0  0  0  0  0  0  0  0
   -0.1223    6.6169   -4.8369 S   0  0  0  0  0  0  0  0  0  0  0  0
    3.3034    3.3358   -2.4019 C   0  0  0  0  0  0  0  0  0  0  0  0
    3.2028    2.2212   -1.6247 C   0  0  0  0  0  0  0  0  0  0  0  0
    1.5395    1.7437   -1.3527 S   0  0  0  0  0  0  0  0  0  0  0  0
    4.2641    1.4960   -0.9986 C   0  0  0  0  0  0  0  0  0  0  0  0
    4.2644    0.2072   -0.5586 C   0  0  0  0  0  0  0  0  0  0  0  0
    5.4730   -0.1701    0.0819 C   0  0  0  0  0  0  0  0  0  0  0  0
    5.8037   -1.4096    0.6549 C   0  0  0  0  0  0  0  0  0  0  0  0
    4.9664   -2.5824    0.4742 C   0  0  0  0  0  0  0  0  0  0  0  0
    4.5172   -3.0773   -1.1356 S   0  0  0  0  0  0  0  0  0  0  0  0
    3.7713   -4.5292   -0.5685 C   0  0  0  0  0  0  0  0  0  0  0  0
    3.2023   -5.5359   -1.5029 C   0  0  0  0  0  0  0  0  0  0  0  0
    4.1505   -6.7238   -1.6807 C   0  0  0  0  0  0  0  0  0  0  0  0
    3.8576   -4.6065    0.7889 C   0  0  0  0  0  0  0  0  0  0  0  0
    3.2255   -5.9115    1.6988 Cl  0  0  0  0  0  0  0  0  0  0  0  0
    4.5322   -3.5070    1.3828 C   0  0  0  0  0  0  0  0  0  0  0  0
    4.6841   -3.3507    3.0788 Cl  0  0  0  0  0  0  0  0  0  0  0  0
    7.0274   -1.4939    1.3108 C   0  0  0  0  0  0  0  0  0  0  0  0
    7.9324   -0.4090    1.4007 C   0  0  0  0  0  0  0  0  0  0  0  0
    7.6078    0.8237    0.8141 C   0  0  0  0  0  0  0  0  0  0  0  0
    8.4904    1.9743    0.9108 C   0  0  0  0  0  0  0  0  0  0  0  0
    8.9618    2.8759   -0.4980 S   0  0  0  0  0  0  0  0  0  0  0  0
    9.8771    4.0089    0.4374 C   0  0  0  0  0  0  0  0  0  0  0  0
   10.5482    5.1682   -0.2117 C   0  0  0  0  0  0  0  0  0  0  0  0
    9.5240    6.2293   -0.6207 C   0  0  0  0  0  0  0  0  0  0  0  0
    9.8069    3.6962    1.7619 C   0  0  0  0  0  0  0  0  0  0  0  0
    9.0255    2.5406    2.0342 C   0  0  0  0  0  0  0  0  0  0  0  0
    8.7251    1.9856    3.6303 Cl  0  0  0  0  0  0  0  0  0  0  0  0
   10.5774    4.5955    3.0044 Cl  0  0  0  0  0  0  0  0  0  0  0  0
    6.3898    0.9056    0.1508 C   0  0  0  0  0  0  0  0  0  0  0  0
    5.7674    2.3235   -0.6437 S   0  0  0  0  0  0  0  0  0  0  0  0
    9.1425   -0.7868    2.0526 C   0  0  0  0  0  0  0  0  0  0  0  0
    9.1463   -2.0783    2.4402 C   0  0  0  0  0  0  0  0  0  0  0  0
    7.6937   -2.9254    2.0401 S   0  0  0  0  0  0  0  0  0  0  0  0
    3.2606   -8.0910   10.7907 H   0  0  0  0  0  0  0  0  0  0  0  0
    4.2612   -7.5002    8.4587 H   0  0  0  0  0  0  0  0  0  0  0  0
    7.4256   -4.8843    4.0635 H   0  0  0  0  0  0  0  0  0  0  0  0
    7.9350   -5.6591    5.5643 H   0  0  0  0  0  0  0  0  0  0  0  0
    6.8188   -3.8575    6.8851 H   0  0  0  0  0  0  0  0  0  0  0  0
    8.0327   -3.1950    5.7854 H   0  0  0  0  0  0  0  0  0  0  0  0
    6.3186   -3.0705    5.3874 H   0  0  0  0  0  0  0  0  0  0  0  0
   -5.2740   -5.7782    9.4120 H   0  0  0  0  0  0  0  0  0  0  0  0
   -5.8355   -7.4220    9.7674 H   0  0  0  0  0  0  0  0  0  0  0  0
   -7.1186   -6.4036    7.8808 H   0  0  0  0  0  0  0  0  0  0  0  0
   -6.2104   -7.8152    7.3330 H   0  0  0  0  0  0  0  0  0  0  0  0
   -5.6165   -6.1916    6.9718 H   0  0  0  0  0  0  0  0  0  0  0  0
   -2.1803   -7.0179    5.3745 H   0  0  0  0  0  0  0  0  0  0  0  0
   -3.3644   -5.8324    3.6004 H   0  0  0  0  0  0  0  0  0  0  0  0
   -6.6885   -3.8875    6.1949 H   0  0  0  0  0  0  0  0  0  0  0  0
   -8.2860   -4.4714    5.6857 H   0  0  0  0  0  0  0  0  0  0  0  0
   -8.3930   -2.0900    6.3876 H   0  0  0  0  0  0  0  0  0  0  0  0
   -8.7692   -2.2458    4.6690 H   0  0  0  0  0  0  0  0  0  0  0  0
   -7.1801   -1.6645    5.1751 H   0  0  0  0  0  0  0  0  0  0  0  0
    2.3082   -3.3975   -4.5372 H   0  0  0  0  0  0  0  0  0  0  0  0
    0.8546   -2.5873   -5.1193 H   0  0  0  0  0  0  0  0  0  0  0  0
    2.4878   -0.9480   -4.2113 H   0  0  0  0  0  0  0  0  0  0  0  0
    2.4367   -1.7508   -2.6432 H   0  0  0  0  0  0  0  0  0  0  0  0
    0.9941   -0.9387   -3.2630 H   0  0  0  0  0  0  0  0  0  0  0  0
   -2.9478   -3.2219   -2.9990 H   0  0  0  0  0  0  0  0  0  0  0  0
   -6.8738   -0.5941   -2.2410 H   0  0  0  0  0  0  0  0  0  0  0  0
  -11.4132    4.1225   -3.0230 H   0  0  0  0  0  0  0  0  0  0  0  0
  -11.6053    3.5943   -1.3402 H   0  0  0  0  0  0  0  0  0  0  0  0
  -13.2640    2.4771   -2.8184 H   0  0  0  0  0  0  0  0  0  0  0  0
  -11.9561    1.8179   -3.8070 H   0  0  0  0  0  0  0  0  0  0  0  0
  -12.1499    1.2910   -2.1318 H   0  0  0  0  0  0  0  0  0  0  0  0
    1.3866    1.8612   -7.6477 H   0  0  0  0  0  0  0  0  0  0  0  0
    1.7025    0.2987   -6.8974 H   0  0  0  0  0  0  0  0  0  0  0  0
    1.7732    1.4468   -4.6447 H   0  0  0  0  0  0  0  0  0  0  0  0
    1.5004    2.9905   -5.4541 H   0  0  0  0  0  0  0  0  0  0  0  0
    2.9873    2.0930   -5.7552 H   0  0  0  0  0  0  0  0  0  0  0  0
   -2.9717    4.0778   -5.9658 H   0  0  0  0  0  0  0  0  0  0  0  0
   -5.1941   12.8195   -6.7341 H   0  0  0  0  0  0  0  0  0  0  0  0
   -2.5519   12.5752   -6.2381 H   0  0  0  0  0  0  0  0  0  0  0  0
   -2.7850    4.6965   -3.2852 H   0  0  0  0  0  0  0  0  0  0  0  0
   -4.1841    0.2615    0.8740 H   0  0  0  0  0  0  0  0  0  0  0  0
   -4.1112   -0.5420   -0.6953 H   0  0  0  0  0  0  0  0  0  0  0  0
   -1.8398   -0.5225    1.3490 H   0  0  0  0  0  0  0  0  0  0  0  0
   -1.8232   -1.3641   -0.2043 H   0  0  0  0  0  0  0  0  0  0  0  0
   -2.9432   -1.8703    1.0669 H   0  0  0  0  0  0  0  0  0  0  0  0
    6.7402    7.9485   -5.2971 H   0  0  0  0  0  0  0  0  0  0  0  0
    6.7069    7.6599   -3.5458 H   0  0  0  0  0  0  0  0  0  0  0  0
    6.6137   10.0950   -4.0486 H   0  0  0  0  0  0  0  0  0  0  0  0
    5.1503    9.8503   -5.0074 H   0  0  0  0  0  0  0  0  0  0  0  0
    5.1205    9.5650   -3.2655 H   0  0  0  0  0  0  0  0  0  0  0  0
    4.2502    3.7645   -2.6752 H   0  0  0  0  0  0  0  0  0  0  0  0
    3.4193   -0.4469   -0.6758 H   0  0  0  0  0  0  0  0  0  0  0  0
    2.2497   -5.8920   -1.1030 H   0  0  0  0  0  0  0  0  0  0  0  0
    3.0258   -5.0654   -2.4691 H   0  0  0  0  0  0  0  0  0  0  0  0
    3.7104   -7.4445   -2.3643 H   0  0  0  0  0  0  0  0  0  0  0  0
    5.1027   -6.3921   -2.0881 H   0  0  0  0  0  0  0  0  0  0  0  0
    4.3309   -7.2121   -0.7272 H   0  0  0  0  0  0  0  0  0  0  0  0
   11.2647    5.5959    0.4912 H   0  0  0  0  0  0  0  0  0  0  0  0
   11.0882    4.8277   -1.0974 H   0  0  0  0  0  0  0  0  0  0  0  0
   10.0244    7.0661   -1.1003 H   0  0  0  0  0  0  0  0  0  0  0  0
    8.9910    6.5958    0.2530 H   0  0  0  0  0  0  0  0  0  0  0  0
    8.8017    5.8058   -1.3148 H   0  0  0  0  0  0  0  0  0  0  0  0
    9.9688   -0.1172    2.2021 H   0  0  0  0  0  0  0  0  0  0  0  0
    9.9276   -2.6112    2.9462 H   0  0  0  0  0  0  0  0  0  0  0  0
  1  2  2  0  0  0  0
  2  3  1  0  0  0  0
  3  4  2  0  0  0  0
  4  5  1  0  0  0  0
  5  6  1  0  0  0  0
  6  7  1  0  0  0  0
  7  8  1  0  0  0  0
  8  9  1  0  0  0  0
  7 10  2  0  0  0  0
 10 11  1  0  0  0  0
 10 12  1  0  0  0  0
 12 13  1  0  0  0  0
  4 14  1  0  0  0  0
 14 15  2  0  0  0  0
 15 16  1  0  0  0  0
 16 17  1  0  0  0  0
 17 18  1  0  0  0  0
 18 19  1  0  0  0  0
 19 20  1  0  0  0  0
 20 21  1  0  0  0  0
 19 22  2  0  0  0  0
 22 23  1  0  0  0  0
 23 24  1  0  0  0  0
 22 25  1  0  0  0  0
 16 26  2  0  0  0  0
 26 27  1  0  0  0  0
 15 28  1  0  0  0  0
 28 29  2  0  0  0  0
 29 30  1  0  0  0  0
 29 31  1  0  0  0  0
 31 32  2  0  0  0  0
 32 33  1  0  0  0  0
 33 34  2  0  0  0  0
 34 35  1  0  0  0  0
 35 36  1  0  0  0  0
 36 37  1  0  0  0  0
 37 38  1  0  0  0  0
 38 39  1  0  0  0  0
 37 40  2  0  0  0  0
 40 41  1  0  0  0  0
 40 42  1  0  0  0  0
 42 43  1  0  0  0  0
 34 44  1  0  0  0  0
 44 45  2  0  0  0  0
 45 46  1  0  0  0  0
 46 47  1  0  0  0  0
 47 48  1  0  0  0  0
 48 49  1  0  0  0  0
 49 50  1  0  0  0  0
 50 51  1  0  0  0  0
 49 52  2  0  0  0  0
 52 53  1  0  0  0  0
 53 54  1  0  0  0  0
 52 55  1  0  0  0  0
 46 56  2  0  0  0  0
 56 57  1  0  0  0  0
 45 58  1  0  0  0  0
 58 59  2  0  0  0  0
 59 60  1  0  0  0  0
 59 61  1  0  0  0  0
 61 62  2  0  0  0  0
 62 63  1  0  0  0  0
 63 64  2  0  0  0  0
 64 65  1  0  0  0  0
 65 66  1  0  0  0  0
 66 67  1  0  0  0  0
 67 68  1  0  0  0  0
 68 69  1  0  0  0  0
 67 70  2  0  0  0  0
 70 71  1  0  0  0  0
 70 72  1  0  0  0  0
 72 73  1  0  0  0  0
 64 74  1  0  0  0  0
 74 75  2  0  0  0  0
 75 76  1  0  0  0  0
 76 77  1  0  0  0  0
 77 78  1  0  0  0  0
 78 79  1  0  0  0  0
 79 80  1  0  0  0  0
 80 81  1  0  0  0  0
 79 82  2  0  0  0  0
 82 83  1  0  0  0  0
 83 84  1  0  0  0  0
 82 85  1  0  0  0  0
 76 86  2  0  0  0  0
 86 87  1  0  0  0  0
 75 88  1  0  0  0  0
 88 89  2  0  0  0  0
 89 90  1  0  0  0  0
 89 91  1  0  0  0  0
 91 92  2  0  0  0  0
 92 93  1  0  0  0  0
 93 94  1  0  0  0  0
 94 95  1  0  0  0  0
 95 96  2  0  0  0  0
 95 97  1  0  0  0  0
 97 98  1  0  0  0  0
 98 99  1  0  0  0  0
 99100  2  0  0  0  0
100101  1  0  0  0  0
 94102  2  0  0  0  0
102103  1  0  0  0  0
103104  2  0  0  0  0
104105  1  0  0  0  0
105106  2  0  0  0  0
106107  1  0  0  0  0
107108  1  0  0  0  0
108109  1  0  0  0  0
109110  1  0  0  0  0
110111  1  0  0  0  0
109112  2  0  0  0  0
112113  1  0  0  0  0
112114  1  0  0  0  0
114115  1  0  0  0  0
106116  1  0  0  0  0
116117  2  0  0  0  0
117118  1  0  0  0  0
118119  1  0  0  0  0
119120  1  0  0  0  0
120121  1  0  0  0  0
121122  1  0  0  0  0
122123  1  0  0  0  0
121124  2  0  0  0  0
124125  1  0  0  0  0
125126  1  0  0  0  0
124127  1  0  0  0  0
118128  2  0  0  0  0
128129  1  0  0  0  0
117130  1  0  0  0  0
130131  2  0  0  0  0
131132  1  0  0  0  0
131133  1  0  0  0  0
133134  2  0  0  0  0
134135  1  0  0  0  0
135136  2  0  0  0  0
136137  1  0  0  0  0
137138  1  0  0  0  0
138139  1  0  0  0  0
139140  1  0  0  0  0
140141  1  0  0  0  0
139142  2  0  0  0  0
142143  1  0  0  0  0
142144  1  0  0  0  0
144145  1  0  0  0  0
136146  1  0  0  0  0
146147  2  0  0  0  0
147148  1  0  0  0  0
148149  1  0  0  0  0
149150  1  0  0  0  0
150151  1  0  0  0  0
151152  1  0  0  0  0
152153  1  0  0  0  0
151154  2  0  0  0  0
154155  1  0  0  0  0
155156  1  0  0  0  0
154157  1  0  0  0  0
148158  2  0  0  0  0
158159  1  0  0  0  0
147160  1  0  0  0  0
160161  2  0  0  0  0
161162  1  0  0  0  0
 27  1  1  0  0  0  0
 57 31  1  0  0  0  0
 87 61  1  0  0  0  0
102 91  1  0  0  0  0
129103  1  0  0  0  0
159133  1  0  0  0  0
 26  3  1  0  0  0  0
 56 33  1  0  0  0  0
 86 63  1  0  0  0  0
 98 93  2  0  0  0  0
128105  1  0  0  0  0
158135  1  0  0  0  0
 12  5  2  0  0  0  0
 30 14  1  0  0  0  0
 42 35  2  0  0  0  0
 60 44  1  0  0  0  0
 72 65  2  0  0  0  0
 90 74  1  0  0  0  0
101 97  2  0  0  0  0
114107  2  0  0  0  0
132116  1  0  0  0  0
144137  2  0  0  0  0
162146  1  0  0  0  0
 23 17  2  0  0  0  0
 53 47  2  0  0  0  0
 83 77  2  0  0  0  0
125119  2  0  0  0  0
155149  2  0  0  0  0
  1163  1  0  0  0  0
  2164  1  0  0  0  0
  8165  1  0  0  0  0
  8166  1  0  0  0  0
  9167  1  0  0  0  0
  9168  1  0  0  0  0
  9169  1  0  0  0  0
 20170  1  0  0  0  0
 20171  1  0  0  0  0
 21172  1  0  0  0  0
 21173  1  0  0  0  0
 21174  1  0  0  0  0
 28175  1  0  0  0  0
 32176  1  0  0  0  0
 38177  1  0  0  0  0
 38178  1  0  0  0  0
 39179  1  0  0  0  0
 39180  1  0  0  0  0
 39181  1  0  0  0  0
 50182  1  0  0  0  0
 50183  1  0  0  0  0
 51184  1  0  0  0  0
 51185  1  0  0  0  0
 51186  1  0  0  0  0
 58187  1  0  0  0  0
 62188  1  0  0  0  0
 68189  1  0  0  0  0
 68190  1  0  0  0  0
 69191  1  0  0  0  0
 69192  1  0  0  0  0
 69193  1  0  0  0  0
 80194  1  0  0  0  0
 80195  1  0  0  0  0
 81196  1  0  0  0  0
 81197  1  0  0  0  0
 81198  1  0  0  0  0
 88199  1  0  0  0  0
100200  1  0  0  0  0
101201  1  0  0  0  0
104202  1  0  0  0  0
110203  1  0  0  0  0
110204  1  0  0  0  0
111205  1  0  0  0  0
111206  1  0  0  0  0
111207  1  0  0  0  0
122208  1  0  0  0  0
122209  1  0  0  0  0
123210  1  0  0  0  0
123211  1  0  0  0  0
123212  1  0  0  0  0
130213  1  0  0  0  0
134214  1  0  0  0  0
140215  1  0  0  0  0
140216  1  0  0  0  0
141217  1  0  0  0  0
141218  1  0  0  0  0
141219  1  0  0  0  0
152220  1  0  0  0  0
152221  1  0  0  0  0
153222  1  0  0  0  0
153223  1  0  0  0  0
153224  1  0  0  0  0
160225  1  0  0  0  0
161226  1  0  0  0  0
M  END
