
  xtb     03042200443D
 energy: -410.758830258529 gnorm: 0.000625101501 xtb: 6.4.1 (unknown)
232255  0     0  0            999 V2000
   -3.8569    3.3967    7.1896 C   0  0  0  0  0  0  0  0  0  0  0  0
   -3.3830    3.6030    5.9444 C   0  0  0  0  0  0  0  0  0  0  0  0
   -3.7168    2.5502    5.0434 C   0  0  0  0  0  0  0  0  0  0  0  0
   -3.3923    2.4393    3.6852 C   0  0  0  0  0  0  0  0  0  0  0  0
   -2.6710    3.4827    2.9461 C   0  0  0  0  0  0  0  0  0  0  0  0
   -3.0966    4.8095    2.9489 C   0  0  0  0  0  0  0  0  0  0  0  0
   -2.4489    5.7509    2.1767 C   0  0  0  0  0  0  0  0  0  0  0  0
   -1.3386    5.4186    1.4022 C   0  0  0  0  0  0  0  0  0  0  0  0
   -0.5636    6.7080    0.4704 S   0  0  0  0  0  0  0  0  0  0  0  0
   -0.1239    5.8998   -1.1137 C   0  0  0  0  0  0  0  0  0  0  0  0
   -1.3338    5.2960   -1.7963 C   0  0  0  0  0  0  0  0  0  0  0  0
   -0.8933    4.1027    1.4548 C   0  0  0  0  0  0  0  0  0  0  0  0
    0.2240    3.7206    0.7937 F   0  0  0  0  0  0  0  0  0  0  0  0
   -1.5593    3.1409    2.1844 C   0  0  0  0  0  0  0  0  0  0  0  0
   -3.8168    1.2877    3.0430 C   0  0  0  0  0  0  0  0  0  0  0  0
   -4.5866    0.2807    3.6702 C   0  0  0  0  0  0  0  0  0  0  0  0
   -4.9156    0.3934    5.0311 C   0  0  0  0  0  0  0  0  0  0  0  0
   -5.7248   -0.6385    5.6849 C   0  0  0  0  0  0  0  0  0  0  0  0
   -6.8916   -1.1038    5.0837 C   0  0  0  0  0  0  0  0  0  0  0  0
   -7.6392   -2.1174    5.6465 C   0  0  0  0  0  0  0  0  0  0  0  0
   -7.2356   -2.7215    6.8321 C   0  0  0  0  0  0  0  0  0  0  0  0
   -8.0750   -4.0521    7.6232 S   0  0  0  0  0  0  0  0  0  0  0  0
   -9.1267   -4.7502    6.3012 C   0  0  0  0  0  0  0  0  0  0  0  0
   -8.3170   -5.3920    5.1906 C   0  0  0  0  0  0  0  0  0  0  0  0
   -6.0874   -2.2183    7.4477 C   0  0  0  0  0  0  0  0  0  0  0  0
   -5.3417   -1.1970    6.9023 C   0  0  0  0  0  0  0  0  0  0  0  0
   -5.6772   -2.7639    8.6097 F   0  0  0  0  0  0  0  0  0  0  0  0
   -4.4502    1.5235    5.6876 C   0  0  0  0  0  0  0  0  0  0  0  0
   -4.7313    1.9152    7.3615 S   0  0  0  0  0  0  0  0  0  0  0  0
   -4.9309   -0.7554    2.7677 C   0  0  0  0  0  0  0  0  0  0  0  0
   -4.4814   -0.5476    1.4953 C   0  0  0  0  0  0  0  0  0  0  0  0
   -3.5513    0.9269    1.3608 S   0  0  0  0  0  0  0  0  0  0  0  0
   -4.7369   -1.3744    0.3674 C   0  0  0  0  0  0  0  0  0  0  0  0
   -3.8166   -1.3094   -1.1102 S   0  0  0  0  0  0  0  0  0  0  0  0
   -4.7628   -2.5576   -1.8850 C   0  0  0  0  0  0  0  0  0  0  0  0
   -5.7451   -3.0105   -1.0106 C   0  0  0  0  0  0  0  0  0  0  0  0
   -5.7178   -2.3314    0.2402 C   0  0  0  0  0  0  0  0  0  0  0  0
   -6.9471   -2.8988    1.3259 S   0  0  0  0  0  0  0  0  0  0  0  0
   -7.4511   -4.0828    0.1202 C   0  0  0  0  0  0  0  0  0  0  0  0
   -8.4972   -4.9563    0.4252 C   0  0  0  0  0  0  0  0  0  0  0  0
   -9.3650   -5.6598    0.6896 N   0  0  0  0  0  0  0  0  0  0  0  0
   -6.7305   -4.0289   -1.0363 C   0  0  0  0  0  0  0  0  0  0  0  0
   -4.3750   -3.0533   -3.1634 C   0  0  0  0  0  0  0  0  0  0  0  0
   -5.1640   -3.5523   -4.1449 C   0  0  0  0  0  0  0  0  0  0  0  0
   -6.5706   -3.4486   -4.3079 C   0  0  0  0  0  0  0  0  0  0  0  0
   -7.5974   -2.3492   -3.4171 S   0  0  0  0  0  0  0  0  0  0  0  0
   -8.9779   -2.6199   -4.4490 C   0  0  0  0  0  0  0  0  0  0  0  0
   -8.6768   -3.5930   -5.3873 C   0  0  0  0  0  0  0  0  0  0  0  0
   -7.3201   -4.0225   -5.3153 C   0  0  0  0  0  0  0  0  0  0  0  0
   -6.9228   -5.1625   -6.5581 S   0  0  0  0  0  0  0  0  0  0  0  0
   -8.5781   -5.0644   -7.1608 C   0  0  0  0  0  0  0  0  0  0  0  0
   -8.9566   -5.8383   -8.2623 C   0  0  0  0  0  0  0  0  0  0  0  0
   -9.2721   -6.4748   -9.1634 N   0  0  0  0  0  0  0  0  0  0  0  0
   -9.3720   -4.2071   -6.4593 C   0  0  0  0  0  0  0  0  0  0  0  0
  -10.1902   -1.8526   -4.3227 C   0  0  0  0  0  0  0  0  0  0  0  0
  -10.2131   -0.5397   -4.0392 C   0  0  0  0  0  0  0  0  0  0  0  0
   -8.9755    0.2161   -3.9491 C   0  0  0  0  0  0  0  0  0  0  0  0
   -8.4261    0.8447   -2.8821 C   0  0  0  0  0  0  0  0  0  0  0  0
   -7.0534    1.1817   -3.0666 C   0  0  0  0  0  0  0  0  0  0  0  0
   -6.1357    1.6497   -2.1157 C   0  0  0  0  0  0  0  0  0  0  0  0
   -6.4905    1.8574   -0.7061 C   0  0  0  0  0  0  0  0  0  0  0  0
   -7.1811    0.8752    0.0021 C   0  0  0  0  0  0  0  0  0  0  0  0
   -7.4609    1.0286    1.3450 C   0  0  0  0  0  0  0  0  0  0  0  0
   -7.0675    2.1732    2.0289 C   0  0  0  0  0  0  0  0  0  0  0  0
   -7.3610    2.4448    3.7515 S   0  0  0  0  0  0  0  0  0  0  0  0
   -9.0527    1.7836    3.9689 C   0  0  0  0  0  0  0  0  0  0  0  0
  -10.0715    2.5545    3.1535 C   0  0  0  0  0  0  0  0  0  0  0  0
   -6.3639    3.1405    1.3142 C   0  0  0  0  0  0  0  0  0  0  0  0
   -5.9654    4.2614    1.9427 F   0  0  0  0  0  0  0  0  0  0  0  0
   -6.0750    2.9994   -0.0261 C   0  0  0  0  0  0  0  0  0  0  0  0
   -4.8175    1.7772   -2.5346 C   0  0  0  0  0  0  0  0  0  0  0  0
   -4.3521    1.3694   -3.8091 C   0  0  0  0  0  0  0  0  0  0  0  0
   -5.2685    0.8807   -4.7507 C   0  0  0  0  0  0  0  0  0  0  0  0
   -4.8637    0.2551   -6.0150 C   0  0  0  0  0  0  0  0  0  0  0  0
   -5.4823    0.5751   -7.2219 C   0  0  0  0  0  0  0  0  0  0  0  0
   -5.1615   -0.1063   -8.3757 C   0  0  0  0  0  0  0  0  0  0  0  0
   -4.2327   -1.1479   -8.3736 C   0  0  0  0  0  0  0  0  0  0  0  0
   -3.9743   -1.9906   -9.9007 S   0  0  0  0  0  0  0  0  0  0  0  0
   -2.2311   -2.5674   -9.8113 C   0  0  0  0  0  0  0  0  0  0  0  0
   -1.7174   -2.7778  -11.2219 C   0  0  0  0  0  0  0  0  0  0  0  0
   -3.6371   -1.4664   -7.1566 C   0  0  0  0  0  0  0  0  0  0  0  0
   -3.9257   -0.7717   -6.0003 C   0  0  0  0  0  0  0  0  0  0  0  0
   -2.7649   -2.4975   -7.0525 F   0  0  0  0  0  0  0  0  0  0  0  0
   -6.6009    0.8465   -4.3653 C   0  0  0  0  0  0  0  0  0  0  0  0
   -7.8842    0.1711   -5.3288 S   0  0  0  0  0  0  0  0  0  0  0  0
   -2.9337    1.4221   -3.9006 C   0  0  0  0  0  0  0  0  0  0  0  0
   -2.3367    1.8022   -2.7392 C   0  0  0  0  0  0  0  0  0  0  0  0
   -3.4974    2.2452   -1.5063 S   0  0  0  0  0  0  0  0  0  0  0  0
   -0.9636    1.7352   -2.3382 C   0  0  0  0  0  0  0  0  0  0  0  0
   -0.5570    1.3858   -1.0872 C   0  0  0  0  0  0  0  0  0  0  0  0
    0.8475    1.2668   -0.9531 C   0  0  0  0  0  0  0  0  0  0  0  0
    1.5686    0.8949    0.1938 C   0  0  0  0  0  0  0  0  0  0  0  0
    0.8707    0.4839    1.4177 C   0  0  0  0  0  0  0  0  0  0  0  0
    1.1758    1.0481    2.6557 C   0  0  0  0  0  0  0  0  0  0  0  0
    0.4564    0.7018    3.7796 C   0  0  0  0  0  0  0  0  0  0  0  0
   -0.5873   -0.2248    3.7289 C   0  0  0  0  0  0  0  0  0  0  0  0
   -1.4987   -0.4493    5.2256 S   0  0  0  0  0  0  0  0  0  0  0  0
   -2.1468   -2.1591    5.1759 C   0  0  0  0  0  0  0  0  0  0  0  0
   -1.0389   -3.1902    5.1069 C   0  0  0  0  0  0  0  0  0  0  0  0
   -0.8516   -0.8091    2.4938 C   0  0  0  0  0  0  0  0  0  0  0  0
   -1.8255   -1.7392    2.3463 F   0  0  0  0  0  0  0  0  0  0  0  0
   -0.1423   -0.4688    1.3591 C   0  0  0  0  0  0  0  0  0  0  0  0
    2.9495    0.9309    0.0913 C   0  0  0  0  0  0  0  0  0  0  0  0
    3.6222    1.3019   -1.0999 C   0  0  0  0  0  0  0  0  0  0  0  0
    2.8993    1.6508   -2.2543 C   0  0  0  0  0  0  0  0  0  0  0  0
    3.5943    2.0381   -3.4873 C   0  0  0  0  0  0  0  0  0  0  0  0
    3.2734    1.4560   -4.7097 C   0  0  0  0  0  0  0  0  0  0  0  0
    3.9526    1.7950   -5.8641 C   0  0  0  0  0  0  0  0  0  0  0  0
    4.9713    2.7400   -5.8395 C   0  0  0  0  0  0  0  0  0  0  0  0
    5.9406    3.2330   -7.2270 S   0  0  0  0  0  0  0  0  0  0  0  0
    4.9257    2.7509   -8.6652 C   0  0  0  0  0  0  0  0  0  0  0  0
    3.6515    3.5671   -8.7669 C   0  0  0  0  0  0  0  0  0  0  0  0
    5.2764    3.3236   -4.6087 C   0  0  0  0  0  0  0  0  0  0  0  0
    4.6108    2.9923   -3.4510 C   0  0  0  0  0  0  0  0  0  0  0  0
    6.2585    4.2448   -4.5492 F   0  0  0  0  0  0  0  0  0  0  0  0
    1.5178    1.6024   -2.1546 C   0  0  0  0  0  0  0  0  0  0  0  0
    0.3816    1.9763   -3.4312 S   0  0  0  0  0  0  0  0  0  0  0  0
    5.0275    1.1983   -0.9601 C   0  0  0  0  0  0  0  0  0  0  0  0
    5.4289    0.7777    0.2722 C   0  0  0  0  0  0  0  0  0  0  0  0
    4.0773    0.4771    1.3449 S   0  0  0  0  0  0  0  0  0  0  0  0
    6.7781    0.5979    0.6986 C   0  0  0  0  0  0  0  0  0  0  0  0
    7.2544    0.0364    1.8444 C   0  0  0  0  0  0  0  0  0  0  0  0
    8.6733    0.0254    1.9217 C   0  0  0  0  0  0  0  0  0  0  0  0
    9.4938   -0.5178    2.9237 C   0  0  0  0  0  0  0  0  0  0  0  0
    8.9246   -1.1046    4.1422 C   0  0  0  0  0  0  0  0  0  0  0  0
    7.9790   -0.4111    4.8968 C   0  0  0  0  0  0  0  0  0  0  0  0
    7.4674   -0.9570    6.0539 C   0  0  0  0  0  0  0  0  0  0  0  0
    7.8615   -2.2181    6.4982 C   0  0  0  0  0  0  0  0  0  0  0  0
    7.0986   -2.8320    7.9708 S   0  0  0  0  0  0  0  0  0  0  0  0
    8.4528   -3.6933    8.8521 C   0  0  0  0  0  0  0  0  0  0  0  0
    9.6259   -2.7747    9.1278 C   0  0  0  0  0  0  0  0  0  0  0  0
    8.7833   -2.9106    5.7190 C   0  0  0  0  0  0  0  0  0  0  0  0
    9.1784   -4.1579    6.0566 F   0  0  0  0  0  0  0  0  0  0  0  0
    9.3241   -2.3652    4.5726 C   0  0  0  0  0  0  0  0  0  0  0  0
   10.8647   -0.4621    2.7061 C   0  0  0  0  0  0  0  0  0  0  0  0
   11.4490    0.1254    1.5573 C   0  0  0  0  0  0  0  0  0  0  0  0
   10.6324    0.6787    0.5651 C   0  0  0  0  0  0  0  0  0  0  0  0
   11.1449    1.2905   -0.6687 C   0  0  0  0  0  0  0  0  0  0  0  0
   11.9607    0.5864   -1.5508 C   0  0  0  0  0  0  0  0  0  0  0  0
   12.2988    1.1297   -2.7728 C   0  0  0  0  0  0  0  0  0  0  0  0
   11.8619    2.3983   -3.1489 C   0  0  0  0  0  0  0  0  0  0  0  0
   12.2983    2.9829   -4.7595 S   0  0  0  0  0  0  0  0  0  0  0  0
   10.7714    3.8170   -5.3387 C   0  0  0  0  0  0  0  0  0  0  0  0
    9.5629    2.9047   -5.2985 C   0  0  0  0  0  0  0  0  0  0  0  0
   11.1217    3.1233   -2.2194 C   0  0  0  0  0  0  0  0  0  0  0  0
   10.7432    2.5775   -1.0107 C   0  0  0  0  0  0  0  0  0  0  0  0
   10.7420    4.3925   -2.4741 F   0  0  0  0  0  0  0  0  0  0  0  0
    9.2640    0.6099    0.7759 C   0  0  0  0  0  0  0  0  0  0  0  0
    8.0612    1.1623   -0.3555 S   0  0  0  0  0  0  0  0  0  0  0  0
   12.8741    0.0970    1.6129 C   0  0  0  0  0  0  0  0  0  0  0  0
   13.3419   -0.4813    2.7368 C   0  0  0  0  0  0  0  0  0  0  0  0
   12.0958   -1.0321    3.8049 S   0  0  0  0  0  0  0  0  0  0  0  0
   -3.7466    4.0270    8.0504 H   0  0  0  0  0  0  0  0  0  0  0  0
   -2.8041    4.4618    5.6575 H   0  0  0  0  0  0  0  0  0  0  0  0
   -3.9675    5.0900    3.5198 H   0  0  0  0  0  0  0  0  0  0  0  0
   -2.7980    6.7715    2.1561 H   0  0  0  0  0  0  0  0  0  0  0  0
    0.2944    6.7163   -1.7023 H   0  0  0  0  0  0  0  0  0  0  0  0
    0.6533    5.1600   -0.9333 H   0  0  0  0  0  0  0  0  0  0  0  0
   -1.7581    4.4948   -1.1932 H   0  0  0  0  0  0  0  0  0  0  0  0
   -1.0441    4.8842   -2.7616 H   0  0  0  0  0  0  0  0  0  0  0  0
   -2.1004    6.0517   -1.9542 H   0  0  0  0  0  0  0  0  0  0  0  0
   -1.1743    2.1350    2.1872 H   0  0  0  0  0  0  0  0  0  0  0  0
   -7.2262   -0.6487    4.1655 H   0  0  0  0  0  0  0  0  0  0  0  0
   -8.5427   -2.4366    5.1523 H   0  0  0  0  0  0  0  0  0  0  0  0
   -9.7926   -3.9703    5.9338 H   0  0  0  0  0  0  0  0  0  0  0  0
   -9.7252   -5.4957    6.8245 H   0  0  0  0  0  0  0  0  0  0  0  0
   -8.9844   -5.8139    4.4415 H   0  0  0  0  0  0  0  0  0  0  0  0
   -7.6951   -6.1885    5.5920 H   0  0  0  0  0  0  0  0  0  0  0  0
   -7.6707   -4.6638    4.7045 H   0  0  0  0  0  0  0  0  0  0  0  0
   -4.4539   -0.8622    7.4151 H   0  0  0  0  0  0  0  0  0  0  0  0
   -5.4624   -1.6423    3.0601 H   0  0  0  0  0  0  0  0  0  0  0  0
   -6.8879   -4.7065   -1.8556 H   0  0  0  0  0  0  0  0  0  0  0  0
   -3.3084   -3.0355   -3.3504 H   0  0  0  0  0  0  0  0  0  0  0  0
   -4.6723   -4.0222   -4.9888 H   0  0  0  0  0  0  0  0  0  0  0  0
  -10.4050   -4.0290   -6.6978 H   0  0  0  0  0  0  0  0  0  0  0  0
  -11.1143   -2.3901   -4.4890 H   0  0  0  0  0  0  0  0  0  0  0  0
  -11.1497   -0.0215   -3.8921 H   0  0  0  0  0  0  0  0  0  0  0  0
   -8.9568    1.0026   -1.9608 H   0  0  0  0  0  0  0  0  0  0  0  0
   -7.4718   -0.0368   -0.4981 H   0  0  0  0  0  0  0  0  0  0  0  0
   -7.9831    0.2407    1.8656 H   0  0  0  0  0  0  0  0  0  0  0  0
   -9.0591    0.7224    3.7252 H   0  0  0  0  0  0  0  0  0  0  0  0
   -9.2324    1.8958    5.0376 H   0  0  0  0  0  0  0  0  0  0  0  0
  -11.0715    2.1781    3.3595 H   0  0  0  0  0  0  0  0  0  0  0  0
  -10.0373    3.6113    3.4073 H   0  0  0  0  0  0  0  0  0  0  0  0
   -9.8724    2.4480    2.0884 H   0  0  0  0  0  0  0  0  0  0  0  0
   -5.5470    3.7919   -0.5323 H   0  0  0  0  0  0  0  0  0  0  0  0
   -6.2041    1.3764   -7.2580 H   0  0  0  0  0  0  0  0  0  0  0  0
   -5.6361    0.1493   -9.3100 H   0  0  0  0  0  0  0  0  0  0  0  0
   -1.6621   -1.7954   -9.2954 H   0  0  0  0  0  0  0  0  0  0  0  0
   -2.2023   -3.4937   -9.2395 H   0  0  0  0  0  0  0  0  0  0  0  0
   -1.7645   -1.8503  -11.7885 H   0  0  0  0  0  0  0  0  0  0  0  0
   -0.6844   -3.1175  -11.1895 H   0  0  0  0  0  0  0  0  0  0  0  0
   -2.3145   -3.5267  -11.7371 H   0  0  0  0  0  0  0  0  0  0  0  0
   -3.4516   -1.0735   -5.0796 H   0  0  0  0  0  0  0  0  0  0  0  0
   -2.3813    1.1432   -4.7798 H   0  0  0  0  0  0  0  0  0  0  0  0
   -1.2527    1.2101   -0.2870 H   0  0  0  0  0  0  0  0  0  0  0  0
    1.9561    1.7891    2.7275 H   0  0  0  0  0  0  0  0  0  0  0  0
    0.6776    1.1619    4.7300 H   0  0  0  0  0  0  0  0  0  0  0  0
   -2.8490   -2.2471    4.3495 H   0  0  0  0  0  0  0  0  0  0  0  0
   -2.6973   -2.2400    6.1133 H   0  0  0  0  0  0  0  0  0  0  0  0
   -0.3409   -3.0543    5.9301 H   0  0  0  0  0  0  0  0  0  0  0  0
   -0.4897   -3.1122    4.1711 H   0  0  0  0  0  0  0  0  0  0  0  0
   -1.4665   -4.1886    5.1717 H   0  0  0  0  0  0  0  0  0  0  0  0
   -0.3930   -0.9589    0.4307 H   0  0  0  0  0  0  0  0  0  0  0  0
    2.5000    0.7048   -4.7568 H   0  0  0  0  0  0  0  0  0  0  0  0
    3.6892    1.3019   -6.7858 H   0  0  0  0  0  0  0  0  0  0  0  0
    4.7326    1.6800   -8.6155 H   0  0  0  0  0  0  0  0  0  0  0  0
    5.5812    2.9455   -9.5140 H   0  0  0  0  0  0  0  0  0  0  0  0
    3.0158    3.4100   -7.8978 H   0  0  0  0  0  0  0  0  0  0  0  0
    3.0983    3.2797   -9.6590 H   0  0  0  0  0  0  0  0  0  0  0  0
    3.8891    4.6264   -8.8310 H   0  0  0  0  0  0  0  0  0  0  0  0
    4.8715    3.4954   -2.5332 H   0  0  0  0  0  0  0  0  0  0  0  0
    5.7246    1.4005   -1.7533 H   0  0  0  0  0  0  0  0  0  0  0  0
    6.6098   -0.3816    2.5971 H   0  0  0  0  0  0  0  0  0  0  0  0
    7.6709    0.5767    4.5894 H   0  0  0  0  0  0  0  0  0  0  0  0
    6.7470   -0.4113    6.6433 H   0  0  0  0  0  0  0  0  0  0  0  0
    7.9785   -4.0152    9.7794 H   0  0  0  0  0  0  0  0  0  0  0  0
    8.7466   -4.5712    8.2812 H   0  0  0  0  0  0  0  0  0  0  0  0
   10.0961   -2.4546    8.1997 H   0  0  0  0  0  0  0  0  0  0  0  0
   10.3686   -3.2998    9.7249 H   0  0  0  0  0  0  0  0  0  0  0  0
    9.2995   -1.8912    9.6726 H   0  0  0  0  0  0  0  0  0  0  0  0
   10.0315   -2.9505    4.0062 H   0  0  0  0  0  0  0  0  0  0  0  0
   12.2885   -0.4100   -1.2952 H   0  0  0  0  0  0  0  0  0  0  0  0
   12.8977    0.5686   -3.4732 H   0  0  0  0  0  0  0  0  0  0  0  0
   11.0185    4.0969   -6.3628 H   0  0  0  0  0  0  0  0  0  0  0  0
   10.6176    4.7197   -4.7521 H   0  0  0  0  0  0  0  0  0  0  0  0
    9.3228    2.6189   -4.2758 H   0  0  0  0  0  0  0  0  0  0  0  0
    9.7436    2.0011   -5.8775 H   0  0  0  0  0  0  0  0  0  0  0  0
    8.7028    3.4236   -5.7167 H   0  0  0  0  0  0  0  0  0  0  0  0
   10.1498    3.1740   -0.3352 H   0  0  0  0  0  0  0  0  0  0  0  0
   13.4999    0.5077    0.8414 H   0  0  0  0  0  0  0  0  0  0  0  0
   14.3636   -0.6309    3.0267 H   0  0  0  0  0  0  0  0  0  0  0  0
  1  2  2  0  0  0  0
  2  3  1  0  0  0  0
  3  4  2  0  0  0  0
  4  5  1  0  0  0  0
  5  6  2  0  0  0  0
  6  7  1  0  0  0  0
  7  8  2  0  0  0  0
  8  9  1  0  0  0  0
  9 10  1  0  0  0  0
 10 11  1  0  0  0  0
  8 12  1  0  0  0  0
 12 13  1  0  0  0  0
 12 14  2  0  0  0  0
  4 15  1  0  0  0  0
 15 16  2  0  0  0  0
 16 17  1  0  0  0  0
 17 18  1  0  0  0  0
 18 19  2  0  0  0  0
 19 20  1  0  0  0  0
 20 21  2  0  0  0  0
 21 22  1  0  0  0  0
 22 23  1  0  0  0  0
 23 24  1  0  0  0  0
 21 25  1  0  0  0  0
 25 26  2  0  0  0  0
 25 27  1  0  0  0  0
 17 28  2  0  0  0  0
 28 29  1  0  0  0  0
 16 30  1  0  0  0  0
 30 31  2  0  0  0  0
 31 32  1  0  0  0  0
 31 33  1  0  0  0  0
 33 34  1  0  0  0  0
 34 35  1  0  0  0  0
 35 36  2  0  0  0  0
 36 37  1  0  0  0  0
 37 38  1  0  0  0  0
 38 39  1  0  0  0  0
 39 40  1  0  0  0  0
 40 41  3  0  0  0  0
 39 42  2  0  0  0  0
 35 43  1  0  0  0  0
 43 44  2  0  0  0  0
 44 45  1  0  0  0  0
 45 46  1  0  0  0  0
 46 47  1  0  0  0  0
 47 48  2  0  0  0  0
 48 49  1  0  0  0  0
 49 50  1  0  0  0  0
 50 51  1  0  0  0  0
 51 52  1  0  0  0  0
 52 53  3  0  0  0  0
 51 54  2  0  0  0  0
 47 55  1  0  0  0  0
 55 56  2  0  0  0  0
 56 57  1  0  0  0  0
 57 58  2  0  0  0  0
 58 59  1  0  0  0  0
 59 60  2  0  0  0  0
 60 61  1  0  0  0  0
 61 62  2  0  0  0  0
 62 63  1  0  0  0  0
 63 64  2  0  0  0  0
 64 65  1  0  0  0  0
 65 66  1  0  0  0  0
 66 67  1  0  0  0  0
 64 68  1  0  0  0  0
 68 69  1  0  0  0  0
 68 70  2  0  0  0  0
 60 71  1  0  0  0  0
 71 72  2  0  0  0  0
 72 73  1  0  0  0  0
 73 74  1  0  0  0  0
 74 75  2  0  0  0  0
 75 76  1  0  0  0  0
 76 77  2  0  0  0  0
 77 78  1  0  0  0  0
 78 79  1  0  0  0  0
 79 80  1  0  0  0  0
 77 81  1  0  0  0  0
 81 82  2  0  0  0  0
 81 83  1  0  0  0  0
 73 84  2  0  0  0  0
 84 85  1  0  0  0  0
 72 86  1  0  0  0  0
 86 87  2  0  0  0  0
 87 88  1  0  0  0  0
 87 89  1  0  0  0  0
 89 90  2  0  0  0  0
 90 91  1  0  0  0  0
 91 92  2  0  0  0  0
 92 93  1  0  0  0  0
 93 94  2  0  0  0  0
 94 95  1  0  0  0  0
 95 96  2  0  0  0  0
 96 97  1  0  0  0  0
 97 98  1  0  0  0  0
 98 99  1  0  0  0  0
 96100  1  0  0  0  0
100101  1  0  0  0  0
100102  2  0  0  0  0
 92103  1  0  0  0  0
103104  2  0  0  0  0
104105  1  0  0  0  0
105106  1  0  0  0  0
106107  2  0  0  0  0
107108  1  0  0  0  0
108109  2  0  0  0  0
109110  1  0  0  0  0
110111  1  0  0  0  0
111112  1  0  0  0  0
109113  1  0  0  0  0
113114  2  0  0  0  0
113115  1  0  0  0  0
105116  2  0  0  0  0
116117  1  0  0  0  0
104118  1  0  0  0  0
118119  2  0  0  0  0
119120  1  0  0  0  0
119121  1  0  0  0  0
121122  2  0  0  0  0
122123  1  0  0  0  0
123124  2  0  0  0  0
124125  1  0  0  0  0
125126  2  0  0  0  0
126127  1  0  0  0  0
127128  2  0  0  0  0
128129  1  0  0  0  0
129130  1  0  0  0  0
130131  1  0  0  0  0
128132  1  0  0  0  0
132133  1  0  0  0  0
132134  2  0  0  0  0
124135  1  0  0  0  0
135136  2  0  0  0  0
136137  1  0  0  0  0
137138  1  0  0  0  0
138139  2  0  0  0  0
139140  1  0  0  0  0
140141  2  0  0  0  0
141142  1  0  0  0  0
142143  1  0  0  0  0
143144  1  0  0  0  0
141145  1  0  0  0  0
145146  2  0  0  0  0
145147  1  0  0  0  0
137148  2  0  0  0  0
148149  1  0  0  0  0
136150  1  0  0  0  0
150151  2  0  0  0  0
151152  1  0  0  0  0
 29  1  1  0  0  0  0
 37 33  2  0  0  0  0
 49 45  2  0  0  0  0
 85 57  1  0  0  0  0
117 89  1  0  0  0  0
149121  1  0  0  0  0
 28  3  1  0  0  0  0
 42 36  1  0  0  0  0
 54 48  1  0  0  0  0
 84 59  1  0  0  0  0
116 91  1  0  0  0  0
148123  1  0  0  0  0
 14  5  1  0  0  0  0
 32 15  1  0  0  0  0
 70 61  1  0  0  0  0
 88 71  1  0  0  0  0
102 93  1  0  0  0  0
120103  1  0  0  0  0
134125  1  0  0  0  0
152135  1  0  0  0  0
 26 18  1  0  0  0  0
 82 74  1  0  0  0  0
114106  1  0  0  0  0
146138  1  0  0  0  0
  1153  1  0  0  0  0
  2154  1  0  0  0  0
  6155  1  0  0  0  0
  7156  1  0  0  0  0
 10157  1  0  0  0  0
 10158  1  0  0  0  0
 11159  1  0  0  0  0
 11160  1  0  0  0  0
 11161  1  0  0  0  0
 14162  1  0  0  0  0
 19163  1  0  0  0  0
 20164  1  0  0  0  0
 23165  1  0  0  0  0
 23166  1  0  0  0  0
 24167  1  0  0  0  0
 24168  1  0  0  0  0
 24169  1  0  0  0  0
 26170  1  0  0  0  0
 30171  1  0  0  0  0
 42172  1  0  0  0  0
 43173  1  0  0  0  0
 44174  1  0  0  0  0
 54175  1  0  0  0  0
 55176  1  0  0  0  0
 56177  1  0  0  0  0
 58178  1  0  0  0  0
 62179  1  0  0  0  0
 63180  1  0  0  0  0
 66181  1  0  0  0  0
 66182  1  0  0  0  0
 67183  1  0  0  0  0
 67184  1  0  0  0  0
 67185  1  0  0  0  0
 70186  1  0  0  0  0
 75187  1  0  0  0  0
 76188  1  0  0  0  0
 79189  1  0  0  0  0
 79190  1  0  0  0  0
 80191  1  0  0  0  0
 80192  1  0  0  0  0
 80193  1  0  0  0  0
 82194  1  0  0  0  0
 86195  1  0  0  0  0
 90196  1  0  0  0  0
 94197  1  0  0  0  0
 95198  1  0  0  0  0
 98199  1  0  0  0  0
 98200  1  0  0  0  0
 99201  1  0  0  0  0
 99202  1  0  0  0  0
 99203  1  0  0  0  0
102204  1  0  0  0  0
107205  1  0  0  0  0
108206  1  0  0  0  0
111207  1  0  0  0  0
111208  1  0  0  0  0
112209  1  0  0  0  0
112210  1  0  0  0  0
112211  1  0  0  0  0
114212  1  0  0  0  0
118213  1  0  0  0  0
122214  1  0  0  0  0
126215  1  0  0  0  0
127216  1  0  0  0  0
130217  1  0  0  0  0
130218  1  0  0  0  0
131219  1  0  0  0  0
131220  1  0  0  0  0
131221  1  0  0  0  0
134222  1  0  0  0  0
139223  1  0  0  0  0
140224  1  0  0  0  0
143225  1  0  0  0  0
143226  1  0  0  0  0
144227  1  0  0  0  0
144228  1  0  0  0  0
144229  1  0  0  0  0
146230  1  0  0  0  0
150231  1  0  0  0  0
151232  1  0  0  0  0
M  END
