224

C          1.93360       -4.47830       13.64540
C          2.02520       -5.18790       12.50240
C          1.40690       -4.53600       11.39580
C          1.27140       -5.00130       10.07820
C          1.91700       -6.22740        9.63950
S          1.03890       -7.48710        8.82600
C          2.45480       -8.46480        8.64740
C          2.39030       -9.81510        8.02340
C          2.07190      -10.88740        9.06800
C          3.53560       -7.84030        9.19540
Cl         5.11900       -8.50220        9.20580
C          3.23620       -6.56990        9.75500
Cl         4.44110       -5.54890       10.42850
C          0.50930       -4.22830        9.21170
C         -0.06480       -2.99080        9.59060
C          0.11570       -2.49740       10.89430
C         -0.44440       -1.21830       11.29750
S         -2.13030       -0.85730       11.06090
C         -1.97360        0.72380       11.74840
C         -3.13400        1.65480       11.80000
C         -3.44730        2.21800       10.41200
C         -0.68490        0.94460       12.13090
C          0.18300       -0.15420       11.88340
Cl         1.86300       -0.08530       12.21170
Cl        -0.13350        2.40270       12.84800
C          0.83780       -3.29580       11.77360
S          1.09970       -2.97500       13.46390
C         -0.74690       -2.37540        8.51380
C         -0.72230       -3.10660        7.36200
S          0.17340       -4.59870        7.54430
C         -1.32680       -2.75150        6.11810
C         -2.06890       -1.63400        5.86530
C         -2.49980       -1.53430        4.52210
C         -3.20470       -0.47910        3.91810
C         -3.57340        0.70670        4.67380
S         -5.21960        1.26430        4.71820
C         -4.82900        2.57740        5.77480
C         -5.88440        3.49120        6.29170
C         -6.59390        2.87730        7.50100
C         -3.49780        2.57040        6.06690
Cl        -2.73470        3.72190        7.08460
C         -2.78110        1.51560        5.44100
Cl        -1.07720        1.34840        5.58670
C         -3.51840       -0.62150        2.57430
C         -3.17820       -1.77120        1.81910
C         -2.47300       -2.82810        2.42380
C         -2.12940       -4.03370        1.68780
S         -1.30200       -3.97620        0.15910
C         -1.28610       -5.69810        0.01040
C         -0.74570       -6.37510       -1.20020
C         -1.86820       -6.65880       -2.20180
C         -1.89600       -6.27100        1.08610
C         -2.37220       -5.33400        2.04000
Cl        -3.25190       -5.81600        3.42950
Cl        -2.07920       -7.96510        1.28620
C         -2.12480       -2.66890        3.75960
S         -1.16570       -3.76980        4.70620
C         -3.61730       -1.66470        0.47700
C         -4.22110       -0.47440        0.19460
S         -4.31750        0.57210        1.59260
C         -4.69190       -0.03720       -1.08210
C         -4.97160       -0.81480       -2.16620
C         -5.30950       -0.07070       -3.32250
C         -5.52710       -0.55350       -4.62710
C         -5.58390       -1.97430       -4.91050
S         -4.66350       -2.67340       -6.21230
C         -5.23520       -4.26920       -5.86620
C         -4.76220       -5.44250       -6.65040
C         -3.34980       -5.84900       -6.22680
C         -6.08680       -4.24630       -4.80290
Cl        -6.85970       -5.63900       -4.16360
C         -6.29370       -2.94850       -4.26330
Cl        -7.40880       -2.65280       -2.99120
C         -5.59360        0.39460       -5.63730
C         -5.51030        1.78660       -5.41040
C         -5.34980        2.27070       -4.10280
C         -5.16720        3.68760       -3.83690
S         -3.95340        4.60100       -4.68830
C         -4.30870        6.04980       -3.81090
C         -3.54090        7.30410       -4.04280
C         -2.29070        7.35420       -3.16130
C         -5.30230        5.81880       -2.90780
C         -5.79020        4.48350       -2.91780
Cl        -7.08650        3.96950       -1.92200
Cl        -5.93230        7.01880       -1.85640
C         -5.25320        1.32460       -3.08670
S         -4.86960        1.66900       -1.42650
C         -5.55270        2.53080       -6.62210
C         -5.61390        1.74350       -7.72470
S         -5.70620        0.03420       -7.33720
N         -5.51120        2.13480       -9.05400
C         -5.26270        1.06960       -9.95620
C         -5.94780        0.01990      -10.45650
S         -4.90000       -0.95700      -11.43050
C         -3.53100        0.07100      -11.14410
C         -3.88910        1.10180      -10.34860
N         -3.28100        2.24890       -9.81370
C         -4.42110        3.06850       -9.36650
C         -2.20670        2.11980       -8.94740
C         -1.78780        1.04000       -8.24110
C         -0.63250        1.30940       -7.45820
C          0.05160        0.44960       -6.59530
C         -0.41970       -0.86650       -6.16980
S          0.46630       -2.32240       -6.48700
C         -0.45920       -3.22410       -5.33350
C         -0.08030       -4.62210       -4.99210
C          1.19010       -4.62870       -4.13690
C         -1.41290       -2.43340       -4.76620
Cl        -2.49530       -2.96180       -3.54750
C         -1.39370       -1.09380       -5.24140
Cl        -2.42010        0.14940       -4.64800
C          1.19900        0.93940       -5.98810
C          1.67070        2.26200       -6.14640
C          0.93130        3.15510       -6.94290
C          1.29700        4.55940       -7.03780
S          2.88840        5.06620       -7.51690
C          2.49260        6.74330       -7.34640
C          3.51620        7.80000       -7.57370
C          4.45250        7.92210       -6.36890
C          1.20190        6.88390       -6.93310
C          0.51900        5.64970       -6.76400
Cl        -1.09230        5.56070       -6.18770
Cl         0.44610        8.39430       -6.63460
C         -0.18520        2.64760       -7.59640
S         -1.20730        3.53680       -8.69240
C          2.82810        2.50170       -5.35970
C          3.21980        1.41830       -4.63120
S          2.17460        0.03320       -4.87560
C          4.29400        1.28010       -3.70420
C          4.53570        0.18320       -2.93280
C          5.63330        0.33660       -2.05390
C          6.12990       -0.59550       -1.12790
C          5.45250       -1.86490       -0.92210
S          6.30580       -3.37670       -1.01560
C          4.86860       -4.29640       -0.73080
C          4.90510       -5.78140       -0.63390
C          5.27090       -6.22540        0.78450
C          3.80140       -3.46630       -0.55880
Cl         2.20340       -4.01230       -0.24850
C          4.12590       -2.08790       -0.66890
Cl         2.95920       -0.85140       -0.41910
C          7.27390       -0.23270       -0.42850
C          7.91640        1.01710       -0.60010
C          7.41540        1.94820       -1.52530
C          8.08900        3.21340       -1.76810
S          7.24250        4.72940       -1.69710
C          8.66050        5.62910       -2.11270
C          8.64260        7.11650       -2.17780
C          8.94490        7.72760       -0.80730
C          9.72050        4.79030       -2.28880
C          9.39970        3.41960       -2.09950
Cl        10.53970        2.16090       -2.35020
Cl        11.29740        5.31750       -2.71360
C          6.26470        1.59280       -2.21650
S          5.44850        2.56420       -3.41350
C          9.02140        1.16260        0.28890
C          9.21200        0.07960        1.06920
S          8.06660       -1.18660        0.79270
H          2.30930       -4.74060       14.61510
H          2.49500       -6.15160       12.43520
H          1.62030       -9.81890        7.25050
H          3.35450      -10.03320        7.56000
H          2.83780      -10.90100        9.83930
H          2.03370      -11.86640        8.59790
H          1.11090      -10.68570        9.53480
H         -2.89450        2.47060       12.48380
H         -4.01010        1.12540       12.18070
H         -3.70190        1.41270        9.72610
H         -4.28540        2.90770       10.47040
H         -2.58690        2.75130       10.01640
H         -1.23050       -1.42040        8.59050
H         -2.30850       -0.90600        6.61640
H         -6.61320        3.68510        5.50310
H         -5.41970        4.43580        6.58010
H         -5.88050        2.68780        8.29900
H         -7.35870        3.55570        7.86920
H         -7.06450        1.93710        7.22390
H          0.01020       -5.74000       -1.66220
H         -0.28050       -7.31630       -0.89990
H         -1.46930       -7.16260       -3.07890
H         -2.62270       -7.29680       -1.74890
H         -2.34170       -5.72880       -2.50890
H         -3.46120       -2.42770       -0.26220
H         -4.90840       -1.88610       -2.14660
H         -5.45160       -6.27210       -6.48530
H         -4.76300       -5.19210       -7.71310
H         -2.66030       -5.02510       -6.39340
H         -3.01810       -6.70850       -6.80290
H         -3.33600       -6.10920       -5.17130
H         -4.18390        8.15620       -3.81370
H         -3.24550        7.35950       -5.09190
H         -2.56750        7.32400       -2.11050
H         -1.64400        6.50670       -3.37560
H         -1.73820        8.27020       -3.35250
H         -5.52780        3.60380       -6.65640
H         -6.96960       -0.26540      -10.31680
H         -2.58040       -0.17290      -11.57030
H         -4.15460        3.69200       -8.51440
H         -4.74600        3.69440      -10.20570
H         -2.28070        0.08400       -8.25880
H          0.09730       -5.19180       -5.90610
H         -0.89880       -5.08480       -4.44160
H          1.03320       -4.06030       -3.22320
H          1.46100       -5.64850       -3.87650
H          2.01470       -4.17760       -4.68370
H          3.00610        8.75000       -7.74150
H          4.10100        7.55510       -8.46230
H          4.96910        6.98100       -6.19550
H          3.88710        8.17810       -5.47630
H          5.19120        8.69840       -6.54830
H          3.34890        3.44140       -5.32300
H          3.94450       -0.71160       -3.00130
H          3.92080       -6.17270       -0.89770
H          5.64060       -6.17310       -1.33830
H          6.24930       -5.83920        1.05970
H          4.53780       -5.85450        1.49630
H          5.29410       -7.31020        0.84180
H          7.66150        7.45140       -2.51800
H          9.39530        7.44510       -2.89700
H          9.92640        7.41220       -0.46280
H          8.93000        8.81220       -0.87070
H          8.20170        7.40930       -0.08030
H          9.62690        2.04830        0.34200
H          9.96740       -0.06840        1.81600
