226

C          3.70820       -7.17190       12.88780
S          2.60620       -6.14180       11.77470
C          2.80540       -7.31730       10.46660
C          3.62070       -8.44560       10.81630
N          3.83940       -9.33870        9.87280
N          4.49430      -10.45660       10.10570
C          4.08610       -8.42010       12.16700
S          4.98790       -9.55970       12.95200
C          2.24120       -7.08010        9.22680
S         -0.29000       -8.33490        7.60040
C          0.10150       -6.77570        6.91120
C          0.81430       -5.77890        7.63750
N          0.89320       -4.62850        7.02510
N          1.55230       -3.58580        7.50840
C          1.37710       -6.03290        8.96900
S          0.99730       -4.94620       10.25170
C         -0.41230       -6.51300        5.63230
C         -1.14180       -7.37860        4.83640
C         -1.55490       -6.81880        3.61650
C         -2.31650       -7.43940        2.60030
C         -2.65630       -8.86270        2.67090
C         -1.67360       -9.81690        2.93790
C         -1.99380      -11.15490        3.00940
C         -3.30030      -11.59940        2.81530
S         -3.58590      -13.34390        2.89730
C         -5.17400      -13.48690        3.79820
C         -5.11330      -12.82840        5.16170
C         -4.26420      -10.64120        2.51820
F         -5.54650      -10.99900        2.28350
C         -3.96070       -9.29670        2.45630
C         -2.70990       -6.62970        1.54730
C         -2.32210       -5.27160        1.44580
C         -1.46860       -4.68430        2.39860
C         -0.92420       -3.33940        2.17480
C         -0.38930       -3.01000        0.92690
C          0.13400       -1.76120        0.69090
C          0.15220       -0.77190        1.67770
S          0.82770        0.77400        1.15410
C          0.91490        1.84620        2.63870
C          1.59200        3.14600        2.24970
C         -0.37070       -1.11890        2.91810
C         -0.89370       -2.37330        3.17140
F         -0.40450       -0.22950        3.94370
C         -1.13910       -5.46420        3.49330
S         -0.19620       -4.95010        4.87890
C         -2.91080       -4.64380        0.32190
C         -3.65730       -5.48020       -0.44780
S         -3.68820       -7.11130        0.17410
C         -4.32440       -4.96870       -1.62670
C         -5.25710       -3.98540       -1.58420
C         -5.36380       -3.25170       -2.79580
C         -5.99740       -2.01730       -2.98050
C         -6.88240       -1.40750       -1.97550
C         -8.16900       -1.01910       -2.33110
C         -9.01330       -0.41770       -1.41730
C         -8.59130       -0.18060       -0.11520
S         -9.55140        0.59490        1.14520
C        -11.26750        0.46480        0.53740
C        -11.76780       -0.96700        0.53040
C         -7.28740       -0.55050        0.21770
F         -6.84420       -0.30220        1.46670
C         -6.43590       -1.15360       -0.68070
C         -5.59730       -1.28520       -4.08350
C         -4.66110       -1.74160       -5.04430
C         -4.16770       -3.05280       -4.94710
C         -3.21650       -3.63170       -5.90860
C         -3.53300       -4.82410       -6.55120
C         -2.66120       -5.40660       -7.45070
C         -1.42920       -4.82430       -7.72460
S         -0.23390       -5.44510       -8.86060
C         -0.74490       -7.17500       -9.14320
C         -0.53400       -8.04490       -7.91870
C         -1.12000       -3.63540       -7.06210
C         -1.98380       -3.04020       -6.16990
F          0.06980       -3.04520       -7.29420
C         -4.50110       -3.75630       -3.79650
S         -3.65140       -5.17970       -3.23670
C         -4.10050       -0.65880       -5.78520
C         -4.50010        0.56170       -5.32860
S         -5.85540        0.43700       -4.20850
C         -3.63370        1.70270       -5.13630
C         -3.27870        1.98820       -3.85210
C         -2.10290        2.75950       -3.73570
C         -1.38390        2.99140       -2.55300
C         -1.77880        2.28820       -1.32560
C         -1.95360        2.92120       -0.10150
C         -2.42910        2.23030        0.99940
C         -2.74690        0.87870        0.91640
S         -3.42950       -0.12440        2.18790
C         -3.72520        1.02070        3.57410
C         -4.94880        1.89010        3.35700
C         -2.49990        0.24390       -0.30250
F         -2.76580       -1.07940       -0.41740
C         -2.02430        0.91450       -1.40050
C         -0.26260        3.79030       -2.67760
C          0.16340        4.33490       -3.91760
C         -0.52780        4.03540       -5.10860
C         -0.10480        4.59080       -6.39860
C          0.13250        5.95900       -6.53380
C          0.46980        6.49610       -7.75670
C          0.59750        5.69580       -8.89090
S          1.05840        6.49840      -10.39660
C          0.06840        5.64370      -11.67840
C         -1.41790        5.71780      -11.39160
C          0.39340        4.32820       -8.73320
C          0.03110        3.77950       -7.51960
F          0.54580        3.48130       -9.77380
C         -1.63250        3.20200       -4.99240
S         -2.60310        2.51840       -6.28940
C          1.38430        5.04620       -3.77670
C          1.87270        5.04720       -2.50300
S          0.83780        4.17850       -1.39040
C          3.08740        5.62160       -2.01680
C          3.92240        6.49740       -2.64350
C          5.06080        6.84520       -1.86960
C          6.11520        7.70460       -2.21730
C          6.19000        8.32780       -3.54360
C          6.40420        9.69510       -3.68750
C          6.48780       10.27830       -4.93690
C          6.37380        9.51150       -6.09100
S          6.45050       10.12870       -7.73900
C          7.25710       11.75750       -7.56180
C          8.70920       11.63710       -7.14060
C          6.15150        8.14220       -5.93180
F          6.02870        7.36620       -7.02680
C          6.05860        7.54980       -4.69310
C          7.09240        7.91090       -1.25330
C          7.09140        7.26270        0.00520
C          6.05650        6.37780        0.33990
C          6.05120        5.62060        1.59760
C          4.92000        5.57120        2.41120
C          4.92250        4.82910        3.57130
C          6.04040        4.09320        3.96630
S          5.87920        3.14570        5.44540
C          7.59100        3.00050        6.09660
C          7.52180        2.66100        7.57250
C          7.15470        4.13550        3.13360
C          7.17290        4.89190        1.97920
F          8.26900        3.42150        3.41780
C          5.04920        6.21520       -0.60060
S          3.65820        5.18300       -0.42010
C          8.21540        7.64870        0.79570
C          9.03140        8.51420        0.16210
S          8.49810        8.93100       -1.43100
H          4.59450       -6.56880       13.09390
H          3.21020       -7.37310       13.83480
H          1.46610       -6.56730       12.37900
H          4.99250      -10.60670       10.98130
H          4.74630      -10.96940        9.27640
H          2.51780       -7.76480        8.43810
H          0.23810       -8.08480        8.80170
H          1.30120       -2.72520        7.04400
H          1.71860       -3.53650        8.51410
H         -1.38660       -8.37890        5.14830
H         -0.65020       -9.50280        3.07470
H         -1.23130      -11.88930        3.21820
H         -5.31420      -14.56420        3.88700
H         -5.96980      -13.07560        3.18130
H         -4.96170      -11.75460        5.06770
H         -4.29660      -13.24180        5.74990
H         -6.04820      -12.99780        5.69220
H         -4.75480       -8.59710        2.24770
H         -0.36700       -3.75040        0.14230
H          0.54350       -1.51540       -0.27710
H         -0.10160        2.02340        2.98570
H          1.48300        1.31960        3.40350
H          1.04050        3.63990        1.45310
H          2.60520        2.96380        1.89950
H          1.63600        3.80780        3.11150
H         -1.30350       -2.56920        4.14920
H         -2.79620       -3.59870        0.09890
H         -5.79030       -3.73080       -0.68700
H         -8.51730       -1.19570       -3.33780
H        -10.00130       -0.12630       -1.73430
H        -11.32830        0.93320       -0.44420
H        -11.83350        1.07050        1.24520
H        -11.70740       -1.38990        1.53040
H        -12.80500       -0.99540        0.20200
H        -11.17380       -1.58530       -0.13950
H         -5.43090       -1.39750       -0.37360
H         -4.48350       -5.29650       -6.35350
H         -2.95540       -6.31950       -7.94200
H         -0.10280       -7.49690       -9.96320
H         -1.77760       -7.18390       -9.48980
H         -1.13310       -7.69470       -7.08080
H          0.51210       -8.02640       -7.62230
H         -0.81460       -9.07250       -8.14190
H         -1.67300       -2.14200       -5.66000
H         -3.31050       -0.77800       -6.50410
H         -3.80540        1.59490       -3.00250
H         -1.74670        3.97710       -0.01210
H         -2.56470        2.76450        1.92590
H         -2.81650        1.59780        3.74280
H         -3.87150        0.35430        4.42420
H         -5.82450        1.26670        3.19690
H         -4.82760        2.53330        2.48820
H         -5.11780        2.51440        4.23250
H         -1.84180        0.36560       -2.31120
H          0.01210        6.60750       -5.67920
H          0.63630        7.55710       -7.86090
H          0.41550        4.61720      -11.77120
H          0.32070        6.18760      -12.58880
H         -1.97240        5.27690      -12.21760
H         -1.66650        5.17290      -10.48280
H         -1.73250        6.75250      -11.27110
H         -0.10880        2.71180       -7.45820
H          1.90260        5.49750       -4.60280
H          3.72370        6.90430       -3.61780
H          6.48460       10.31830       -2.81020
H          6.63510       11.34390       -5.00340
H          7.17680       12.18810       -8.55990
H          6.67240       12.36740       -6.87430
H          9.25960       11.03760       -7.86180
H          9.16310       12.62490       -7.09000
H          8.79570       11.16400       -6.16450
H          5.91550        6.48240       -4.63000
H          4.04150        6.13730        2.14390
H          4.04880        4.80190        4.20340
H          8.08150        3.95930        5.93580
H          8.10790        2.22160        5.53840
H          8.52840        2.57160        7.97530
H          7.00110        1.71800        7.72260
H          6.99270        3.43790        8.11990
H          8.05810        4.87050        1.36230
H          8.38140        7.29690        1.79760
H          9.93580        8.95820        0.52980
