
  xtb     03082202163D
 energy: -460.554318371533 gnorm: 0.000657906946 xtb: 6.4.1 (unknown)
264289  0     0  0            999 V2000
   -3.6319    6.9657    5.3359 C   0  0  0  0  0  0  0  0  0  0  0  0
   -3.6359    6.5262    4.0615 C   0  0  0  0  0  0  0  0  0  0  0  0
   -4.8302    5.8244    3.7205 C   0  0  0  0  0  0  0  0  0  0  0  0
   -5.1610    5.2012    2.5095 C   0  0  0  0  0  0  0  0  0  0  0  0
   -4.2536    5.1567    1.3543 C   0  0  0  0  0  0  0  0  0  0  0  0
   -3.9574    3.9254    0.7718 C   0  0  0  0  0  0  0  0  0  0  0  0
   -3.1045    3.8407   -0.3078 C   0  0  0  0  0  0  0  0  0  0  0  0
   -2.5182    4.9799   -0.8402 C   0  0  0  0  0  0  0  0  0  0  0  0
   -1.3916    4.8339   -2.2094 S   0  0  0  0  0  0  0  0  0  0  0  0
    0.1454    5.3696   -1.3639 C   0  0  0  0  0  0  0  0  0  0  0  0
    0.5777    4.3885   -0.2936 C   0  0  0  0  0  0  0  0  0  0  0  0
   -2.8297    6.2055   -0.2635 C   0  0  0  0  0  0  0  0  0  0  0  0
   -2.2889    7.3408   -0.7537 F   0  0  0  0  0  0  0  0  0  0  0  0
   -3.6787    6.3058    0.8218 C   0  0  0  0  0  0  0  0  0  0  0  0
   -6.3839    4.5497    2.4625 C   0  0  0  0  0  0  0  0  0  0  0  0
   -7.2541    4.4307    3.5693 C   0  0  0  0  0  0  0  0  0  0  0  0
   -6.9136    5.0333    4.7895 C   0  0  0  0  0  0  0  0  0  0  0  0
   -7.7546    4.8872    5.9832 C   0  0  0  0  0  0  0  0  0  0  0  0
   -8.1626    5.9958    6.7230 C   0  0  0  0  0  0  0  0  0  0  0  0
   -8.9327    5.8385    7.8539 C   0  0  0  0  0  0  0  0  0  0  0  0
   -9.3298    4.5762    8.2983 C   0  0  0  0  0  0  0  0  0  0  0  0
  -10.3405    4.5260    9.7417 S   0  0  0  0  0  0  0  0  0  0  0  0
   -9.9811    2.8922   10.5042 C   0  0  0  0  0  0  0  0  0  0  0  0
  -10.3624    2.9488   11.9703 C   0  0  0  0  0  0  0  0  0  0  0  0
   -8.9304    3.4808    7.5383 C   0  0  0  0  0  0  0  0  0  0  0  0
   -8.1506    3.6238    6.4086 C   0  0  0  0  0  0  0  0  0  0  0  0
   -9.2979    2.2218    7.8742 F   0  0  0  0  0  0  0  0  0  0  0  0
   -5.7205    5.7448    4.8198 C   0  0  0  0  0  0  0  0  0  0  0  0
   -5.0632    6.5567    6.2172 S   0  0  0  0  0  0  0  0  0  0  0  0
   -8.4114    3.6648    3.2465 C   0  0  0  0  0  0  0  0  0  0  0  0
   -8.4255    3.2352    1.9595 C   0  0  0  0  0  0  0  0  0  0  0  0
   -7.0425    3.7940    1.0332 S   0  0  0  0  0  0  0  0  0  0  0  0
   -9.4305    2.3849    1.3004 C   0  0  0  0  0  0  0  0  0  0  0  0
   -8.5217    0.9665    0.3962 S   0  0  0  0  0  4  0  0  0  0  0  0
   -8.1965    2.1265   -0.8848 C   0  0  0  0  0  0  0  0  0  0  0  0
   -9.3931    2.9290   -1.0914 C   0  0  0  0  0  0  0  0  0  0  0  0
   -9.6315    3.4670   -2.2545 N   0  0  0  0  0  0  0  0  0  0  0  0
  -10.6519    4.2764   -2.4785 N   0  0  0  0  0  0  0  0  0  0  0  0
  -10.1083    3.0702    0.1423 C   0  0  0  0  0  0  0  0  0  0  0  0
  -11.4854    3.9117    0.4625 S   0  0  0  0  0  0  0  0  0  0  0  0
   -7.0922    2.0297   -1.7303 C   0  0  0  0  0  0  0  0  0  0  0  0
   -6.8219    2.8106   -2.8289 C   0  0  0  0  0  0  0  0  0  0  0  0
   -5.5191    2.6536   -3.3423 C   0  0  0  0  0  0  0  0  0  0  0  0
   -4.9210    3.3888   -4.3847 C   0  0  0  0  0  0  0  0  0  0  0  0
   -5.6604    4.4339   -5.0988 C   0  0  0  0  0  0  0  0  0  0  0  0
   -5.1140    5.7034   -5.2668 C   0  0  0  0  0  0  0  0  0  0  0  0
   -5.8034    6.6955   -5.9357 C   0  0  0  0  0  0  0  0  0  0  0  0
   -7.0628    6.4509   -6.4702 C   0  0  0  0  0  0  0  0  0  0  0  0
   -8.0496    7.6413   -7.3214 S   0  0  0  0  0  0  0  0  0  0  0  0
   -6.8293    8.8539   -7.9333 C   0  0  0  0  0  0  0  0  0  0  0  0
   -5.8909    8.2532   -8.9620 C   0  0  0  0  0  0  0  0  0  0  0  0
   -7.6016    5.1771   -6.2883 C   0  0  0  0  0  0  0  0  0  0  0  0
   -8.8306    4.9080   -6.7788 F   0  0  0  0  0  0  0  0  0  0  0  0
   -6.9265    4.1790   -5.6234 C   0  0  0  0  0  0  0  0  0  0  0  0
   -3.5975    3.0937   -4.6777 C   0  0  0  0  0  0  0  0  0  0  0  0
   -2.8769    2.0913   -3.9947 C   0  0  0  0  0  0  0  0  0  0  0  0
   -3.4361    1.4124   -2.8923 C   0  0  0  0  0  0  0  0  0  0  0  0
   -2.5723    0.5701   -2.0538 C   0  0  0  0  0  0  0  0  0  0  0  0
   -2.9490   -0.6715   -1.5517 C   0  0  0  0  0  0  0  0  0  0  0  0
   -2.0800   -1.4309   -0.7866 C   0  0  0  0  0  0  0  0  0  0  0  0
   -0.7983   -0.9793   -0.4910 C   0  0  0  0  0  0  0  0  0  0  0  0
    0.4485   -1.8667    0.3919 S   0  0  0  0  0  0  0  0  0  0  0  0
   -0.4647   -3.1293    1.3410 C   0  0  0  0  0  0  0  0  0  0  0  0
   -1.2984   -2.5205    2.4510 C   0  0  0  0  0  0  0  0  0  0  0  0
   -0.4438    0.2775   -0.9816 C   0  0  0  0  0  0  0  0  0  0  0  0
   -1.2987    1.0476   -1.7308 C   0  0  0  0  0  0  0  0  0  0  0  0
    0.7905    0.7670   -0.7225 F   0  0  0  0  0  0  0  0  0  0  0  0
   -4.7598    1.6953   -2.6167 C   0  0  0  0  0  0  0  0  0  0  0  0
   -5.7037    1.0237   -1.3041 S   0  0  0  0  0  0  0  0  0  0  0  0
   -1.5771    1.9312   -4.5298 C   0  0  0  0  0  0  0  0  0  0  0  0
   -1.2702    2.8178   -5.5120 C   0  0  0  0  0  0  0  0  0  0  0  0
   -2.6084    3.8637   -5.9015 S   0  0  0  0  0  0  0  0  0  0  0  0
    0.1126    2.8924   -5.9509 C   0  0  0  0  0  0  0  0  0  0  0  0
    1.0740    3.5523   -5.2579 C   0  0  0  0  0  0  0  0  0  0  0  0
    2.3676    2.9748   -5.3855 C   0  0  0  0  0  0  0  0  0  0  0  0
    3.4510    3.2195   -4.5224 C   0  0  0  0  0  0  0  0  0  0  0  0
    3.4520    4.4123   -3.6684 C   0  0  0  0  0  0  0  0  0  0  0  0
    3.1815    5.6581   -4.2327 C   0  0  0  0  0  0  0  0  0  0  0  0
    3.1453    6.8052   -3.4645 C   0  0  0  0  0  0  0  0  0  0  0  0
    3.3686    6.7489   -2.0928 C   0  0  0  0  0  0  0  0  0  0  0  0
    3.3142    8.1188   -0.9869 S   0  0  0  0  0  0  0  0  0  0  0  0
    2.4940    9.4393   -1.9453 C   0  0  0  0  0  0  0  0  0  0  0  0
    1.0226    9.1600   -2.1853 C   0  0  0  0  0  0  0  0  0  0  0  0
    3.6615    5.4988   -1.5454 C   0  0  0  0  0  0  0  0  0  0  0  0
    3.8915    5.4065   -0.2175 F   0  0  0  0  0  0  0  0  0  0  0  0
    3.6988    4.3475   -2.2983 C   0  0  0  0  0  0  0  0  0  0  0  0
    4.4007    2.2114   -4.4534 C   0  0  0  0  0  0  0  0  0  0  0  0
    4.4080    1.1052   -5.3373 C   0  0  0  0  0  0  0  0  0  0  0  0
    3.4215    0.9640   -6.3320 C   0  0  0  0  0  0  0  0  0  0  0  0
    3.5002   -0.1775   -7.2482 C   0  0  0  0  0  0  0  0  0  0  0  0
    4.7156   -0.4682   -7.8688 C   0  0  0  0  0  0  0  0  0  0  0  0
    4.8636   -1.5795   -8.6724 C   0  0  0  0  0  0  0  0  0  0  0  0
    3.8032   -2.4568   -8.8764 C   0  0  0  0  0  0  0  0  0  0  0  0
    3.8933   -3.9291   -9.8393 S   0  0  0  0  0  0  0  0  0  0  0  0
    5.6606   -4.3870   -9.7411 C   0  0  0  0  0  0  0  0  0  0  0  0
    6.0993   -4.7031   -8.3248 C   0  0  0  0  0  0  0  0  0  0  0  0
    2.5822   -2.1331   -8.2836 C   0  0  0  0  0  0  0  0  0  0  0  0
    2.4191   -1.0237   -7.4836 C   0  0  0  0  0  0  0  0  0  0  0  0
    1.5252   -2.9467   -8.4719 F   0  0  0  0  0  0  0  0  0  0  0  0
    2.3615    1.8583   -6.2567 C   0  0  0  0  0  0  0  0  0  0  0  0
    0.7837    1.6439   -6.9823 S   0  0  0  0  0  0  0  0  0  0  0  0
    5.2660    0.0676   -4.8832 C   0  0  0  0  0  0  0  0  0  0  0  0
    5.8346    0.3279   -3.6727 C   0  0  0  0  0  0  0  0  0  0  0  0
    5.5544    1.9826   -3.1591 S   0  0  0  0  0  0  0  0  0  0  0  0
    6.1608   -0.6625   -2.6920 C   0  0  0  0  0  0  0  0  0  0  0  0
    5.7930   -0.5659   -1.3828 C   0  0  0  0  0  0  0  0  0  0  0  0
    5.6804   -1.8180   -0.7326 C   0  0  0  0  0  0  0  0  0  0  0  0
    5.1057   -2.0615    0.5227 C   0  0  0  0  0  0  0  0  0  0  0  0
    4.5580   -0.9672    1.3379 C   0  0  0  0  0  0  0  0  0  0  0  0
    3.5960   -0.1125    0.8036 C   0  0  0  0  0  0  0  0  0  0  0  0
    3.0840    0.9230    1.5561 C   0  0  0  0  0  0  0  0  0  0  0  0
    3.5136    1.1407    2.8598 C   0  0  0  0  0  0  0  0  0  0  0  0
    2.8181    2.4984    3.7686 S   0  0  0  0  0  0  0  0  0  0  0  0
    4.3328    3.4071    4.2526 C   0  0  0  0  0  0  0  0  0  0  0  0
    5.1272    3.8590    3.0433 C   0  0  0  0  0  0  0  0  0  0  0  0
    4.4452    0.2580    3.3943 C   0  0  0  0  0  0  0  0  0  0  0  0
    4.8728    0.4028    4.6675 F   0  0  0  0  0  0  0  0  0  0  0  0
    4.9699   -0.7823    2.6525 C   0  0  0  0  0  0  0  0  0  0  0  0
    4.9721   -3.3884    0.8914 C   0  0  0  0  0  0  0  0  0  0  0  0
    5.4209   -4.4646    0.0869 C   0  0  0  0  0  0  0  0  0  0  0  0
    6.0169   -4.2179   -1.1647 C   0  0  0  0  0  0  0  0  0  0  0  0
    6.4816   -5.3325   -1.9985 C   0  0  0  0  0  0  0  0  0  0  0  0
    7.2951   -6.3232   -1.4523 C   0  0  0  0  0  0  0  0  0  0  0  0
    7.7234   -7.3960   -2.2083 C   0  0  0  0  0  0  0  0  0  0  0  0
    7.3451   -7.5250   -3.5403 C   0  0  0  0  0  0  0  0  0  0  0  0
    7.8204   -8.8522   -4.5984 S   0  0  0  0  0  0  0  0  0  0  0  0
    8.1873  -10.2177   -3.4394 C   0  0  0  0  0  0  0  0  0  0  0  0
    6.9589  -10.6701   -2.6748 C   0  0  0  0  0  0  0  0  0  0  0  0
    6.5538   -6.5116   -4.0824 C   0  0  0  0  0  0  0  0  0  0  0  0
    6.1227   -5.4345   -3.3406 C   0  0  0  0  0  0  0  0  0  0  0  0
    6.1808   -6.5913   -5.3754 F   0  0  0  0  0  0  0  0  0  0  0  0
    6.0851   -2.8921   -1.5646 C   0  0  0  0  0  0  0  0  0  0  0  0
    6.5668   -2.3077   -3.1420 S   0  0  0  0  0  0  0  0  0  0  0  0
    5.0402   -5.7167    0.6329 C   0  0  0  0  0  0  0  0  0  0  0  0
    4.3209   -5.6126    1.7872 C   0  0  0  0  0  0  0  0  0  0  0  0
    4.1131   -3.9506    2.2979 S   0  0  0  0  0  0  0  0  0  0  0  0
    3.7135   -6.6754    2.5248 C   0  0  0  0  0  0  0  0  0  0  0  0
    3.9758   -8.0098    2.4359 C   0  0  0  0  0  0  0  0  0  0  0  0
    3.1493   -8.8071    3.2696 C   0  0  0  0  0  0  0  0  0  0  0  0
    3.1791  -10.1998    3.4424 C   0  0  0  0  0  0  0  0  0  0  0  0
    4.0699  -11.0357    2.6284 C   0  0  0  0  0  0  0  0  0  0  0  0
    4.0672  -10.9139    1.2390 C   0  0  0  0  0  0  0  0  0  0  0  0
    4.9169  -11.6739    0.4647 C   0  0  0  0  0  0  0  0  0  0  0  0
    5.8003  -12.5821    1.0429 C   0  0  0  0  0  0  0  0  0  0  0  0
    6.8424  -13.5192   -0.0417 S   0  0  0  0  0  0  0  0  0  0  0  0
    8.4776  -13.4436    0.7805 C   0  0  0  0  0  0  0  0  0  0  0  0
    8.9616  -12.0167    0.9443 C   0  0  0  0  0  0  0  0  0  0  0  0
    5.7630  -12.7242    2.4263 C   0  0  0  0  0  0  0  0  0  0  0  0
    6.5634  -13.6158    3.0483 F   0  0  0  0  0  0  0  0  0  0  0  0
    4.9234  -11.9628    3.2150 C   0  0  0  0  0  0  0  0  0  0  0  0
    2.3097  -10.7302    4.3849 C   0  0  0  0  0  0  0  0  0  0  0  0
    1.3907   -9.9424    5.1215 C   0  0  0  0  0  0  0  0  0  0  0  0
    1.3434   -8.5554    4.9297 C   0  0  0  0  0  0  0  0  0  0  0  0
    0.4043   -7.6837    5.6473 C   0  0  0  0  0  0  0  0  0  0  0  0
    0.3181   -7.6826    7.0377 C   0  0  0  0  0  0  0  0  0  0  0  0
   -0.5164   -6.7970    7.6860 C   0  0  0  0  0  0  0  0  0  0  0  0
   -1.3107   -5.8951    6.9794 C   0  0  0  0  0  0  0  0  0  0  0  0
   -2.3442   -4.8113    7.9183 S   0  0  0  0  0  0  0  0  0  0  0  0
   -2.2836   -3.2278    6.9992 C   0  0  0  0  0  0  0  0  0  0  0  0
   -0.8659   -2.7321    6.7970 C   0  0  0  0  0  0  0  0  0  0  0  0
   -1.2522   -5.9463    5.5905 C   0  0  0  0  0  0  0  0  0  0  0  0
   -0.3991   -6.8043    4.9291 C   0  0  0  0  0  0  0  0  0  0  0  0
   -2.0377   -5.1489    4.8295 F   0  0  0  0  0  0  0  0  0  0  0  0
    2.2354   -8.0216    4.0115 C   0  0  0  0  0  0  0  0  0  0  0  0
    2.4194   -6.3257    3.6513 S   0  0  0  0  0  0  0  0  0  0  0  0
    0.5666  -10.7471    5.9638 C   0  0  0  0  0  0  0  0  0  0  0  0
    0.8540  -12.0612    5.8780 C   0  0  0  0  0  0  0  0  0  0  0  0
    2.1352  -12.4224    4.7719 S   0  0  0  0  0  0  0  0  0  0  0  0
   -2.8631    7.5188    5.8393 H   0  0  0  0  0  0  0  0  0  0  0  0
   -2.8205    6.6733    3.3772 H   0  0  0  0  0  0  0  0  0  0  0  0
   -4.3725    3.0199    1.1868 H   0  0  0  0  0  0  0  0  0  0  0  0
   -2.8709    2.8820   -0.7390 H   0  0  0  0  0  0  0  0  0  0  0  0
    0.8850    5.4361   -2.1609 H   0  0  0  0  0  0  0  0  0  0  0  0
   -0.0291    6.3635   -0.9558 H   0  0  0  0  0  0  0  0  0  0  0  0
   -0.2060    4.2562    0.4512 H   0  0  0  0  0  0  0  0  0  0  0  0
    0.8095    3.4202   -0.7304 H   0  0  0  0  0  0  0  0  0  0  0  0
    1.4654    4.7628    0.2103 H   0  0  0  0  0  0  0  0  0  0  0  0
   -3.9034    7.2810    1.2256 H   0  0  0  0  0  0  0  0  0  0  0  0
   -7.8821    6.9866    6.4014 H   0  0  0  0  0  0  0  0  0  0  0  0
   -9.2463    6.6989    8.4239 H   0  0  0  0  0  0  0  0  0  0  0  0
   -8.9156    2.7046   10.3810 H   0  0  0  0  0  0  0  0  0  0  0  0
  -10.5553    2.1314    9.9775 H   0  0  0  0  0  0  0  0  0  0  0  0
  -10.1595    1.9882   12.4386 H   0  0  0  0  0  0  0  0  0  0  0  0
   -9.7907    3.7177   12.4850 H   0  0  0  0  0  0  0  0  0  0  0  0
  -11.4206    3.1740   12.0809 H   0  0  0  0  0  0  0  0  0  0  0  0
   -7.8441    2.7363    5.8763 H   0  0  0  0  0  0  0  0  0  0  0  0
   -9.2025    3.4626    3.9455 H   0  0  0  0  0  0  0  0  0  0  0  0
  -10.1417    1.9687    2.0142 H   0  0  0  0  0  0  0  0  0  0  0  0
   -7.2908    1.0014    0.9842 H   0  0  0  0  0  0  0  0  0  0  0  0
  -10.5813    4.7948   -3.3398 H   0  0  0  0  0  0  0  0  0  0  0  0
  -11.2095    4.6477   -1.7139 H   0  0  0  0  0  0  0  0  0  0  0  0
   -7.5518    3.4938   -3.2135 H   0  0  0  0  0  0  0  0  0  0  0  0
   -4.1460    5.9266   -4.8451 H   0  0  0  0  0  0  0  0  0  0  0  0
   -5.3543    7.6714   -6.0273 H   0  0  0  0  0  0  0  0  0  0  0  0
   -6.2968    9.2779   -7.0828 H   0  0  0  0  0  0  0  0  0  0  0  0
   -7.4486    9.6329   -8.3779 H   0  0  0  0  0  0  0  0  0  0  0  0
   -5.2996    7.4495   -8.5278 H   0  0  0  0  0  0  0  0  0  0  0  0
   -6.4588    7.8495   -9.7970 H   0  0  0  0  0  0  0  0  0  0  0  0
   -5.2146    9.0187   -9.3379 H   0  0  0  0  0  0  0  0  0  0  0  0
   -7.3797    3.2041   -5.5386 H   0  0  0  0  0  0  0  0  0  0  0  0
   -3.9262   -1.0673   -1.7827 H   0  0  0  0  0  0  0  0  0  0  0  0
   -2.4065   -2.3967   -0.4351 H   0  0  0  0  0  0  0  0  0  0  0  0
   -1.0605   -3.7251    0.6506 H   0  0  0  0  0  0  0  0  0  0  0  0
    0.3284   -3.7560    1.7500 H   0  0  0  0  0  0  0  0  0  0  0  0
   -1.7753   -3.3090    3.0287 H   0  0  0  0  0  0  0  0  0  0  0  0
   -0.6656   -1.9349    3.1143 H   0  0  0  0  0  0  0  0  0  0  0  0
   -2.0699   -1.8686    2.0455 H   0  0  0  0  0  0  0  0  0  0  0  0
   -0.9753    2.0251   -2.0541 H   0  0  0  0  0  0  0  0  0  0  0  0
   -0.8779    1.1858   -4.1959 H   0  0  0  0  0  0  0  0  0  0  0  0
    0.8419    4.3349   -4.5577 H   0  0  0  0  0  0  0  0  0  0  0  0
    3.0059    5.7301   -5.2957 H   0  0  0  0  0  0  0  0  0  0  0  0
    2.9421    7.7475   -3.9464 H   0  0  0  0  0  0  0  0  0  0  0  0
    2.6230   10.3214   -1.3177 H   0  0  0  0  0  0  0  0  0  0  0  0
    3.0468    9.5916   -2.8715 H   0  0  0  0  0  0  0  0  0  0  0  0
    0.5007    9.0383   -1.2391 H   0  0  0  0  0  0  0  0  0  0  0  0
    0.5725    9.9931   -2.7217 H   0  0  0  0  0  0  0  0  0  0  0  0
    0.8821    8.2554   -2.7729 H   0  0  0  0  0  0  0  0  0  0  0  0
    3.8840    3.4098   -1.8011 H   0  0  0  0  0  0  0  0  0  0  0  0
    5.5553    0.1955   -7.7246 H   0  0  0  0  0  0  0  0  0  0  0  0
    5.8164   -1.7638   -9.1423 H   0  0  0  0  0  0  0  0  0  0  0  0
    6.2553   -3.5938  -10.1935 H   0  0  0  0  0  0  0  0  0  0  0  0
    5.7246   -5.2714  -10.3747 H   0  0  0  0  0  0  0  0  0  0  0  0
    6.0059   -3.8304   -7.6816 H   0  0  0  0  0  0  0  0  0  0  0  0
    7.1391   -5.0230   -8.3229 H   0  0  0  0  0  0  0  0  0  0  0  0
    5.4949   -5.5037   -7.9063 H   0  0  0  0  0  0  0  0  0  0  0  0
    1.4606   -0.8571   -7.0203 H   0  0  0  0  0  0  0  0  0  0  0  0
    5.3190   -0.8991   -5.3517 H   0  0  0  0  0  0  0  0  0  0  0  0
    5.5154    0.3645   -0.9224 H   0  0  0  0  0  0  0  0  0  0  0  0
    3.2321   -0.2715   -0.1989 H   0  0  0  0  0  0  0  0  0  0  0  0
    2.3413    1.5830    1.1385 H   0  0  0  0  0  0  0  0  0  0  0  0
    4.9201    2.7725    4.9138 H   0  0  0  0  0  0  0  0  0  0  0  0
    3.9557    4.2583    4.8186 H   0  0  0  0  0  0  0  0  0  0  0  0
    5.4990    3.0023    2.4833 H   0  0  0  0  0  0  0  0  0  0  0  0
    4.5117    4.4619    2.3793 H   0  0  0  0  0  0  0  0  0  0  0  0
    5.9785    4.4551    3.3658 H   0  0  0  0  0  0  0  0  0  0  0  0
    5.7006   -1.4342    3.1062 H   0  0  0  0  0  0  0  0  0  0  0  0
    7.6153   -6.2398   -0.4244 H   0  0  0  0  0  0  0  0  0  0  0  0
    8.3658   -8.1330   -1.7533 H   0  0  0  0  0  0  0  0  0  0  0  0
    9.0006   -9.9130   -2.7814 H   0  0  0  0  0  0  0  0  0  0  0  0
    8.5499  -11.0100   -4.0939 H   0  0  0  0  0  0  0  0  0  0  0  0
    6.1669  -10.9417   -3.3691 H   0  0  0  0  0  0  0  0  0  0  0  0
    7.1978  -11.5411   -2.0671 H   0  0  0  0  0  0  0  0  0  0  0  0
    6.5911   -9.8782   -2.0245 H   0  0  0  0  0  0  0  0  0  0  0  0
    5.4855   -4.7010   -3.8076 H   0  0  0  0  0  0  0  0  0  0  0  0
    5.2367   -6.6558    0.1490 H   0  0  0  0  0  0  0  0  0  0  0  0
    4.7561   -8.4149    1.8181 H   0  0  0  0  0  0  0  0  0  0  0  0
    3.3835  -10.2251    0.7666 H   0  0  0  0  0  0  0  0  0  0  0  0
    4.9117  -11.5771   -0.6097 H   0  0  0  0  0  0  0  0  0  0  0  0
    8.4186  -13.9656    1.7326 H   0  0  0  0  0  0  0  0  0  0  0  0
    9.1255  -14.0051    0.1077 H   0  0  0  0  0  0  0  0  0  0  0  0
    9.9563  -12.0154    1.3853 H   0  0  0  0  0  0  0  0  0  0  0  0
    9.0063  -11.5151   -0.0204 H   0  0  0  0  0  0  0  0  0  0  0  0
    8.2952  -11.4543    1.5963 H   0  0  0  0  0  0  0  0  0  0  0  0
    4.9505  -12.0988    4.2848 H   0  0  0  0  0  0  0  0  0  0  0  0
    0.9394   -8.3530    7.6118 H   0  0  0  0  0  0  0  0  0  0  0  0
   -0.5628   -6.7796    8.7638 H   0  0  0  0  0  0  0  0  0  0  0  0
   -2.8482   -2.5512    7.6411 H   0  0  0  0  0  0  0  0  0  0  0  0
   -2.8143   -3.3445    6.0565 H   0  0  0  0  0  0  0  0  0  0  0  0
   -0.3472   -2.6580    7.7504 H   0  0  0  0  0  0  0  0  0  0  0  0
   -0.8868   -1.7479    6.3336 H   0  0  0  0  0  0  0  0  0  0  0  0
   -0.3039   -3.4028    6.1497 H   0  0  0  0  0  0  0  0  0  0  0  0
   -0.3903   -6.7967    3.8502 H   0  0  0  0  0  0  0  0  0  0  0  0
   -0.2102  -10.3435    6.5875 H   0  0  0  0  0  0  0  0  0  0  0  0
    0.3892  -12.8733    6.4023 H   0  0  0  0  0  0  0  0  0  0  0  0
  1  2  2  0  0  0  0
  2  3  1  0  0  0  0
  3  4  2  0  0  0  0
  4  5  1  0  0  0  0
  5  6  2  0  0  0  0
  6  7  1  0  0  0  0
  7  8  2  0  0  0  0
  8  9  1  0  0  0  0
  9 10  1  0  0  0  0
 10 11  1  0  0  0  0
  8 12  1  0  0  0  0
 12 13  1  0  0  0  0
 12 14  2  0  0  0  0
  4 15  1  0  0  0  0
 15 16  2  0  0  0  0
 16 17  1  0  0  0  0
 17 18  1  0  0  0  0
 18 19  2  0  0  0  0
 19 20  1  0  0  0  0
 20 21  2  0  0  0  0
 21 22  1  0  0  0  0
 22 23  1  0  0  0  0
 23 24  1  0  0  0  0
 21 25  1  0  0  0  0
 25 26  2  0  0  0  0
 25 27  1  0  0  0  0
 17 28  2  0  0  0  0
 28 29  1  0  0  0  0
 16 30  1  0  0  0  0
 30 31  2  0  0  0  0
 31 32  1  0  0  0  0
 31 33  1  0  0  0  0
 33 34  1  0  0  0  0
 34 35  2  0  0  0  0
 35 36  1  0  0  0  0
 36 37  2  0  0  0  0
 37 38  1  0  0  0  0
 36 39  1  0  0  0  0
 39 40  2  0  0  0  0
 35 41  1  0  0  0  0
 41 42  2  0  0  0  0
 42 43  1  0  0  0  0
 43 44  2  0  0  0  0
 44 45  1  0  0  0  0
 45 46  2  0  0  0  0
 46 47  1  0  0  0  0
 47 48  2  0  0  0  0
 48 49  1  0  0  0  0
 49 50  1  0  0  0  0
 50 51  1  0  0  0  0
 48 52  1  0  0  0  0
 52 53  1  0  0  0  0
 52 54  2  0  0  0  0
 44 55  1  0  0  0  0
 55 56  2  0  0  0  0
 56 57  1  0  0  0  0
 57 58  1  0  0  0  0
 58 59  2  0  0  0  0
 59 60  1  0  0  0  0
 60 61  2  0  0  0  0
 61 62  1  0  0  0  0
 62 63  1  0  0  0  0
 63 64  1  0  0  0  0
 61 65  1  0  0  0  0
 65 66  2  0  0  0  0
 65 67  1  0  0  0  0
 57 68  2  0  0  0  0
 68 69  1  0  0  0  0
 56 70  1  0  0  0  0
 70 71  2  0  0  0  0
 71 72  1  0  0  0  0
 71 73  1  0  0  0  0
 73 74  2  0  0  0  0
 74 75  1  0  0  0  0
 75 76  2  0  0  0  0
 76 77  1  0  0  0  0
 77 78  2  0  0  0  0
 78 79  1  0  0  0  0
 79 80  2  0  0  0  0
 80 81  1  0  0  0  0
 81 82  1  0  0  0  0
 82 83  1  0  0  0  0
 80 84  1  0  0  0  0
 84 85  1  0  0  0  0
 84 86  2  0  0  0  0
 76 87  1  0  0  0  0
 87 88  2  0  0  0  0
 88 89  1  0  0  0  0
 89 90  1  0  0  0  0
 90 91  2  0  0  0  0
 91 92  1  0  0  0  0
 92 93  2  0  0  0  0
 93 94  1  0  0  0  0
 94 95  1  0  0  0  0
 95 96  1  0  0  0  0
 93 97  1  0  0  0  0
 97 98  2  0  0  0  0
 97 99  1  0  0  0  0
 89100  2  0  0  0  0
100101  1  0  0  0  0
 88102  1  0  0  0  0
102103  2  0  0  0  0
103104  1  0  0  0  0
103105  1  0  0  0  0
105106  2  0  0  0  0
106107  1  0  0  0  0
107108  2  0  0  0  0
108109  1  0  0  0  0
109110  2  0  0  0  0
110111  1  0  0  0  0
111112  2  0  0  0  0
112113  1  0  0  0  0
113114  1  0  0  0  0
114115  1  0  0  0  0
112116  1  0  0  0  0
116117  1  0  0  0  0
116118  2  0  0  0  0
108119  1  0  0  0  0
119120  2  0  0  0  0
120121  1  0  0  0  0
121122  1  0  0  0  0
122123  2  0  0  0  0
123124  1  0  0  0  0
124125  2  0  0  0  0
125126  1  0  0  0  0
126127  1  0  0  0  0
127128  1  0  0  0  0
125129  1  0  0  0  0
129130  2  0  0  0  0
129131  1  0  0  0  0
121132  2  0  0  0  0
132133  1  0  0  0  0
120134  1  0  0  0  0
134135  2  0  0  0  0
135136  1  0  0  0  0
135137  1  0  0  0  0
137138  2  0  0  0  0
138139  1  0  0  0  0
139140  2  0  0  0  0
140141  1  0  0  0  0
141142  2  0  0  0  0
142143  1  0  0  0  0
143144  2  0  0  0  0
144145  1  0  0  0  0
145146  1  0  0  0  0
146147  1  0  0  0  0
144148  1  0  0  0  0
148149  1  0  0  0  0
148150  2  0  0  0  0
140151  1  0  0  0  0
151152  2  0  0  0  0
152153  1  0  0  0  0
153154  1  0  0  0  0
154155  2  0  0  0  0
155156  1  0  0  0  0
156157  2  0  0  0  0
157158  1  0  0  0  0
158159  1  0  0  0  0
159160  1  0  0  0  0
157161  1  0  0  0  0
161162  2  0  0  0  0
161163  1  0  0  0  0
153164  2  0  0  0  0
164165  1  0  0  0  0
152166  1  0  0  0  0
166167  2  0  0  0  0
167168  1  0  0  0  0
 29  1  1  0  0  0  0
 39 33  1  0  0  0  0
 69 41  1  0  0  0  0
101 73  1  0  0  0  0
133105  1  0  0  0  0
165137  1  0  0  0  0
 28  3  1  0  0  0  0
 68 43  1  0  0  0  0
100 75  1  0  0  0  0
132107  1  0  0  0  0
164139  1  0  0  0  0
 14  5  1  0  0  0  0
 32 15  1  0  0  0  0
 54 45  1  0  0  0  0
 72 55  1  0  0  0  0
 86 77  1  0  0  0  0
104 87  1  0  0  0  0
118109  1  0  0  0  0
136119  1  0  0  0  0
150141  1  0  0  0  0
168151  1  0  0  0  0
 26 18  1  0  0  0  0
 66 58  1  0  0  0  0
 98 90  1  0  0  0  0
130122  1  0  0  0  0
162154  1  0  0  0  0
  1169  1  0  0  0  0
  2170  1  0  0  0  0
  6171  1  0  0  0  0
  7172  1  0  0  0  0
 10173  1  0  0  0  0
 10174  1  0  0  0  0
 11175  1  0  0  0  0
 11176  1  0  0  0  0
 11177  1  0  0  0  0
 14178  1  0  0  0  0
 19179  1  0  0  0  0
 20180  1  0  0  0  0
 23181  1  0  0  0  0
 23182  1  0  0  0  0
 24183  1  0  0  0  0
 24184  1  0  0  0  0
 24185  1  0  0  0  0
 26186  1  0  0  0  0
 30187  1  0  0  0  0
 33188  1  0  0  0  0
 34189  1  0  0  0  0
 38190  1  0  0  0  0
 38191  1  0  0  0  0
 42192  1  0  0  0  0
 46193  1  0  0  0  0
 47194  1  0  0  0  0
 50195  1  0  0  0  0
 50196  1  0  0  0  0
 51197  1  0  0  0  0
 51198  1  0  0  0  0
 51199  1  0  0  0  0
 54200  1  0  0  0  0
 59201  1  0  0  0  0
 60202  1  0  0  0  0
 63203  1  0  0  0  0
 63204  1  0  0  0  0
 64205  1  0  0  0  0
 64206  1  0  0  0  0
 64207  1  0  0  0  0
 66208  1  0  0  0  0
 70209  1  0  0  0  0
 74210  1  0  0  0  0
 78211  1  0  0  0  0
 79212  1  0  0  0  0
 82213  1  0  0  0  0
 82214  1  0  0  0  0
 83215  1  0  0  0  0
 83216  1  0  0  0  0
 83217  1  0  0  0  0
 86218  1  0  0  0  0
 91219  1  0  0  0  0
 92220  1  0  0  0  0
 95221  1  0  0  0  0
 95222  1  0  0  0  0
 96223  1  0  0  0  0
 96224  1  0  0  0  0
 96225  1  0  0  0  0
 98226  1  0  0  0  0
102227  1  0  0  0  0
106228  1  0  0  0  0
110229  1  0  0  0  0
111230  1  0  0  0  0
114231  1  0  0  0  0
114232  1  0  0  0  0
115233  1  0  0  0  0
115234  1  0  0  0  0
115235  1  0  0  0  0
118236  1  0  0  0  0
123237  1  0  0  0  0
124238  1  0  0  0  0
127239  1  0  0  0  0
127240  1  0  0  0  0
128241  1  0  0  0  0
128242  1  0  0  0  0
128243  1  0  0  0  0
130244  1  0  0  0  0
134245  1  0  0  0  0
138246  1  0  0  0  0
142247  1  0  0  0  0
143248  1  0  0  0  0
146249  1  0  0  0  0
146250  1  0  0  0  0
147251  1  0  0  0  0
147252  1  0  0  0  0
147253  1  0  0  0  0
150254  1  0  0  0  0
155255  1  0  0  0  0
156256  1  0  0  0  0
159257  1  0  0  0  0
159258  1  0  0  0  0
160259  1  0  0  0  0
160260  1  0  0  0  0
160261  1  0  0  0  0
162262  1  0  0  0  0
166263  1  0  0  0  0
167264  1  0  0  0  0
M  END
