
  xtb     03082208473D
 energy: -387.196518369747 gnorm: 0.000131312658 xtb: 6.4.1 (unknown)
222243  0     0  0            999 V2000
    8.8791   -6.2219   11.5952 C   0  0  0  0  0  0  0  0  0  0  0  0
    9.4823   -5.1969   12.8697 S   0  0  0  0  0  0  0  0  0  0  0  0
    8.5861   -3.9129   12.1745 C   0  0  0  0  0  0  0  0  0  0  0  0
    7.9087   -4.3322   11.0546 C   0  0  0  0  0  0  0  0  0  0  0  0
    8.1027   -5.6526   10.7605 N   0  0  0  0  0  0  0  0  0  0  0  0
    7.0617   -3.5044   10.2407 C   0  0  0  0  0  0  0  0  0  0  0  0
    6.4234   -3.9719    9.1527 C   0  0  0  0  0  0  0  0  0  0  0  0
    5.5580   -3.2041    8.3136 C   0  0  0  0  0  0  0  0  0  0  0  0
    5.2016   -1.8882    8.3970 C   0  0  0  0  0  0  0  0  0  0  0  0
    4.2909   -1.4740    7.3940 C   0  0  0  0  0  0  0  0  0  0  0  0
    3.7581   -0.1881    7.1941 C   0  0  0  0  0  0  0  0  0  0  0  0
    4.0398    0.9136    8.1221 C   0  0  0  0  0  0  0  0  0  0  0  0
    3.8394    0.7565    9.4908 C   0  0  0  0  0  0  0  0  0  0  0  0
    4.0766    1.7934   10.3721 C   0  0  0  0  0  0  0  0  0  0  0  0
    4.5238    3.0276    9.9146 C   0  0  0  0  0  0  0  0  0  0  0  0
    4.8904    4.4197   10.9317 S   0  0  0  0  0  0  0  0  0  0  0  0
    4.0192    4.0651   12.4976 C   0  0  0  0  0  0  0  0  0  0  0  0
    2.5114    4.1123   12.3400 C   0  0  0  0  0  0  0  0  0  0  0  0
    4.7295    3.1678    8.5408 C   0  0  0  0  0  0  0  0  0  0  0  0
    5.1813    4.3439    8.0654 F   0  0  0  0  0  0  0  0  0  0  0  0
    4.4902    2.1446    7.6512 C   0  0  0  0  0  0  0  0  0  0  0  0
    2.9261   -0.0230    6.0982 C   0  0  0  0  0  0  0  0  0  0  0  0
    2.5874   -1.0850    5.2235 C   0  0  0  0  0  0  0  0  0  0  0  0
    3.1278   -2.3700    5.4113 C   0  0  0  0  0  0  0  0  0  0  0  0
    2.8111   -3.4569    4.4780 C   0  0  0  0  0  0  0  0  0  0  0  0
    2.8868   -3.2555    3.0981 C   0  0  0  0  0  0  0  0  0  0  0  0
    2.5351   -4.2553    2.2209 C   0  0  0  0  0  0  0  0  0  0  0  0
    2.1109   -5.5091    2.6675 C   0  0  0  0  0  0  0  0  0  0  0  0
    1.7208   -6.6678    1.3993 S   0  0  0  0  0  0  0  0  0  0  0  0
    0.6361   -7.9380    2.1418 C   0  0  0  0  0  0  0  0  0  0  0  0
   -0.6797   -7.3700    2.6317 C   0  0  0  0  0  0  0  0  0  0  0  0
    2.0984   -5.7136    4.0436 C   0  0  0  0  0  0  0  0  0  0  0  0
    2.4229   -4.7104    4.9361 C   0  0  0  0  0  0  0  0  0  0  0  0
    1.7606   -6.9121    4.5739 F   0  0  0  0  0  0  0  0  0  0  0  0
    3.9633   -2.5321    6.5063 C   0  0  0  0  0  0  0  0  0  0  0  0
    4.7804   -4.0021    6.9594 S   0  0  0  0  0  0  0  0  0  0  0  0
    1.6416   -0.6817    4.2521 C   0  0  0  0  0  0  0  0  0  0  0  0
    1.2829    0.6328    4.3416 C   0  0  0  0  0  0  0  0  0  0  0  0
    2.1019    1.4517    5.6533 S   0  0  0  0  0  0  0  0  0  0  0  0
    0.3381    1.2884    3.4937 C   0  0  0  0  0  0  0  0  0  0  0  0
   -0.4351    0.6682    2.5561 C   0  0  0  0  0  0  0  0  0  0  0  0
   -1.3004    1.5447    1.8621 C   0  0  0  0  0  0  0  0  0  0  0  0
   -2.2369    1.1919    0.8769 C   0  0  0  0  0  0  0  0  0  0  0  0
   -2.2993   -0.2388    0.5212 C   0  0  0  0  0  0  0  0  0  0  0  0
   -2.7648   -1.1660    1.4533 C   0  0  0  0  0  0  0  0  0  0  0  0
   -2.5810   -2.5143    1.2536 C   0  0  0  0  0  0  0  0  0  0  0  0
   -1.8983   -3.0032    0.1350 C   0  0  0  0  0  0  0  0  0  0  0  0
   -1.6048   -4.7390    0.1709 S   0  0  0  0  0  0  0  0  0  0  0  0
   -0.6054   -5.2134   -1.2851 C   0  0  0  0  0  0  0  0  0  0  0  0
   -1.4631   -5.4350   -2.5121 C   0  0  0  0  0  0  0  0  0  0  0  0
   -1.4988   -2.0670   -0.8108 C   0  0  0  0  0  0  0  0  0  0  0  0
   -0.8369   -2.4373   -1.9308 F   0  0  0  0  0  0  0  0  0  0  0  0
   -1.7023   -0.7100   -0.6373 C   0  0  0  0  0  0  0  0  0  0  0  0
   -2.9968    2.2152    0.3476 C   0  0  0  0  0  0  0  0  0  0  0  0
   -2.8500    3.5671    0.7653 C   0  0  0  0  0  0  0  0  0  0  0  0
   -1.9112    3.9183    1.7515 C   0  0  0  0  0  0  0  0  0  0  0  0
   -1.7660    5.3010    2.2227 C   0  0  0  0  0  0  0  0  0  0  0  0
   -2.8685    6.0357    2.6493 C   0  0  0  0  0  0  0  0  0  0  0  0
   -2.7316    7.3338    3.1015 C   0  0  0  0  0  0  0  0  0  0  0  0
   -1.4856    7.9498    3.1314 C   0  0  0  0  0  0  0  0  0  0  0  0
   -1.1679    9.5901    3.6875 S   0  0  0  0  0  0  0  0  0  0  0  0
   -2.8118   10.3859    3.6877 C   0  0  0  0  0  0  0  0  0  0  0  0
   -3.3496   10.5967    2.2852 C   0  0  0  0  0  0  0  0  0  0  0  0
   -0.3863    7.1949    2.7165 C   0  0  0  0  0  0  0  0  0  0  0  0
   -0.5076    5.8973    2.2743 C   0  0  0  0  0  0  0  0  0  0  0  0
    0.8369    7.7570    2.7403 F   0  0  0  0  0  0  0  0  0  0  0  0
   -1.1477    2.8876    2.2792 C   0  0  0  0  0  0  0  0  0  0  0  0
    0.0442    3.0145    3.5504 S   0  0  0  0  0  0  0  0  0  0  0  0
   -3.7609    4.4200    0.0933 C   0  0  0  0  0  0  0  0  0  0  0  0
   -4.6014    3.7584   -0.7509 C   0  0  0  0  0  0  0  0  0  0  0  0
   -4.2736    2.0402   -0.8311 S   0  0  0  0  0  0  0  0  0  0  0  0
   -5.7357    4.2779   -1.4375 C   0  0  0  0  0  0  0  0  0  0  0  0
   -6.0755    6.0129   -1.5319 S   0  0  0  0  0  0  0  0  0  0  0  0
   -7.5560    5.6168   -2.3039 C   0  0  0  0  0  0  0  0  0  0  0  0
   -7.6949    4.2603   -2.4547 C   0  0  0  0  0  0  0  0  0  0  0  0
   -6.6523    3.5455   -1.9616 N   0  0  0  0  0  0  0  0  0  0  0  0
   -8.8501    3.5632   -2.9868 C   0  0  0  0  0  0  0  0  0  0  0  0
   -8.7885    2.3083   -3.4467 C   0  0  0  0  0  0  0  0  0  0  0  0
   -7.5210    1.6394   -3.6676 C   0  0  0  0  0  0  0  0  0  0  0  0
   -6.5039    2.1196   -4.4270 C   0  0  0  0  0  0  0  0  0  0  0  0
   -5.3595    1.2823   -4.4479 C   0  0  0  0  0  0  0  0  0  0  0  0
   -4.1551    1.4859   -5.1391 C   0  0  0  0  0  0  0  0  0  0  0  0
   -3.8939    2.7525   -5.8305 C   0  0  0  0  0  0  0  0  0  0  0  0
   -3.4173    2.7988   -7.1384 C   0  0  0  0  0  0  0  0  0  0  0  0
   -3.2003    4.0090   -7.7622 C   0  0  0  0  0  0  0  0  0  0  0  0
   -3.4329    5.2169   -7.1076 C   0  0  0  0  0  0  0  0  0  0  0  0
   -3.0817    6.7042   -7.9998 S   0  0  0  0  0  0  0  0  0  0  0  0
   -4.4499    7.8301   -7.5375 C   0  0  0  0  0  0  0  0  0  0  0  0
   -5.8069    7.2401   -7.8653 C   0  0  0  0  0  0  0  0  0  0  0  0
   -3.8712    5.1554   -5.7880 C   0  0  0  0  0  0  0  0  0  0  0  0
   -4.0777    6.2831   -5.0691 F   0  0  0  0  0  0  0  0  0  0  0  0
   -4.1138    3.9523   -5.1591 C   0  0  0  0  0  0  0  0  0  0  0  0
   -3.2310    0.4546   -5.0905 C   0  0  0  0  0  0  0  0  0  0  0  0
   -3.4279   -0.7232   -4.3254 C   0  0  0  0  0  0  0  0  0  0  0  0
   -4.5948   -0.8817   -3.5614 C   0  0  0  0  0  0  0  0  0  0  0  0
   -4.7812   -2.0129   -2.6434 C   0  0  0  0  0  0  0  0  0  0  0  0
   -5.0638   -1.7638   -1.3011 C   0  0  0  0  0  0  0  0  0  0  0  0
   -5.2429   -2.8048   -0.4179 C   0  0  0  0  0  0  0  0  0  0  0  0
   -5.1471   -4.1330   -0.8300 C   0  0  0  0  0  0  0  0  0  0  0  0
   -5.3314   -5.3705    0.4187 S   0  0  0  0  0  0  0  0  0  0  0  0
   -6.2635   -6.7145   -0.4038 C   0  0  0  0  0  0  0  0  0  0  0  0
   -7.5957   -6.2337   -0.9426 C   0  0  0  0  0  0  0  0  0  0  0  0
   -4.8572   -4.3652   -2.1703 C   0  0  0  0  0  0  0  0  0  0  0  0
   -4.6821   -3.3315   -3.0701 C   0  0  0  0  0  0  0  0  0  0  0  0
   -4.7413   -5.6252   -2.6489 F   0  0  0  0  0  0  0  0  0  0  0  0
   -5.5504    0.1177   -3.6693 C   0  0  0  0  0  0  0  0  0  0  0  0
   -7.1338    0.1005   -2.9372 S   0  0  0  0  0  0  0  0  0  0  0  0
   -2.3140   -1.5958   -4.4130 C   0  0  0  0  0  0  0  0  0  0  0  0
   -1.3023   -1.1229   -5.1912 C   0  0  0  0  0  0  0  0  0  0  0  0
   -1.6740    0.4488   -5.8774 S   0  0  0  0  0  0  0  0  0  0  0  0
   -0.0460   -1.7405   -5.4635 C   0  0  0  0  0  0  0  0  0  0  0  0
    0.9577   -1.2682   -6.2555 C   0  0  0  0  0  0  0  0  0  0  0  0
    2.1022   -2.1061   -6.2833 C   0  0  0  0  0  0  0  0  0  0  0  0
    3.3172   -1.8981   -6.9567 C   0  0  0  0  0  0  0  0  0  0  0  0
    3.4884   -0.7594   -7.8655 C   0  0  0  0  0  0  0  0  0  0  0  0
    4.5987    0.0794   -7.7855 C   0  0  0  0  0  0  0  0  0  0  0  0
    4.7217    1.1634   -8.6272 C   0  0  0  0  0  0  0  0  0  0  0  0
    3.7559    1.4494   -9.5917 C   0  0  0  0  0  0  0  0  0  0  0  0
    4.0273    2.8549  -10.6233 S   0  0  0  0  0  0  0  0  0  0  0  0
    2.3306    3.4771  -10.9654 C   0  0  0  0  0  0  0  0  0  0  0  0
    2.4056    4.9568  -11.2853 C   0  0  0  0  0  0  0  0  0  0  0  0
    2.6752    0.5776   -9.6900 C   0  0  0  0  0  0  0  0  0  0  0  0
    1.7260    0.7503  -10.6390 F   0  0  0  0  0  0  0  0  0  0  0  0
    2.5280   -0.4973   -8.8384 C   0  0  0  0  0  0  0  0  0  0  0  0
    4.3240   -2.8251   -6.7226 C   0  0  0  0  0  0  0  0  0  0  0  0
    4.1651   -3.9424   -5.8669 C   0  0  0  0  0  0  0  0  0  0  0  0
    2.9450   -4.1617   -5.2157 C   0  0  0  0  0  0  0  0  0  0  0  0
    2.7322   -5.2843   -4.2907 C   0  0  0  0  0  0  0  0  0  0  0  0
    1.6903   -6.1872   -4.4879 C   0  0  0  0  0  0  0  0  0  0  0  0
    1.4771   -7.2141   -3.5941 C   0  0  0  0  0  0  0  0  0  0  0  0
    2.2677   -7.3676   -2.4550 C   0  0  0  0  0  0  0  0  0  0  0  0
    1.8100   -8.6789   -1.3642 S   0  0  0  0  0  0  0  0  0  0  0  0
    3.3645   -9.2314   -0.5773 C   0  0  0  0  0  0  0  0  0  0  0  0
    4.3773   -9.7145   -1.5952 C   0  0  0  0  0  0  0  0  0  0  0  0
    3.2924   -6.4462   -2.2619 C   0  0  0  0  0  0  0  0  0  0  0  0
    3.5399   -5.4351   -3.1703 C   0  0  0  0  0  0  0  0  0  0  0  0
    4.0942   -6.5004   -1.1761 F   0  0  0  0  0  0  0  0  0  0  0  0
    1.9366   -3.2405   -5.4517 C   0  0  0  0  0  0  0  0  0  0  0  0
    0.3601   -3.2691   -4.7121 S   0  0  0  0  0  0  0  0  0  0  0  0
    5.3381   -4.7538   -5.8333 C   0  0  0  0  0  0  0  0  0  0  0  0
    6.3255   -4.2795   -6.6185 C   0  0  0  0  0  0  0  0  0  0  0  0
    5.9104   -2.8193   -7.4511 S   0  0  0  0  0  0  0  0  0  0  0  0
    9.1617   -7.2545   11.5476 H   0  0  0  0  0  0  0  0  0  0  0  0
    8.6015   -2.9354   12.6119 H   0  0  0  0  0  0  0  0  0  0  0  0
    6.9628   -2.4755   10.5547 H   0  0  0  0  0  0  0  0  0  0  0  0
    6.5601   -5.0104    8.8855 H   0  0  0  0  0  0  0  0  0  0  0  0
    5.5907   -1.2183    9.1415 H   0  0  0  0  0  0  0  0  0  0  0  0
    3.4708   -0.1852    9.8696 H   0  0  0  0  0  0  0  0  0  0  0  0
    3.9128    1.6287   11.4249 H   0  0  0  0  0  0  0  0  0  0  0  0
    4.3648    4.8564   13.1629 H   0  0  0  0  0  0  0  0  0  0  0  0
    4.3684    3.1097   12.8875 H   0  0  0  0  0  0  0  0  0  0  0  0
    2.0326    3.9370   13.3016 H   0  0  0  0  0  0  0  0  0  0  0  0
    2.2042    5.0876   11.9704 H   0  0  0  0  0  0  0  0  0  0  0  0
    2.1677    3.3563   11.6369 H   0  0  0  0  0  0  0  0  0  0  0  0
    4.6713    2.3095    6.6009 H   0  0  0  0  0  0  0  0  0  0  0  0
    3.2387   -2.3096    2.7154 H   0  0  0  0  0  0  0  0  0  0  0  0
    2.5852   -4.0893    1.1556 H   0  0  0  0  0  0  0  0  0  0  0  0
    1.1839   -8.4482    2.9312 H   0  0  0  0  0  0  0  0  0  0  0  0
    0.4776   -8.6295    1.3130 H   0  0  0  0  0  0  0  0  0  0  0  0
   -1.1990   -6.8526    1.8287 H   0  0  0  0  0  0  0  0  0  0  0  0
   -0.5249   -6.6690    3.4484 H   0  0  0  0  0  0  0  0  0  0  0  0
   -1.3103   -8.1799    2.9925 H   0  0  0  0  0  0  0  0  0  0  0  0
    2.3569   -4.9246    5.9913 H   0  0  0  0  0  0  0  0  0  0  0  0
    1.2281   -1.3549    3.5251 H   0  0  0  0  0  0  0  0  0  0  0  0
   -0.4055   -0.3883    2.3673 H   0  0  0  0  0  0  0  0  0  0  0  0
   -3.2485   -0.8162    2.3528 H   0  0  0  0  0  0  0  0  0  0  0  0
   -2.9245   -3.2298    1.9850 H   0  0  0  0  0  0  0  0  0  0  0  0
   -0.1272   -6.1414   -0.9695 H   0  0  0  0  0  0  0  0  0  0  0  0
    0.1639   -4.4633   -1.4462 H   0  0  0  0  0  0  0  0  0  0  0  0
   -1.9818   -4.5207   -2.7878 H   0  0  0  0  0  0  0  0  0  0  0  0
   -2.2016   -6.2104   -2.3249 H   0  0  0  0  0  0  0  0  0  0  0  0
   -0.8349   -5.7367   -3.3460 H   0  0  0  0  0  0  0  0  0  0  0  0
   -1.3369   -0.0320   -1.3934 H   0  0  0  0  0  0  0  0  0  0  0  0
   -3.8452    5.5753    2.6560 H   0  0  0  0  0  0  0  0  0  0  0  0
   -3.6087    7.8604    3.4414 H   0  0  0  0  0  0  0  0  0  0  0  0
   -3.4864    9.7998    4.3106 H   0  0  0  0  0  0  0  0  0  0  0  0
   -2.6296   11.3411    4.1801 H   0  0  0  0  0  0  0  0  0  0  0  0
   -3.4851    9.6476    1.7708 H   0  0  0  0  0  0  0  0  0  0  0  0
   -2.6574   11.2034    1.7064 H   0  0  0  0  0  0  0  0  0  0  0  0
   -4.3090   11.1088    2.3291 H   0  0  0  0  0  0  0  0  0  0  0  0
    0.3751    5.3686    1.9515 H   0  0  0  0  0  0  0  0  0  0  0  0
   -3.8063    5.4841    0.2422 H   0  0  0  0  0  0  0  0  0  0  0  0
   -8.2319    6.3900   -2.6084 H   0  0  0  0  0  0  0  0  0  0  0  0
   -9.7922    4.0891   -2.9308 H   0  0  0  0  0  0  0  0  0  0  0  0
   -9.6904    1.7664   -3.6966 H   0  0  0  0  0  0  0  0  0  0  0  0
   -6.5805    3.0369   -4.9829 H   0  0  0  0  0  0  0  0  0  0  0  0
   -3.2449    1.8813   -7.6790 H   0  0  0  0  0  0  0  0  0  0  0  0
   -2.8475    4.0420   -8.7812 H   0  0  0  0  0  0  0  0  0  0  0  0
   -4.3590    8.0850   -6.4840 H   0  0  0  0  0  0  0  0  0  0  0  0
   -4.2533    8.7194   -8.1362 H   0  0  0  0  0  0  0  0  0  0  0  0
   -5.9987    6.3513   -7.2665 H   0  0  0  0  0  0  0  0  0  0  0  0
   -6.5851    7.9709   -7.6543 H   0  0  0  0  0  0  0  0  0  0  0  0
   -5.8602    6.9654   -8.9167 H   0  0  0  0  0  0  0  0  0  0  0  0
   -4.4438    3.9566   -4.1313 H   0  0  0  0  0  0  0  0  0  0  0  0
   -5.1318   -0.7453   -0.9517 H   0  0  0  0  0  0  0  0  0  0  0  0
   -5.4644   -2.6075    0.6188 H   0  0  0  0  0  0  0  0  0  0  0  0
   -6.4020   -7.4443    0.3939 H   0  0  0  0  0  0  0  0  0  0  0  0
   -5.6430   -7.1541   -1.1813 H   0  0  0  0  0  0  0  0  0  0  0  0
   -8.1512   -7.0754   -1.3514 H   0  0  0  0  0  0  0  0  0  0  0  0
   -8.1850   -5.7764   -0.1505 H   0  0  0  0  0  0  0  0  0  0  0  0
   -7.4528   -5.4997   -1.7333 H   0  0  0  0  0  0  0  0  0  0  0  0
   -4.4831   -3.5712   -4.1037 H   0  0  0  0  0  0  0  0  0  0  0  0
   -2.2563   -2.5440   -3.9133 H   0  0  0  0  0  0  0  0  0  0  0  0
    0.8890   -0.3303   -6.7772 H   0  0  0  0  0  0  0  0  0  0  0  0
    5.3538   -0.1013   -7.0365 H   0  0  0  0  0  0  0  0  0  0  0  0
    5.5734    1.8209   -8.5491 H   0  0  0  0  0  0  0  0  0  0  0  0
    1.7365    3.2988  -10.0704 H   0  0  0  0  0  0  0  0  0  0  0  0
    1.9193    2.9134  -11.8015 H   0  0  0  0  0  0  0  0  0  0  0  0
    2.8315    5.5074  -10.4496 H   0  0  0  0  0  0  0  0  0  0  0  0
    1.4067    5.3396  -11.4835 H   0  0  0  0  0  0  0  0  0  0  0  0
    3.0256    5.1269  -12.1626 H   0  0  0  0  0  0  0  0  0  0  0  0
    1.6753   -1.1462   -8.9663 H   0  0  0  0  0  0  0  0  0  0  0  0
    1.0615   -6.0930   -5.3602 H   0  0  0  0  0  0  0  0  0  0  0  0
    0.6814   -7.9246   -3.7571 H   0  0  0  0  0  0  0  0  0  0  0  0
    3.7497   -8.4234    0.0402 H   0  0  0  0  0  0  0  0  0  0  0  0
    3.0382  -10.0477    0.0678 H   0  0  0  0  0  0  0  0  0  0  0  0
    5.2510  -10.1099   -1.0815 H   0  0  0  0  0  0  0  0  0  0  0  0
    3.9509  -10.4993   -2.2170 H   0  0  0  0  0  0  0  0  0  0  0  0
    4.6999   -8.8996   -2.2399 H   0  0  0  0  0  0  0  0  0  0  0  0
    4.3465   -4.7457   -2.9717 H   0  0  0  0  0  0  0  0  0  0  0  0
    5.4131   -5.6548   -5.2518 H   0  0  0  0  0  0  0  0  0  0  0  0
    7.3019   -4.6949   -6.7746 H   0  0  0  0  0  0  0  0  0  0  0  0
  1  2  1  0  0  0  0
  2  3  1  0  0  0  0
  3  4  2  0  0  0  0
  4  5  1  0  0  0  0
  4  6  1  0  0  0  0
  6  7  2  0  0  0  0
  7  8  1  0  0  0  0
  8  9  2  0  0  0  0
  9 10  1  0  0  0  0
 10 11  2  0  0  0  0
 11 12  1  0  0  0  0
 12 13  2  0  0  0  0
 13 14  1  0  0  0  0
 14 15  2  0  0  0  0
 15 16  1  0  0  0  0
 16 17  1  0  0  0  0
 17 18  1  0  0  0  0
 15 19  1  0  0  0  0
 19 20  1  0  0  0  0
 19 21  2  0  0  0  0
 11 22  1  0  0  0  0
 22 23  2  0  0  0  0
 23 24  1  0  0  0  0
 24 25  1  0  0  0  0
 25 26  2  0  0  0  0
 26 27  1  0  0  0  0
 27 28  2  0  0  0  0
 28 29  1  0  0  0  0
 29 30  1  0  0  0  0
 30 31  1  0  0  0  0
 28 32  1  0  0  0  0
 32 33  2  0  0  0  0
 32 34  1  0  0  0  0
 24 35  2  0  0  0  0
 35 36  1  0  0  0  0
 23 37  1  0  0  0  0
 37 38  2  0  0  0  0
 38 39  1  0  0  0  0
 38 40  1  0  0  0  0
 40 41  2  0  0  0  0
 41 42  1  0  0  0  0
 42 43  2  0  0  0  0
 43 44  1  0  0  0  0
 44 45  2  0  0  0  0
 45 46  1  0  0  0  0
 46 47  2  0  0  0  0
 47 48  1  0  0  0  0
 48 49  1  0  0  0  0
 49 50  1  0  0  0  0
 47 51  1  0  0  0  0
 51 52  1  0  0  0  0
 51 53  2  0  0  0  0
 43 54  1  0  0  0  0
 54 55  2  0  0  0  0
 55 56  1  0  0  0  0
 56 57  1  0  0  0  0
 57 58  2  0  0  0  0
 58 59  1  0  0  0  0
 59 60  2  0  0  0  0
 60 61  1  0  0  0  0
 61 62  1  0  0  0  0
 62 63  1  0  0  0  0
 60 64  1  0  0  0  0
 64 65  2  0  0  0  0
 64 66  1  0  0  0  0
 56 67  2  0  0  0  0
 67 68  1  0  0  0  0
 55 69  1  0  0  0  0
 69 70  2  0  0  0  0
 70 71  1  0  0  0  0
 70 72  1  0  0  0  0
 72 73  1  0  0  0  0
 73 74  1  0  0  0  0
 74 75  2  0  0  0  0
 75 76  1  0  0  0  0
 75 77  1  0  0  0  0
 77 78  2  0  0  0  0
 78 79  1  0  0  0  0
 79 80  2  0  0  0  0
 80 81  1  0  0  0  0
 81 82  2  0  0  0  0
 82 83  1  0  0  0  0
 83 84  2  0  0  0  0
 84 85  1  0  0  0  0
 85 86  2  0  0  0  0
 86 87  1  0  0  0  0
 87 88  1  0  0  0  0
 88 89  1  0  0  0  0
 86 90  1  0  0  0  0
 90 91  1  0  0  0  0
 90 92  2  0  0  0  0
 82 93  1  0  0  0  0
 93 94  2  0  0  0  0
 94 95  1  0  0  0  0
 95 96  1  0  0  0  0
 96 97  2  0  0  0  0
 97 98  1  0  0  0  0
 98 99  2  0  0  0  0
 99100  1  0  0  0  0
100101  1  0  0  0  0
101102  1  0  0  0  0
 99103  1  0  0  0  0
103104  2  0  0  0  0
103105  1  0  0  0  0
 95106  2  0  0  0  0
106107  1  0  0  0  0
 94108  1  0  0  0  0
108109  2  0  0  0  0
109110  1  0  0  0  0
109111  1  0  0  0  0
111112  2  0  0  0  0
112113  1  0  0  0  0
113114  2  0  0  0  0
114115  1  0  0  0  0
115116  2  0  0  0  0
116117  1  0  0  0  0
117118  2  0  0  0  0
118119  1  0  0  0  0
119120  1  0  0  0  0
120121  1  0  0  0  0
118122  1  0  0  0  0
122123  1  0  0  0  0
122124  2  0  0  0  0
114125  1  0  0  0  0
125126  2  0  0  0  0
126127  1  0  0  0  0
127128  1  0  0  0  0
128129  2  0  0  0  0
129130  1  0  0  0  0
130131  2  0  0  0  0
131132  1  0  0  0  0
132133  1  0  0  0  0
133134  1  0  0  0  0
131135  1  0  0  0  0
135136  2  0  0  0  0
135137  1  0  0  0  0
127138  2  0  0  0  0
138139  1  0  0  0  0
126140  1  0  0  0  0
140141  2  0  0  0  0
141142  1  0  0  0  0
  5  1  2  0  0  0  0
 36  8  1  0  0  0  0
 68 40  1  0  0  0  0
 76 72  2  0  0  0  0
107 79  1  0  0  0  0
139111  1  0  0  0  0
 35 10  1  0  0  0  0
 67 42  1  0  0  0  0
106 81  1  0  0  0  0
138113  1  0  0  0  0
 21 12  1  0  0  0  0
 39 22  1  0  0  0  0
 53 44  1  0  0  0  0
 71 54  1  0  0  0  0
 92 83  1  0  0  0  0
110 93  1  0  0  0  0
124115  1  0  0  0  0
142125  1  0  0  0  0
 33 25  1  0  0  0  0
 65 57  1  0  0  0  0
104 96  1  0  0  0  0
136128  1  0  0  0  0
  1143  1  0  0  0  0
  3144  1  0  0  0  0
  6145  1  0  0  0  0
  7146  1  0  0  0  0
  9147  1  0  0  0  0
 13148  1  0  0  0  0
 14149  1  0  0  0  0
 17150  1  0  0  0  0
 17151  1  0  0  0  0
 18152  1  0  0  0  0
 18153  1  0  0  0  0
 18154  1  0  0  0  0
 21155  1  0  0  0  0
 26156  1  0  0  0  0
 27157  1  0  0  0  0
 30158  1  0  0  0  0
 30159  1  0  0  0  0
 31160  1  0  0  0  0
 31161  1  0  0  0  0
 31162  1  0  0  0  0
 33163  1  0  0  0  0
 37164  1  0  0  0  0
 41165  1  0  0  0  0
 45166  1  0  0  0  0
 46167  1  0  0  0  0
 49168  1  0  0  0  0
 49169  1  0  0  0  0
 50170  1  0  0  0  0
 50171  1  0  0  0  0
 50172  1  0  0  0  0
 53173  1  0  0  0  0
 58174  1  0  0  0  0
 59175  1  0  0  0  0
 62176  1  0  0  0  0
 62177  1  0  0  0  0
 63178  1  0  0  0  0
 63179  1  0  0  0  0
 63180  1  0  0  0  0
 65181  1  0  0  0  0
 69182  1  0  0  0  0
 74183  1  0  0  0  0
 77184  1  0  0  0  0
 78185  1  0  0  0  0
 80186  1  0  0  0  0
 84187  1  0  0  0  0
 85188  1  0  0  0  0
 88189  1  0  0  0  0
 88190  1  0  0  0  0
 89191  1  0  0  0  0
 89192  1  0  0  0  0
 89193  1  0  0  0  0
 92194  1  0  0  0  0
 97195  1  0  0  0  0
 98196  1  0  0  0  0
101197  1  0  0  0  0
101198  1  0  0  0  0
102199  1  0  0  0  0
102200  1  0  0  0  0
102201  1  0  0  0  0
104202  1  0  0  0  0
108203  1  0  0  0  0
112204  1  0  0  0  0
116205  1  0  0  0  0
117206  1  0  0  0  0
120207  1  0  0  0  0
120208  1  0  0  0  0
121209  1  0  0  0  0
121210  1  0  0  0  0
121211  1  0  0  0  0
124212  1  0  0  0  0
129213  1  0  0  0  0
130214  1  0  0  0  0
133215  1  0  0  0  0
133216  1  0  0  0  0
134217  1  0  0  0  0
134218  1  0  0  0  0
134219  1  0  0  0  0
136220  1  0  0  0  0
140221  1  0  0  0  0
141222  1  0  0  0  0
M  END
