262

C          0.15870        8.29380        4.36900
C          1.31790        7.67880        4.67740
C          1.16290        6.27720        4.89680
C          2.15620        5.32810        5.17460
C          3.56550        5.70870        5.33510
C          4.55920        5.07580        4.59610
C          5.88850        5.42320        4.73830
C          6.27180        6.42130        5.62640
S          7.92490        6.95630        5.92240
C          8.88670        6.22180        4.55520
C          8.59450        6.88410        3.22170
C          5.26470        7.03950        6.37000
F          5.60160        8.00250        7.25240
C          3.93630        6.70350        6.23710
C          1.74550        4.00720        5.27380
C          0.39680        3.60480        5.12080
C         -0.59380        4.55020        4.81990
C         -1.98100        4.15130        4.54930
C         -2.25400        3.16010        3.60770
C         -3.55650        2.81880        3.30730
C         -4.61870        3.45890        3.92820
S         -6.28930        3.07430        3.44820
C         -6.27610        3.92800        1.82460
C         -6.15480        5.43020        1.97550
C         -4.34030        4.42490        4.88620
C         -3.04060        4.77820        5.19640
F         -5.34400        5.05260        5.52220
C         -0.18310        5.87140        4.72770
S         -1.20120        7.22580        4.31850
C          0.23980        2.20620        5.30090
C          1.41400        1.55820        5.52970
S          2.78230        2.64170        5.59990
C          1.59840        0.14180        5.59740
S          0.32250       -0.91140        6.22170
C          1.28530       -2.25010        5.77540
C          2.46520       -1.84530        5.19500
N          2.61850       -0.49290        5.13930
C          3.43550       -2.64340        4.49650
C          3.24020       -3.89830        4.05320
C          4.05460       -4.49270        3.03920
C          3.67190       -5.48600        2.18320
C          4.48400       -5.59160        1.02560
C          4.20980       -6.31220       -0.14820
C          3.00950       -7.14870       -0.29940
C          3.10980       -8.47510       -0.70790
C          1.97400       -9.23040       -0.92100
C          0.70820       -8.68300       -0.74960
S         -0.72710       -9.67970       -1.07090
C         -1.51650       -8.68670       -2.39460
C         -0.62760       -8.57610       -3.61660
C          0.62310       -7.36310       -0.32240
F         -0.58310       -6.78490       -0.11860
C          1.74820       -6.59620       -0.10160
C          5.01190       -6.04630       -1.24560
C          6.11690       -5.16370       -1.19530
C          6.44220       -4.49980        0.00060
C          7.53340       -3.51640        0.00020
C          8.81690       -3.88110       -0.40540
C          9.82620       -2.94730       -0.45840
C          9.60340       -1.60460       -0.13850
S         10.99160       -0.53770       -0.31670
C         10.61590        0.92600        0.72290
C         11.89830        1.70800        0.92860
C          8.31070       -1.25480        0.23850
C          7.29580       -2.18690        0.32510
F          7.97540        0.03110        0.51760
C          5.58090       -4.69220        1.06760
S          5.56780       -3.75390        2.53820
C          6.54210       -4.77130       -2.48860
C          5.73710       -5.23390       -3.49200
S          4.58870       -6.43180       -2.89960
C          5.43580       -4.49790       -4.68440
C          5.74400       -3.17200       -4.81930
C          4.80590       -2.44850       -5.59100
C          4.62800       -1.05690       -5.51660
C          5.60210       -0.23770       -4.77580
C          5.23680        0.36910       -3.57830
C          6.15370        1.07750       -2.82670
C          7.46660        1.22430       -3.25930
S          8.72450        2.10320       -2.39910
C          7.80900        3.10590       -1.17510
C          6.97440        4.19530       -1.82100
C          7.82060        0.60300       -4.45890
F          9.08870        0.70970       -4.90140
C          6.92090       -0.12510       -5.20650
C          3.40270       -0.57750       -5.93870
C          2.42070       -1.39840       -6.54650
C          2.64150       -2.78070       -6.70800
C          1.57520       -3.60830       -7.28610
C          1.00540       -3.24890       -8.50580
C         -0.05000       -3.95960       -9.04140
C         -0.59260       -5.04640       -8.36360
S         -1.95750       -6.00940       -8.92140
C         -2.81260       -4.90860      -10.10260
C         -3.40950       -3.68960       -9.42720
C          0.00360       -5.40880       -7.15500
C          1.06570       -4.71830       -6.61610
F         -0.49310       -6.45890       -6.46840
C          3.80570       -3.28520       -6.14730
S          4.12690       -4.96380       -5.75830
C          1.16040       -0.74500       -6.61130
C          1.15210        0.48170       -6.01570
S          2.76410        1.00280       -5.55250
C          0.01490        1.09370       -5.39720
C          0.04690        1.65640       -4.15550
C         -1.21430        1.67970       -3.51250
C         -1.46370        1.93420       -2.15770
C         -0.40940        2.22090       -1.17570
C          0.69140        1.37830       -1.05400
C          1.62090        1.55510       -0.04740
C          1.48300        2.58640        0.87400
S          2.54770        2.90260        2.23550
C          3.73510        1.51380        2.24490
C          4.89470        1.74730        1.29510
C          0.38680        3.43950        0.72520
F          0.23340        4.45880        1.59630
C         -0.55230        3.26740       -0.26580
C         -2.75800        1.70690       -1.72040
C         -3.81970        1.30490       -2.56370
C         -3.57250        1.08100       -3.93070
C         -4.65330        0.65960       -4.83010
C         -5.84810        1.37800       -4.87500
C         -6.86340        1.00020       -5.72610
C         -6.73380       -0.10340       -6.56920
S         -8.08670       -0.44260       -7.65510
C         -8.16120       -2.26980       -7.75190
C         -8.33890       -2.90640       -6.38840
C         -5.53110       -0.80070       -6.52320
C         -4.51130       -0.44300       -5.66490
F         -5.31350       -1.86880       -7.32430
C         -2.25730        1.21890       -4.35550
S         -1.62190        0.73970       -5.91500
C         -4.98140        0.95630       -1.81460
C         -4.79430        1.02010       -0.47040
S         -3.21310        1.65270       -0.04420
C         -5.59090        0.51710        0.61600
C         -5.07970       -0.22250        1.63720
C         -6.04910       -0.62900        2.58830
C         -5.85860       -1.45600        3.70530
C         -4.60580       -2.20120        3.88610
C         -4.09640       -2.93840        2.81810
C         -2.96070       -3.71180        2.95260
C         -2.29380       -3.78020        4.17010
S         -0.85710       -4.76010        4.45660
C         -0.89320       -5.97520        3.08480
C         -0.01470       -7.15770        3.44600
C         -2.79790       -3.01980        5.22620
F         -2.15890       -3.05050        6.41310
C         -3.93180       -2.24580        5.10420
C         -6.95140       -1.61200        4.54600
C         -8.21600       -1.03150        4.28080
C         -8.42160       -0.27440        3.11950
C         -9.73210        0.29630        2.78390
C        -10.86800       -0.50120        2.69880
C        -12.09350        0.03810        2.35570
C        -12.22210        1.39510        2.08300
S        -13.72140        2.21500        1.65280
C        -14.85810        0.86070        1.19620
C        -14.46760        0.19710       -0.11070
C        -11.07480        2.18460        2.18800
C         -9.84870        1.66040        2.52790
F        -11.16830        3.50700        1.94610
C         -7.32170       -0.08680        2.29780
S         -7.31390        0.77260        0.77540
C         -9.16020       -1.34120        5.30500
C         -8.64890       -2.13210        6.26890
S         -6.99040       -2.55580        6.01210
H         -0.00040        9.33370        4.15980
H          2.26420        8.18500        4.73530
H          4.28260        4.31500        3.88340
H          6.62710        4.90180        4.15150
H          8.70560        5.14780        4.53800
H          9.92110        6.39350        4.85300
H          8.81270        7.94780        3.27750
H          9.21470        6.44230        2.44370
H          7.54920        6.76390        2.94520
H          3.20230        7.20320        6.84980
H         -1.44120        2.67650        3.08830
H         -3.76470        2.05370        2.57500
H         -7.22270        3.65600        1.35930
H         -5.45450        3.51230        1.24030
H         -6.23610        5.90580        1.00000
H         -6.94680        5.81060        2.61640
H         -5.19440        5.69980        2.41240
H         -2.86800        5.53830        5.94210
H         -0.70640        1.69800        5.24210
H          0.93160       -3.24470        5.95180
H          4.31780       -2.09750        4.18900
H          2.34780       -4.44540        4.32620
H          2.78620       -6.07660        2.33220
H          4.08450       -8.91200       -0.86250
H          2.05030      -10.25760       -1.24100
H         -1.77370       -7.71160       -1.98540
H         -2.43300       -9.23150       -2.61820
H          0.29680       -8.05160       -3.37910
H         -0.37450       -9.56430       -3.99370
H         -1.14080       -8.02650       -4.40240
H          1.63570       -5.56540        0.19810
H          9.02030       -4.90920       -0.66370
H         10.82120       -3.23550       -0.75990
H          9.87170        1.52640        0.20420
H         10.21540        0.56420        1.66890
H         11.70300        2.58040        1.54870
H         12.64830        1.09180        1.41900
H         12.29590        2.04020       -0.02760
H          6.31080       -1.85390        0.61280
H          7.32250       -4.04900       -2.64390
H          6.51050       -2.68330       -4.24660
H          4.22610        0.26270       -3.21450
H          5.84120        1.50450       -1.88820
H          7.22030        2.43760       -0.54840
H          8.60040        3.54360       -0.56580
H          6.47040        4.77860       -1.05250
H          6.22260        3.77570       -2.48600
H          7.60980        4.86020       -2.40130
H          7.24820       -0.58950       -6.12360
H          1.40380       -2.40410       -9.04780
H         -0.45160       -3.65810       -9.99520
H         -2.12100       -4.64630      -10.90240
H         -3.59400       -5.54550      -10.51710
H         -4.09960       -3.98910       -8.64270
H         -2.63620       -3.06840       -8.98070
H         -3.95310       -3.09140      -10.15550
H          1.45970       -5.03040       -5.66250
H          0.26110       -1.22970       -6.94760
H          0.96020        1.96060       -3.67720
H          0.80310        0.54670       -1.73370
H          2.44690        0.86620        0.02280
H          4.07820        1.47010        3.27880
H          3.18830        0.59700        2.03100
H          4.54610        1.83560        0.26760
H          5.60170        0.92280        1.35880
H          5.41300        2.66710        1.55820
H         -1.38520        3.95020       -0.32520
H         -5.97190        2.24560       -4.24500
H         -7.78510        1.56000       -5.75860
H         -7.27280       -2.63560       -8.26180
H         -9.03130       -2.44680       -8.38430
H         -8.46530       -3.98130       -6.50050
H         -7.46930       -2.72760       -5.75890
H         -9.21630       -2.50070       -5.88910
H         -3.61420       -1.04150       -5.65580
H         -5.88670        0.58450       -2.26020
H         -4.03680       -0.47810        1.70830
H         -4.61400       -2.92730        1.87060
H         -2.59970       -4.26720        2.10190
H         -1.92680       -6.29140        2.95230
H         -0.53590       -5.48010        2.18220
H         -0.01160       -7.87630        2.62880
H         -0.38820       -7.64970        4.34100
H          1.00830       -6.83850        3.63540
H         -4.27530       -1.68070        5.95580
H        -10.79000       -1.56180        2.88700
H        -12.95150       -0.61260        2.30690
H        -14.91370        0.15440        2.02360
H        -15.82240        1.36020        1.10380
H        -15.18850       -0.57830       -0.36280
H        -13.48020       -0.25460       -0.04070
H        -14.45130        0.93150       -0.91250
H         -8.99640        2.31460        2.62140
H        -10.16800       -0.96740        5.30790
H         -9.14020       -2.50600        7.14600
