
  xtb     03012211103D
 energy: -375.764342117330 gnorm: 0.000681855303 xtb: 6.4.1 (unknown)
190211  0     0  0            999 V2000
   12.7844    0.6498    8.8835 C   0  0  0  0  0  0  0  0  0  0  0  0
   12.1577    1.0807    7.7703 C   0  0  0  0  0  0  0  0  0  0  0  0
   10.8524    0.5267    7.6193 C   0  0  0  0  0  0  0  0  0  0  0  0
    9.9108    0.7828    6.6096 C   0  0  0  0  0  0  0  0  0  0  0  0
   10.1950    1.6908    5.5093 C   0  0  0  0  0  0  0  0  0  0  0  0
   11.5796    1.4690    4.4810 S   0  0  0  0  0  0  0  0  0  0  0  0
   11.1711    2.8359    3.5020 C   0  0  0  0  0  0  0  0  0  0  0  0
   11.9823    3.2065    2.3099 C   0  0  0  0  0  0  0  0  0  0  0  0
   11.4671    2.4925    1.0578 C   0  0  0  0  0  0  0  0  0  0  0  0
   10.0240    3.4158    3.9548 C   0  0  0  0  0  0  0  0  0  0  0  0
    9.3083    4.8015    3.2401 Cl  0  0  0  0  0  0  0  0  0  0  0  0
    9.4681    2.7710    5.0926 C   0  0  0  0  0  0  0  0  0  0  0  0
    8.0711    3.3585    5.8924 Cl  0  0  0  0  0  0  0  0  0  0  0  0
    8.6915    0.1221    6.7002 C   0  0  0  0  0  0  0  0  0  0  0  0
    8.3805   -0.7609    7.7625 C   0  0  0  0  0  0  0  0  0  0  0  0
    9.3020   -0.9791    8.8004 C   0  0  0  0  0  0  0  0  0  0  0  0
    8.9521   -1.8320    9.9228 C   0  0  0  0  0  0  0  0  0  0  0  0
    9.9769   -3.1394   10.4352 S   0  0  0  0  0  0  0  0  0  0  0  0
    8.8722   -3.6252   11.6744 C   0  0  0  0  0  0  0  0  0  0  0  0
    9.1292   -4.8213   12.5229 C   0  0  0  0  0  0  0  0  0  0  0  0
    8.4930   -6.0714   11.9095 C   0  0  0  0  0  0  0  0  0  0  0  0
    7.7777   -2.8126   11.6774 C   0  0  0  0  0  0  0  0  0  0  0  0
    7.8206   -1.7913   10.6929 C   0  0  0  0  0  0  0  0  0  0  0  0
    6.5974   -0.5910   10.5643 Cl  0  0  0  0  0  0  0  0  0  0  0  0
    6.4616   -2.9878   12.7643 Cl  0  0  0  0  0  0  0  0  0  0  0  0
   10.5316   -0.3431    8.6892 C   0  0  0  0  0  0  0  0  0  0  0  0
   11.8413   -0.4483    9.8311 S   0  0  0  0  0  0  0  0  0  0  0  0
    7.1132   -1.3647    7.5918 C   0  0  0  0  0  0  0  0  0  0  0  0
    6.4567   -0.9473    6.4714 C   0  0  0  0  0  0  0  0  0  0  0  0
    7.3949    0.1954    5.5398 S   0  0  0  0  0  0  0  0  0  0  0  0
    5.1404   -1.3586    6.0960 C   0  0  0  0  0  0  0  0  0  0  0  0
    4.2313   -1.9265    6.9402 C   0  0  0  0  0  0  0  0  0  0  0  0
    3.0205   -2.2892    6.3083 C   0  0  0  0  0  0  0  0  0  0  0  0
    1.9142   -2.9357    6.8873 C   0  0  0  0  0  0  0  0  0  0  0  0
    1.9007   -3.2880    8.2974 C   0  0  0  0  0  0  0  0  0  0  0  0
    3.2166   -4.1655    9.0255 S   0  0  0  0  0  0  0  0  0  0  0  0
    2.4650   -4.1676   10.5850 C   0  0  0  0  0  0  0  0  0  0  0  0
    3.1195   -4.8237   11.7496 C   0  0  0  0  0  0  0  0  0  0  0  0
    3.1292   -6.3458   11.6008 C   0  0  0  0  0  0  0  0  0  0  0  0
    1.2620   -3.5309   10.5264 C   0  0  0  0  0  0  0  0  0  0  0  0
    0.2173   -3.3252   11.8722 Cl  0  0  0  0  0  0  0  0  0  0  0  0
    0.9397   -3.0296    9.2354 C   0  0  0  0  0  0  0  0  0  0  0  0
   -0.4771   -2.1122    8.9414 Cl  0  0  0  0  0  0  0  0  0  0  0  0
    0.8618   -3.2478    6.0366 C   0  0  0  0  0  0  0  0  0  0  0  0
    0.8638   -2.9137    4.6579 C   0  0  0  0  0  0  0  0  0  0  0  0
    1.9383   -2.1976    4.0955 C   0  0  0  0  0  0  0  0  0  0  0  0
    1.9260   -1.7674    2.7071 C   0  0  0  0  0  0  0  0  0  0  0  0
    1.5338   -2.8522    1.4019 S   0  0  0  0  0  0  0  0  0  0  0  0
    1.7540   -1.6260    0.2006 C   0  0  0  0  0  0  0  0  0  0  0  0
    1.5783   -1.8956   -1.2551 C   0  0  0  0  0  0  0  0  0  0  0  0
    0.6539   -3.0737   -1.5352 C   0  0  0  0  0  0  0  0  0  0  0  0
    2.1175   -0.4516    0.7917 C   0  0  0  0  0  0  0  0  0  0  0  0
    2.2073   -0.5236    2.2073 C   0  0  0  0  0  0  0  0  0  0  0  0
    2.5272    0.8627    3.1620 Cl  0  0  0  0  0  0  0  0  0  0  0  0
    2.4569    0.9891   -0.0757 Cl  0  0  0  0  0  0  0  0  0  0  0  0
    3.0113   -1.9264    4.9374 C   0  0  0  0  0  0  0  0  0  0  0  0
    4.5210   -1.1930    4.4724 S   0  0  0  0  0  0  0  0  0  0  0  0
   -0.2951   -3.3932    4.0068 C   0  0  0  0  0  0  0  0  0  0  0  0
   -1.1390   -4.0766    4.8335 C   0  0  0  0  0  0  0  0  0  0  0  0
   -0.5654   -4.1431    6.4767 S   0  0  0  0  0  0  0  0  0  0  0  0
   -2.3528   -4.6830    4.3910 C   0  0  0  0  0  0  0  0  0  0  0  0
   -3.6943   -5.1330    5.4456 S   0  0  0  0  0  0  0  0  0  0  0  0
   -4.5657   -5.5974    4.0443 C   0  0  0  0  0  0  0  0  0  0  0  0
   -3.8143   -5.4143    2.9075 C   0  0  0  0  0  0  0  0  0  0  0  0
   -2.5813   -4.9007    3.1427 N   0  0  0  0  0  0  0  0  0  0  0  0
   -4.1925   -5.6883    1.5441 C   0  0  0  0  0  0  0  0  0  0  0  0
   -3.2512   -5.8144    0.5943 C   0  0  0  0  0  0  0  0  0  0  0  0
   -3.4896   -5.9855   -0.7999 C   0  0  0  0  0  0  0  0  0  0  0  0
   -5.0568   -5.6319   -1.5428 S   0  0  0  0  0  0  0  0  0  0  0  0
   -4.3633   -6.0141   -3.0579 C   0  0  0  0  0  0  0  0  0  0  0  0
   -3.0471   -6.3809   -2.9230 C   0  0  0  0  0  0  0  0  0  0  0  0
   -2.5910   -6.3537   -1.6505 N   0  0  0  0  0  0  0  0  0  0  0  0
   -2.1973   -6.8421   -4.0128 C   0  0  0  0  0  0  0  0  0  0  0  0
   -2.1164   -6.2466   -5.2053 C   0  0  0  0  0  0  0  0  0  0  0  0
   -2.7009   -4.9540   -5.4903 C   0  0  0  0  0  0  0  0  0  0  0  0
   -2.6521   -3.8466   -4.7046 C   0  0  0  0  0  0  0  0  0  0  0  0
   -3.2993   -2.7173   -5.2688 C   0  0  0  0  0  0  0  0  0  0  0  0
   -3.4250   -1.4280   -4.7261 C   0  0  0  0  0  0  0  0  0  0  0  0
   -2.8534   -1.0786   -3.4348 C   0  0  0  0  0  0  0  0  0  0  0  0
   -3.2314   -1.9732   -1.9906 S   0  0  0  0  0  0  0  0  0  0  0  0
   -2.2799   -0.9230   -0.9968 C   0  0  0  0  0  0  0  0  0  0  0  0
   -2.1663   -1.0945    0.4800 C   0  0  0  0  0  0  0  0  0  0  0  0
   -2.7274   -2.4240    0.9599 C   0  0  0  0  0  0  0  0  0  0  0  0
   -1.7021    0.0500   -1.7571 C   0  0  0  0  0  0  0  0  0  0  0  0
   -0.6906    1.2761   -1.1087 Cl  0  0  0  0  0  0  0  0  0  0  0  0
   -2.0204   -0.0355   -3.1373 C   0  0  0  0  0  0  0  0  0  0  0  0
   -1.3393    1.0243   -4.2990 Cl  0  0  0  0  0  0  0  0  0  0  0  0
   -4.1261   -0.4949   -5.4801 C   0  0  0  0  0  0  0  0  0  0  0  0
   -4.6944   -0.7937   -6.7434 C   0  0  0  0  0  0  0  0  0  0  0  0
   -4.5683   -2.0842   -7.2843 C   0  0  0  0  0  0  0  0  0  0  0  0
   -5.1909   -2.4323   -8.5503 C   0  0  0  0  0  0  0  0  0  0  0  0
   -4.2866   -3.1729   -9.8369 S   0  0  0  0  0  0  0  0  0  0  0  0
   -5.6712   -3.2491  -10.8711 C   0  0  0  0  0  0  0  0  0  0  0  0
   -5.5699   -3.7707  -12.2618 C   0  0  0  0  0  0  0  0  0  0  0  0
   -5.1767   -2.6574  -13.2358 C   0  0  0  0  0  0  0  0  0  0  0  0
   -6.7615   -2.7240  -10.2437 C   0  0  0  0  0  0  0  0  0  0  0  0
   -6.4956   -2.2647   -8.9261 C   0  0  0  0  0  0  0  0  0  0  0  0
   -7.7267   -1.6444   -7.9022 Cl  0  0  0  0  0  0  0  0  0  0  0  0
   -8.3201   -2.6266  -10.9551 Cl  0  0  0  0  0  0  0  0  0  0  0  0
   -3.8492   -3.0095   -6.5399 C   0  0  0  0  0  0  0  0  0  0  0  0
   -3.5405   -4.6608   -6.9981 S   0  0  0  0  0  0  0  0  0  0  0  0
   -5.3409    0.3316   -7.3110 C   0  0  0  0  0  0  0  0  0  0  0  0
   -5.3186    1.4327   -6.5089 C   0  0  0  0  0  0  0  0  0  0  0  0
   -4.4660    1.1447   -5.0070 S   0  0  0  0  0  0  0  0  0  0  0  0
   -5.8920    2.7116   -6.7700 C   0  0  0  0  0  0  0  0  0  0  0  0
   -5.7810    3.8415   -6.0168 C   0  0  0  0  0  0  0  0  0  0  0  0
   -6.4793    4.9504   -6.5559 C   0  0  0  0  0  0  0  0  0  0  0  0
   -6.5453    6.2606   -6.0553 C   0  0  0  0  0  0  0  0  0  0  0  0
   -5.8335    6.6428   -4.8465 C   0  0  0  0  0  0  0  0  0  0  0  0
   -4.1241    6.3630   -4.6813 S   0  0  0  0  0  0  0  0  0  0  0  0
   -4.0793    7.0695   -3.1031 C   0  0  0  0  0  0  0  0  0  0  0  0
   -2.8013    7.2027   -2.3512 C   0  0  0  0  0  0  0  0  0  0  0  0
   -2.0883    8.5078   -2.7132 C   0  0  0  0  0  0  0  0  0  0  0  0
   -5.3216    7.4983   -2.7421 C   0  0  0  0  0  0  0  0  0  0  0  0
   -5.6734    8.2515   -1.2411 Cl  0  0  0  0  0  0  0  0  0  0  0  0
   -6.3188    7.2558   -3.7248 C   0  0  0  0  0  0  0  0  0  0  0  0
   -7.9718    7.6239   -3.4646 Cl  0  0  0  0  0  0  0  0  0  0  0  0
   -7.2977    7.1756   -6.7829 C   0  0  0  0  0  0  0  0  0  0  0  0
   -7.9958    6.8325   -7.9659 C   0  0  0  0  0  0  0  0  0  0  0  0
   -7.9468    5.5178   -8.4543 C   0  0  0  0  0  0  0  0  0  0  0  0
   -8.6597    5.1178   -9.6581 C   0  0  0  0  0  0  0  0  0  0  0  0
   -8.4200    5.9342  -11.1747 S   0  0  0  0  0  0  0  0  0  0  0  0
   -9.5254    4.8916  -12.0025 C   0  0  0  0  0  0  0  0  0  0  0  0
   -9.7733    5.0236  -13.4648 C   0  0  0  0  0  0  0  0  0  0  0  0
   -8.8148    4.1379  -14.2645 C   0  0  0  0  0  0  0  0  0  0  0  0
  -10.0363    3.9666  -11.1421 C   0  0  0  0  0  0  0  0  0  0  0  0
   -9.5509    4.0925   -9.8126 C   0  0  0  0  0  0  0  0  0  0  0  0
  -10.1084    3.0963   -8.5343 Cl  0  0  0  0  0  0  0  0  0  0  0  0
  -11.1698    2.7624  -11.5987 Cl  0  0  0  0  0  0  0  0  0  0  0  0
   -7.1747    4.6087   -7.7419 C   0  0  0  0  0  0  0  0  0  0  0  0
   -6.8906    2.9512   -8.1880 S   0  0  0  0  0  0  0  0  0  0  0  0
   -8.6842    7.9544   -8.5125 C   0  0  0  0  0  0  0  0  0  0  0  0
   -8.4891    9.0842   -7.8021 C   0  0  0  0  0  0  0  0  0  0  0  0
   -7.4766    8.8679   -6.4184 S   0  0  0  0  0  0  0  0  0  0  0  0
   13.7656    0.9099    9.2292 H   0  0  0  0  0  0  0  0  0  0  0  0
   12.5923    1.7715    7.0717 H   0  0  0  0  0  0  0  0  0  0  0  0
   11.9192    4.2868    2.1648 H   0  0  0  0  0  0  0  0  0  0  0  0
   13.0250    2.9352    2.4819 H   0  0  0  0  0  0  0  0  0  0  0  0
   11.5249    1.4142    1.1870 H   0  0  0  0  0  0  0  0  0  0  0  0
   12.0649    2.7739    0.1952 H   0  0  0  0  0  0  0  0  0  0  0  0
   10.4319    2.7646    0.8688 H   0  0  0  0  0  0  0  0  0  0  0  0
   10.2053   -4.9692   12.6220 H   0  0  0  0  0  0  0  0  0  0  0  0
    8.7058   -4.6483   13.5145 H   0  0  0  0  0  0  0  0  0  0  0  0
    7.4180   -5.9400   11.8163 H   0  0  0  0  0  0  0  0  0  0  0  0
    8.9074   -6.2600   10.9222 H   0  0  0  0  0  0  0  0  0  0  0  0
    8.6855   -6.9350   12.5402 H   0  0  0  0  0  0  0  0  0  0  0  0
    6.7180   -2.1106    8.2546 H   0  0  0  0  0  0  0  0  0  0  0  0
    4.4189   -2.0655    7.9875 H   0  0  0  0  0  0  0  0  0  0  0  0
    4.1471   -4.4637   11.8369 H   0  0  0  0  0  0  0  0  0  0  0  0
    2.5772   -4.5426   12.6536 H   0  0  0  0  0  0  0  0  0  0  0  0
    3.6721   -6.6340   10.7034 H   0  0  0  0  0  0  0  0  0  0  0  0
    3.6101   -6.8014   12.4622 H   0  0  0  0  0  0  0  0  0  0  0  0
    2.1128   -6.7250   11.5285 H   0  0  0  0  0  0  0  0  0  0  0  0
    1.1878   -0.9891   -1.7240 H   0  0  0  0  0  0  0  0  0  0  0  0
    2.5605   -2.0917   -1.6981 H   0  0  0  0  0  0  0  0  0  0  0  0
   -0.3339   -2.8926   -1.1204 H   0  0  0  0  0  0  0  0  0  0  0  0
    0.5559   -3.2230   -2.6075 H   0  0  0  0  0  0  0  0  0  0  0  0
    1.0505   -3.9849   -1.0935 H   0  0  0  0  0  0  0  0  0  0  0  0
   -0.5131   -3.2598    2.9650 H   0  0  0  0  0  0  0  0  0  0  0  0
   -5.5591   -5.9893    4.1262 H   0  0  0  0  0  0  0  0  0  0  0  0
   -5.2456   -5.7780    1.3191 H   0  0  0  0  0  0  0  0  0  0  0  0
   -2.2094   -5.7889    0.8821 H   0  0  0  0  0  0  0  0  0  0  0  0
   -4.9482   -5.9738   -3.9540 H   0  0  0  0  0  0  0  0  0  0  0  0
   -1.6375   -7.7440   -3.8105 H   0  0  0  0  0  0  0  0  0  0  0  0
   -1.5680   -6.7130   -6.0125 H   0  0  0  0  0  0  0  0  0  0  0  0
   -2.1510   -3.8329   -3.7539 H   0  0  0  0  0  0  0  0  0  0  0  0
   -2.6995   -0.2713    0.9670 H   0  0  0  0  0  0  0  0  0  0  0  0
   -1.1125   -1.0006    0.7606 H   0  0  0  0  0  0  0  0  0  0  0  0
   -2.6517   -2.5034    2.0403 H   0  0  0  0  0  0  0  0  0  0  0  0
   -3.7748   -2.5185    0.6816 H   0  0  0  0  0  0  0  0  0  0  0  0
   -2.1838   -3.2556    0.5191 H   0  0  0  0  0  0  0  0  0  0  0  0
   -4.8233   -4.5656  -12.2962 H   0  0  0  0  0  0  0  0  0  0  0  0
   -6.5375   -4.1844  -12.5522 H   0  0  0  0  0  0  0  0  0  0  0  0
   -5.9197   -1.8641  -13.2201 H   0  0  0  0  0  0  0  0  0  0  0  0
   -4.2129   -2.2371  -12.9587 H   0  0  0  0  0  0  0  0  0  0  0  0
   -5.1090   -3.0517  -14.2460 H   0  0  0  0  0  0  0  0  0  0  0  0
   -5.7963    0.3358   -8.2844 H   0  0  0  0  0  0  0  0  0  0  0  0
   -5.2132    3.8733   -5.1046 H   0  0  0  0  0  0  0  0  0  0  0  0
   -3.0209    7.1917   -1.2818 H   0  0  0  0  0  0  0  0  0  0  0  0
   -2.1534    6.3563   -2.5849 H   0  0  0  0  0  0  0  0  0  0  0  0
   -2.7181    9.3603   -2.4719 H   0  0  0  0  0  0  0  0  0  0  0  0
   -1.1590    8.5918   -2.1564 H   0  0  0  0  0  0  0  0  0  0  0  0
   -1.8623    8.5321   -3.7766 H   0  0  0  0  0  0  0  0  0  0  0  0
   -9.6420    6.0652  -13.7619 H   0  0  0  0  0  0  0  0  0  0  0  0
  -10.8027    4.7254  -13.6739 H   0  0  0  0  0  0  0  0  0  0  0  0
   -8.9444    3.0957  -13.9846 H   0  0  0  0  0  0  0  0  0  0  0  0
   -9.0119    4.2407  -15.3282 H   0  0  0  0  0  0  0  0  0  0  0  0
   -7.7840    4.4247  -14.0703 H   0  0  0  0  0  0  0  0  0  0  0  0
   -9.2917    7.9041   -9.3972 H   0  0  0  0  0  0  0  0  0  0  0  0
   -8.8870   10.0609   -7.9969 H   0  0  0  0  0  0  0  0  0  0  0  0
  1  2  2  0  0  0  0
  2  3  1  0  0  0  0
  3  4  2  0  0  0  0
  4  5  1  0  0  0  0
  5  6  1  0  0  0  0
  6  7  1  0  0  0  0
  7  8  1  0  0  0  0
  8  9  1  0  0  0  0
  7 10  2  0  0  0  0
 10 11  1  0  0  0  0
 10 12  1  0  0  0  0
 12 13  1  0  0  0  0
  4 14  1  0  0  0  0
 14 15  2  0  0  0  0
 15 16  1  0  0  0  0
 16 17  1  0  0  0  0
 17 18  1  0  0  0  0
 18 19  1  0  0  0  0
 19 20  1  0  0  0  0
 20 21  1  0  0  0  0
 19 22  2  0  0  0  0
 22 23  1  0  0  0  0
 23 24  1  0  0  0  0
 22 25  1  0  0  0  0
 16 26  2  0  0  0  0
 26 27  1  0  0  0  0
 15 28  1  0  0  0  0
 28 29  2  0  0  0  0
 29 30  1  0  0  0  0
 29 31  1  0  0  0  0
 31 32  2  0  0  0  0
 32 33  1  0  0  0  0
 33 34  2  0  0  0  0
 34 35  1  0  0  0  0
 35 36  1  0  0  0  0
 36 37  1  0  0  0  0
 37 38  1  0  0  0  0
 38 39  1  0  0  0  0
 37 40  2  0  0  0  0
 40 41  1  0  0  0  0
 40 42  1  0  0  0  0
 42 43  1  0  0  0  0
 34 44  1  0  0  0  0
 44 45  2  0  0  0  0
 45 46  1  0  0  0  0
 46 47  1  0  0  0  0
 47 48  1  0  0  0  0
 48 49  1  0  0  0  0
 49 50  1  0  0  0  0
 50 51  1  0  0  0  0
 49 52  2  0  0  0  0
 52 53  1  0  0  0  0
 53 54  1  0  0  0  0
 52 55  1  0  0  0  0
 46 56  2  0  0  0  0
 56 57  1  0  0  0  0
 45 58  1  0  0  0  0
 58 59  2  0  0  0  0
 59 60  1  0  0  0  0
 59 61  1  0  0  0  0
 61 62  1  0  0  0  0
 62 63  1  0  0  0  0
 63 64  2  0  0  0  0
 64 65  1  0  0  0  0
 64 66  1  0  0  0  0
 66 67  2  0  0  0  0
 67 68  1  0  0  0  0
 68 69  1  0  0  0  0
 69 70  1  0  0  0  0
 70 71  2  0  0  0  0
 71 72  1  0  0  0  0
 71 73  1  0  0  0  0
 73 74  2  0  0  0  0
 74 75  1  0  0  0  0
 75 76  2  0  0  0  0
 76 77  1  0  0  0  0
 77 78  2  0  0  0  0
 78 79  1  0  0  0  0
 79 80  1  0  0  0  0
 80 81  1  0  0  0  0
 81 82  1  0  0  0  0
 82 83  1  0  0  0  0
 81 84  2  0  0  0  0
 84 85  1  0  0  0  0
 84 86  1  0  0  0  0
 86 87  1  0  0  0  0
 78 88  1  0  0  0  0
 88 89  2  0  0  0  0
 89 90  1  0  0  0  0
 90 91  1  0  0  0  0
 91 92  1  0  0  0  0
 92 93  1  0  0  0  0
 93 94  1  0  0  0  0
 94 95  1  0  0  0  0
 93 96  2  0  0  0  0
 96 97  1  0  0  0  0
 97 98  1  0  0  0  0
 96 99  1  0  0  0  0
 90100  2  0  0  0  0
100101  1  0  0  0  0
 89102  1  0  0  0  0
102103  2  0  0  0  0
103104  1  0  0  0  0
103105  1  0  0  0  0
105106  2  0  0  0  0
106107  1  0  0  0  0
107108  2  0  0  0  0
108109  1  0  0  0  0
109110  1  0  0  0  0
110111  1  0  0  0  0
111112  1  0  0  0  0
112113  1  0  0  0  0
111114  2  0  0  0  0
114115  1  0  0  0  0
114116  1  0  0  0  0
116117  1  0  0  0  0
108118  1  0  0  0  0
118119  2  0  0  0  0
119120  1  0  0  0  0
120121  1  0  0  0  0
121122  1  0  0  0  0
122123  1  0  0  0  0
123124  1  0  0  0  0
124125  1  0  0  0  0
123126  2  0  0  0  0
126127  1  0  0  0  0
127128  1  0  0  0  0
126129  1  0  0  0  0
120130  2  0  0  0  0
130131  1  0  0  0  0
119132  1  0  0  0  0
132133  2  0  0  0  0
133134  1  0  0  0  0
 27  1  1  0  0  0  0
 57 31  1  0  0  0  0
 65 61  2  0  0  0  0
 72 68  2  0  0  0  0
101 75  1  0  0  0  0
131105  1  0  0  0  0
 26  3  1  0  0  0  0
 56 33  1  0  0  0  0
100 77  1  0  0  0  0
130107  1  0  0  0  0
 12  5  2  0  0  0  0
 30 14  1  0  0  0  0
 42 35  2  0  0  0  0
 60 44  1  0  0  0  0
 86 79  2  0  0  0  0
104 88  1  0  0  0  0
116109  2  0  0  0  0
134118  1  0  0  0  0
 23 17  2  0  0  0  0
 53 47  2  0  0  0  0
 97 91  2  0  0  0  0
127121  2  0  0  0  0
  1135  1  0  0  0  0
  2136  1  0  0  0  0
  8137  1  0  0  0  0
  8138  1  0  0  0  0
  9139  1  0  0  0  0
  9140  1  0  0  0  0
  9141  1  0  0  0  0
 20142  1  0  0  0  0
 20143  1  0  0  0  0
 21144  1  0  0  0  0
 21145  1  0  0  0  0
 21146  1  0  0  0  0
 28147  1  0  0  0  0
 32148  1  0  0  0  0
 38149  1  0  0  0  0
 38150  1  0  0  0  0
 39151  1  0  0  0  0
 39152  1  0  0  0  0
 39153  1  0  0  0  0
 50154  1  0  0  0  0
 50155  1  0  0  0  0
 51156  1  0  0  0  0
 51157  1  0  0  0  0
 51158  1  0  0  0  0
 58159  1  0  0  0  0
 63160  1  0  0  0  0
 66161  1  0  0  0  0
 67162  1  0  0  0  0
 70163  1  0  0  0  0
 73164  1  0  0  0  0
 74165  1  0  0  0  0
 76166  1  0  0  0  0
 82167  1  0  0  0  0
 82168  1  0  0  0  0
 83169  1  0  0  0  0
 83170  1  0  0  0  0
 83171  1  0  0  0  0
 94172  1  0  0  0  0
 94173  1  0  0  0  0
 95174  1  0  0  0  0
 95175  1  0  0  0  0
 95176  1  0  0  0  0
102177  1  0  0  0  0
106178  1  0  0  0  0
112179  1  0  0  0  0
112180  1  0  0  0  0
113181  1  0  0  0  0
113182  1  0  0  0  0
113183  1  0  0  0  0
124184  1  0  0  0  0
124185  1  0  0  0  0
125186  1  0  0  0  0
125187  1  0  0  0  0
125188  1  0  0  0  0
132189  1  0  0  0  0
133190  1  0  0  0  0
M  END
