
  xtb     03072214133D
 energy: -289.289963393562 gnorm: 0.000394453881 xtb: 6.4.1 (unknown)
158171  0     0  0            999 V2000
    4.0790    0.8898    4.9724 C   0  0  0  0  0  0  0  0  0  0  0  0
    4.9313    1.1430    3.9537 C   0  0  0  0  0  0  0  0  0  0  0  0
    5.7005    2.6783    4.1154 S   0  0  0  0  0  0  0  0  0  0  0  0
    4.8798    2.9807    5.5768 C   0  0  0  0  0  0  0  0  0  0  0  0
    4.0443    1.9496    5.9225 C   0  0  0  0  0  0  0  0  0  0  0  0
    3.2566    1.9800    7.1534 C   0  0  0  0  0  0  0  0  0  0  0  0
    3.3278    2.8311    8.0048 O   0  0  0  0  0  0  0  0  0  0  0  0
    2.4109    0.9166    7.2396 O   0  0  0  0  0  0  0  0  0  0  0  0
    1.6709    0.7837    8.3760 C   0  0  0  0  0  0  0  0  0  0  0  0
    0.6955   -0.1251    8.4842 C   0  0  0  0  0  0  0  0  0  0  0  0
    0.2753   -1.0245    7.4518 C   0  0  0  0  0  0  0  0  0  0  0  0
   -0.7496   -1.9213    7.5287 C   0  0  0  0  0  0  0  0  0  0  0  0
   -0.9621   -2.6506    6.3305 C   0  0  0  0  0  0  0  0  0  0  0  0
   -1.9347   -3.6245    6.0570 C   0  0  0  0  0  0  0  0  0  0  0  0
   -2.9636   -3.9791    7.0423 C   0  0  0  0  0  0  0  0  0  0  0  0
   -3.7386   -2.9901    7.6471 C   0  0  0  0  0  0  0  0  0  0  0  0
   -4.7288   -3.3255    8.5446 C   0  0  0  0  0  0  0  0  0  0  0  0
   -4.9764   -4.6531    8.8893 C   0  0  0  0  0  0  0  0  0  0  0  0
   -6.2440   -4.9560   10.0852 S   0  0  0  0  0  0  0  0  0  0  0  0
   -7.0857   -6.4609    9.4693 C   0  0  0  0  0  0  0  0  0  0  0  0
   -7.6203   -6.2777    8.0633 C   0  0  0  0  0  0  0  0  0  0  0  0
   -4.1738   -5.6263    8.3022 C   0  0  0  0  0  0  0  0  0  0  0  0
   -4.3205   -6.9306    8.6225 F   0  0  0  0  0  0  0  0  0  0  0  0
   -3.1971   -5.3072    7.3805 C   0  0  0  0  0  0  0  0  0  0  0  0
   -1.8950   -4.2073    4.7992 C   0  0  0  0  0  0  0  0  0  0  0  0
   -0.9686   -3.8405    3.7900 C   0  0  0  0  0  0  0  0  0  0  0  0
   -0.0119   -2.8558    4.0603 C   0  0  0  0  0  0  0  0  0  0  0  0
    0.9669   -2.3322    3.0909 C   0  0  0  0  0  0  0  0  0  0  0  0
    0.5660   -1.5764    1.9956 C   0  0  0  0  0  0  0  0  0  0  0  0
    1.4894   -0.8909    1.2291 C   0  0  0  0  0  0  0  0  0  0  0  0
    2.8450   -0.9521    1.5273 C   0  0  0  0  0  0  0  0  0  0  0  0
    4.1067   -0.0644    0.6647 S   0  0  0  0  0  0  0  0  0  0  0  0
    3.2343    1.4097    0.0366 C   0  0  0  0  0  0  0  0  0  0  0  0
    2.7475    2.3069    1.1572 C   0  0  0  0  0  0  0  0  0  0  0  0
    3.2366   -1.7857    2.5728 C   0  0  0  0  0  0  0  0  0  0  0  0
    2.3270   -2.4573    3.3574 C   0  0  0  0  0  0  0  0  0  0  0  0
    4.5525   -1.9188    2.8514 F   0  0  0  0  0  0  0  0  0  0  0  0
   -0.0242   -2.2982    5.3311 C   0  0  0  0  0  0  0  0  0  0  0  0
    1.0556   -1.0457    5.8857 S   0  0  0  0  0  0  0  0  0  0  0  0
   -1.1629   -4.5841    2.5907 C   0  0  0  0  0  0  0  0  0  0  0  0
   -2.1858   -5.4728    2.6707 C   0  0  0  0  0  0  0  0  0  0  0  0
   -2.9950   -5.4293    4.2242 S   0  0  0  0  0  0  0  0  0  0  0  0
   -2.6956   -6.3992    1.6778 C   0  0  0  0  0  0  0  0  0  0  0  0
   -4.0300   -6.5560    1.4335 C   0  0  0  0  0  0  0  0  0  0  0  0
   -4.3515   -7.6782    0.1758 S   0  0  0  0  0  0  0  0  0  0  0  0
   -2.6827   -7.9603   -0.0429 C   0  0  0  0  0  0  0  0  0  0  0  0
   -1.9097   -7.2378    0.8222 C   0  0  0  0  0  0  0  0  0  0  0  0
   -0.4416   -7.3507    0.8167 C   0  0  0  0  0  0  0  0  0  0  0  0
    0.2013   -7.6417   -0.1593 O   0  0  0  0  0  0  0  0  0  0  0  0
    0.0794   -7.1326    2.0450 O   0  0  0  0  0  0  0  0  0  0  0  0
    1.3958   -6.7721    2.2074 C   0  0  0  0  0  0  0  0  0  0  0  0
    2.0805   -6.0805    1.3018 C   0  0  0  0  0  0  0  0  0  0  0  0
    3.4132   -5.5415    1.4369 C   0  0  0  0  0  0  0  0  0  0  0  0
    4.4397   -6.0300    2.1904 C   0  0  0  0  0  0  0  0  0  0  0  0
    5.8876   -5.1210    2.0026 S   0  0  0  0  0  0  0  0  0  0  0  0
    5.1380   -4.0645    0.8953 C   0  0  0  0  0  0  0  0  0  0  0  0
    3.8254   -4.3876    0.6842 C   0  0  0  0  0  0  0  0  0  0  0  0
    2.9002   -3.6087   -0.1325 C   0  0  0  0  0  0  0  0  0  0  0  0
    1.6933   -3.6690   -0.0693 O   0  0  0  0  0  0  0  0  0  0  0  0
    3.5431   -2.7638   -0.9802 O   0  0  0  0  0  0  0  0  0  0  0  0
    2.7440   -1.9846   -1.7602 C   0  0  0  0  0  0  0  0  0  0  0  0
    3.1963   -0.9569   -2.4819 C   0  0  0  0  0  0  0  0  0  0  0  0
    2.2943   -0.1448   -3.2528 C   0  0  0  0  0  0  0  0  0  0  0  0
    1.0088   -0.4263   -3.6023 C   0  0  0  0  0  0  0  0  0  0  0  0
    0.3584    0.6239   -4.2970 C   0  0  0  0  0  0  0  0  0  0  0  0
   -0.9610    0.6317   -4.7767 C   0  0  0  0  0  0  0  0  0  0  0  0
   -1.7980   -0.5665   -4.6182 C   0  0  0  0  0  0  0  0  0  0  0  0
   -1.3694   -1.7962   -5.1150 C   0  0  0  0  0  0  0  0  0  0  0  0
   -2.0918   -2.9445   -4.8652 C   0  0  0  0  0  0  0  0  0  0  0  0
   -3.2569   -2.9050   -4.1072 C   0  0  0  0  0  0  0  0  0  0  0  0
   -4.0989   -4.4270   -3.7465 S   0  0  0  0  0  0  0  0  0  0  0  0
   -4.1322   -4.3634   -1.9160 C   0  0  0  0  0  0  0  0  0  0  0  0
   -2.7349   -4.3319   -1.3278 C   0  0  0  0  0  0  0  0  0  0  0  0
   -3.7076   -1.6631   -3.6728 C   0  0  0  0  0  0  0  0  0  0  0  0
   -4.8549   -1.5622   -2.9693 F   0  0  0  0  0  0  0  0  0  0  0  0
   -2.9954   -0.5048   -3.9148 C   0  0  0  0  0  0  0  0  0  0  0  0
   -1.4022    1.8069   -5.3594 C   0  0  0  0  0  0  0  0  0  0  0  0
   -0.5711    2.9446   -5.5041 C   0  0  0  0  0  0  0  0  0  0  0  0
    0.7654    2.9209   -5.0727 C   0  0  0  0  0  0  0  0  0  0  0  0
    1.6435    4.0735   -5.3046 C   0  0  0  0  0  0  0  0  0  0  0  0
    2.4322    4.6066   -4.2871 C   0  0  0  0  0  0  0  0  0  0  0  0
    3.2134    5.7195   -4.5147 C   0  0  0  0  0  0  0  0  0  0  0  0
    3.2567    6.3323   -5.7653 C   0  0  0  0  0  0  0  0  0  0  0  0
    4.3052    7.7454   -5.9411 S   0  0  0  0  0  0  0  0  0  0  0  0
    3.3661    8.8660   -7.0450 C   0  0  0  0  0  0  0  0  0  0  0  0
    1.9882    9.1835   -6.5002 C   0  0  0  0  0  0  0  0  0  0  0  0
    2.5044    5.7566   -6.7852 C   0  0  0  0  0  0  0  0  0  0  0  0
    1.6963    4.6604   -6.5670 C   0  0  0  0  0  0  0  0  0  0  0  0
    2.5397    6.2624   -8.0386 F   0  0  0  0  0  0  0  0  0  0  0  0
    1.1938    1.7570   -4.4513 C   0  0  0  0  0  0  0  0  0  0  0  0
    2.7803    1.4537   -3.7865 S   0  0  0  0  0  0  0  0  0  0  0  0
   -1.2657    4.0265   -6.1044 C   0  0  0  0  0  0  0  0  0  0  0  0
   -2.5356    3.7248   -6.4762 C   0  0  0  0  0  0  0  0  0  0  0  0
   -2.9844    2.0884   -6.0361 S   0  0  0  0  0  0  0  0  0  0  0  0
   -3.4815    4.5909   -7.1388 C   0  0  0  0  0  0  0  0  0  0  0  0
   -4.8332    4.5317   -6.9532 C   0  0  0  0  0  0  0  0  0  0  0  0
   -5.6783    5.7446   -7.8223 S   0  0  0  0  0  0  0  0  0  0  0  0
   -4.2139    6.3605   -8.4543 C   0  0  0  0  0  0  0  0  0  0  0  0
   -3.1223    5.6583   -8.0298 C   0  0  0  0  0  0  0  0  0  0  0  0
   -1.7666    5.9150   -8.5494 C   0  0  0  0  0  0  0  0  0  0  0  0
   -0.9188    5.0790   -8.7325 O   0  0  0  0  0  0  0  0  0  0  0  0
   -1.6006    7.2261   -8.8245 O   0  0  0  0  0  0  0  0  0  0  0  0
   -0.3853    7.6350   -9.3254 C   0  0  0  0  0  0  0  0  0  0  0  0
   -0.1456    8.9090   -9.5716 C   0  0  0  0  0  0  0  0  0  0  0  0
    3.4956   -0.0066    5.0669 H   0  0  0  0  0  0  0  0  0  0  0  0
    5.1722    0.5276    3.1107 H   0  0  0  0  0  0  0  0  0  0  0  0
    5.0368    3.8913    6.1196 H   0  0  0  0  0  0  0  0  0  0  0  0
    1.9265    1.4663    9.1764 H   0  0  0  0  0  0  0  0  0  0  0  0
    0.1584   -0.1883    9.4182 H   0  0  0  0  0  0  0  0  0  0  0  0
   -1.3330   -2.0649    8.4204 H   0  0  0  0  0  0  0  0  0  0  0  0
   -3.5825   -1.9554    7.3826 H   0  0  0  0  0  0  0  0  0  0  0  0
   -5.3380   -2.5592    8.9982 H   0  0  0  0  0  0  0  0  0  0  0  0
   -6.4021   -7.3040    9.5397 H   0  0  0  0  0  0  0  0  0  0  0  0
   -7.8969   -6.6008   10.1838 H   0  0  0  0  0  0  0  0  0  0  0  0
   -6.8074   -6.1358    7.3533 H   0  0  0  0  0  0  0  0  0  0  0  0
   -8.1828   -7.1613    7.7683 H   0  0  0  0  0  0  0  0  0  0  0  0
   -8.2774   -5.4118    8.0142 H   0  0  0  0  0  0  0  0  0  0  0  0
   -2.6039   -6.1035    6.9589 H   0  0  0  0  0  0  0  0  0  0  0  0
   -0.4843   -1.4965    1.7596 H   0  0  0  0  0  0  0  0  0  0  0  0
    1.1449   -0.2969    0.3971 H   0  0  0  0  0  0  0  0  0  0  0  0
    2.4249    1.0843   -0.6158 H   0  0  0  0  0  0  0  0  0  0  0  0
    3.9865    1.9126   -0.5710 H   0  0  0  0  0  0  0  0  0  0  0  0
    3.5855    2.6479    1.7606 H   0  0  0  0  0  0  0  0  0  0  0  0
    2.2429    3.1758    0.7393 H   0  0  0  0  0  0  0  0  0  0  0  0
    2.0503    1.7776    1.8042 H   0  0  0  0  0  0  0  0  0  0  0  0
    2.6810   -3.0624    4.1772 H   0  0  0  0  0  0  0  0  0  0  0  0
   -0.5536   -4.4394    1.7153 H   0  0  0  0  0  0  0  0  0  0  0  0
   -4.8411   -6.0526    1.9218 H   0  0  0  0  0  0  0  0  0  0  0  0
   -2.3374   -8.6607   -0.7771 H   0  0  0  0  0  0  0  0  0  0  0  0
    1.7535   -7.0346    3.1922 H   0  0  0  0  0  0  0  0  0  0  0  0
    1.5939   -5.8362    0.3695 H   0  0  0  0  0  0  0  0  0  0  0  0
    4.4349   -6.8921    2.8261 H   0  0  0  0  0  0  0  0  0  0  0  0
    5.6786   -3.2360    0.4829 H   0  0  0  0  0  0  0  0  0  0  0  0
    1.6940   -2.2488   -1.7205 H   0  0  0  0  0  0  0  0  0  0  0  0
    4.2409   -0.6871   -2.4640 H   0  0  0  0  0  0  0  0  0  0  0  0
    0.5246   -1.3582   -3.3776 H   0  0  0  0  0  0  0  0  0  0  0  0
   -0.4595   -1.8474   -5.6937 H   0  0  0  0  0  0  0  0  0  0  0  0
   -1.7515   -3.8991   -5.2352 H   0  0  0  0  0  0  0  0  0  0  0  0
   -4.7214   -3.5009   -1.6102 H   0  0  0  0  0  0  0  0  0  0  0  0
   -4.6608   -5.2732   -1.6326 H   0  0  0  0  0  0  0  0  0  0  0  0
   -2.1661   -5.2057   -1.6387 H   0  0  0  0  0  0  0  0  0  0  0  0
   -2.7913   -4.3225   -0.2407 H   0  0  0  0  0  0  0  0  0  0  0  0
   -2.1990   -3.4406   -1.6506 H   0  0  0  0  0  0  0  0  0  0  0  0
   -3.3703    0.4327   -3.5343 H   0  0  0  0  0  0  0  0  0  0  0  0
    2.4048    4.1678   -3.3017 H   0  0  0  0  0  0  0  0  0  0  0  0
    3.8047    6.1438   -3.7183 H   0  0  0  0  0  0  0  0  0  0  0  0
    3.3196    8.4287   -8.0398 H   0  0  0  0  0  0  0  0  0  0  0  0
    3.9904    9.7589   -7.0777 H   0  0  0  0  0  0  0  0  0  0  0  0
    1.5013    9.9177   -7.1387 H   0  0  0  0  0  0  0  0  0  0  0  0
    1.3651    8.2916   -6.4739 H   0  0  0  0  0  0  0  0  0  0  0  0
    2.0596    9.5858   -5.4917 H   0  0  0  0  0  0  0  0  0  0  0  0
    1.1295    4.2623   -7.3952 H   0  0  0  0  0  0  0  0  0  0  0  0
   -0.8326    5.0010   -6.2258 H   0  0  0  0  0  0  0  0  0  0  0  0
   -5.3718    3.8391   -6.3373 H   0  0  0  0  0  0  0  0  0  0  0  0
   -4.2267    7.1883   -9.1348 H   0  0  0  0  0  0  0  0  0  0  0  0
    0.3326    6.8403   -9.4827 H   0  0  0  0  0  0  0  0  0  0  0  0
   -0.8889    9.6666   -9.3963 H   0  0  0  0  0  0  0  0  0  0  0  0
    0.8063    9.2165   -9.9601 H   0  0  0  0  0  0  0  0  0  0  0  0
  1  2  2  0  0  0  0
  2  3  1  0  0  0  0
  3  4  1  0  0  0  0
  4  5  2  0  0  0  0
  5  6  1  0  0  0  0
  6  7  2  0  0  0  0
  6  8  1  0  0  0  0
  8  9  1  0  0  0  0
  9 10  2  0  0  0  0
 10 11  1  0  0  0  0
 11 12  2  0  0  0  0
 12 13  1  0  0  0  0
 13 14  2  0  0  0  0
 14 15  1  0  0  0  0
 15 16  2  0  0  0  0
 16 17  1  0  0  0  0
 17 18  2  0  0  0  0
 18 19  1  0  0  0  0
 19 20  1  0  0  0  0
 20 21  1  0  0  0  0
 18 22  1  0  0  0  0
 22 23  1  0  0  0  0
 22 24  2  0  0  0  0
 14 25  1  0  0  0  0
 25 26  2  0  0  0  0
 26 27  1  0  0  0  0
 27 28  1  0  0  0  0
 28 29  2  0  0  0  0
 29 30  1  0  0  0  0
 30 31  2  0  0  0  0
 31 32  1  0  0  0  0
 32 33  1  0  0  0  0
 33 34  1  0  0  0  0
 31 35  1  0  0  0  0
 35 36  2  0  0  0  0
 35 37  1  0  0  0  0
 27 38  2  0  0  0  0
 38 39  1  0  0  0  0
 26 40  1  0  0  0  0
 40 41  2  0  0  0  0
 41 42  1  0  0  0  0
 41 43  1  0  0  0  0
 43 44  2  0  0  0  0
 44 45  1  0  0  0  0
 45 46  1  0  0  0  0
 46 47  2  0  0  0  0
 47 48  1  0  0  0  0
 48 49  2  0  0  0  0
 48 50  1  0  0  0  0
 50 51  1  0  0  0  0
 51 52  2  0  0  0  0
 52 53  1  0  0  0  0
 53 54  2  0  0  0  0
 54 55  1  0  0  0  0
 55 56  1  0  0  0  0
 56 57  2  0  0  0  0
 57 58  1  0  0  0  0
 58 59  2  0  0  0  0
 58 60  1  0  0  0  0
 60 61  1  0  0  0  0
 61 62  2  0  0  0  0
 62 63  1  0  0  0  0
 63 64  2  0  0  0  0
 64 65  1  0  0  0  0
 65 66  2  0  0  0  0
 66 67  1  0  0  0  0
 67 68  2  0  0  0  0
 68 69  1  0  0  0  0
 69 70  2  0  0  0  0
 70 71  1  0  0  0  0
 71 72  1  0  0  0  0
 72 73  1  0  0  0  0
 70 74  1  0  0  0  0
 74 75  1  0  0  0  0
 74 76  2  0  0  0  0
 66 77  1  0  0  0  0
 77 78  2  0  0  0  0
 78 79  1  0  0  0  0
 79 80  1  0  0  0  0
 80 81  2  0  0  0  0
 81 82  1  0  0  0  0
 82 83  2  0  0  0  0
 83 84  1  0  0  0  0
 84 85  1  0  0  0  0
 85 86  1  0  0  0  0
 83 87  1  0  0  0  0
 87 88  2  0  0  0  0
 87 89  1  0  0  0  0
 79 90  2  0  0  0  0
 90 91  1  0  0  0  0
 78 92  1  0  0  0  0
 92 93  2  0  0  0  0
 93 94  1  0  0  0  0
 93 95  1  0  0  0  0
 95 96  2  0  0  0  0
 96 97  1  0  0  0  0
 97 98  1  0  0  0  0
 98 99  2  0  0  0  0
 99100  1  0  0  0  0
100101  2  0  0  0  0
100102  1  0  0  0  0
102103  1  0  0  0  0
103104  2  0  0  0  0
  5  1  1  0  0  0  0
 39 11  1  0  0  0  0
 47 43  1  0  0  0  0
 57 53  1  0  0  0  0
 91 63  1  0  0  0  0
 99 95  1  0  0  0  0
 38 13  1  0  0  0  0
 90 65  1  0  0  0  0
 24 15  1  0  0  0  0
 42 25  1  0  0  0  0
 76 67  1  0  0  0  0
 94 77  1  0  0  0  0
 36 28  1  0  0  0  0
 88 80  1  0  0  0  0
  1105  1  0  0  0  0
  2106  1  0  0  0  0
  4107  1  0  0  0  0
  9108  1  0  0  0  0
 10109  1  0  0  0  0
 12110  1  0  0  0  0
 16111  1  0  0  0  0
 17112  1  0  0  0  0
 20113  1  0  0  0  0
 20114  1  0  0  0  0
 21115  1  0  0  0  0
 21116  1  0  0  0  0
 21117  1  0  0  0  0
 24118  1  0  0  0  0
 29119  1  0  0  0  0
 30120  1  0  0  0  0
 33121  1  0  0  0  0
 33122  1  0  0  0  0
 34123  1  0  0  0  0
 34124  1  0  0  0  0
 34125  1  0  0  0  0
 36126  1  0  0  0  0
 40127  1  0  0  0  0
 44128  1  0  0  0  0
 46129  1  0  0  0  0
 51130  1  0  0  0  0
 52131  1  0  0  0  0
 54132  1  0  0  0  0
 56133  1  0  0  0  0
 61134  1  0  0  0  0
 62135  1  0  0  0  0
 64136  1  0  0  0  0
 68137  1  0  0  0  0
 69138  1  0  0  0  0
 72139  1  0  0  0  0
 72140  1  0  0  0  0
 73141  1  0  0  0  0
 73142  1  0  0  0  0
 73143  1  0  0  0  0
 76144  1  0  0  0  0
 81145  1  0  0  0  0
 82146  1  0  0  0  0
 85147  1  0  0  0  0
 85148  1  0  0  0  0
 86149  1  0  0  0  0
 86150  1  0  0  0  0
 86151  1  0  0  0  0
 88152  1  0  0  0  0
 92153  1  0  0  0  0
 96154  1  0  0  0  0
 98155  1  0  0  0  0
103156  1  0  0  0  0
104157  1  0  0  0  0
104158  1  0  0  0  0
M  END
