131

C         14.86440       -6.68280        6.24770
S         13.72340       -5.57020        6.91020
C         12.51490       -5.94650        5.70750
C         13.01140       -6.90850        4.83420
C         14.34640       -7.31090        5.15970
S         14.95290       -8.51010        4.05200
C         13.43250       -8.45450        3.17530
C         13.24220       -9.29970        2.00110
O         12.23610       -9.31940        1.33190
O         14.33340      -10.04040        1.75500
C         14.27340      -10.92550        0.63970
C         13.56350      -12.22400        0.99620
C         12.52130       -7.58270        3.69410
C         11.24520       -5.32940        5.66750
C         10.81990       -4.36140        6.51580
C          9.55240       -3.73590        6.44430
S          8.36590       -4.23560        5.23730
C          7.26940       -3.03520        5.80250
C          6.00500       -2.50880        5.54700
C          5.80930       -1.45570        6.46540
N          6.91810       -1.32450        7.26140
C          7.06070       -0.43020        8.37940
C          6.48920       -1.03510        9.66080
C          7.81080       -2.29290        6.87550
C          9.09660       -2.69810        7.23630
C          4.58220       -0.80250        6.31190
C          3.83960       -1.35140        5.28670
S          4.65040       -2.69870        4.49900
C          2.57230       -0.92790        4.80040
S          1.74310       -1.90760        3.59700
C          0.47360       -0.74620        3.51160
C         -0.71150       -0.47150        2.83130
C         -1.17450        0.77350        3.30490
N         -0.30500        1.26070        4.24580
C         -0.47170        2.46460        5.01620
C         -1.23750        2.20220        6.31180
C          0.69800        0.33640        4.38800
C          1.88400        0.22400        5.12080
C         -2.34340        1.21160        2.67330
C         -2.77850        0.31040        1.72740
S         -1.74680       -1.11460        1.61190
C         -3.87540        0.44490        0.83760
S         -4.75590        1.96920        0.75590
C         -5.70830        1.35810       -0.54590
C         -6.68220        1.75020       -1.46400
C         -6.90240        0.64200       -2.31300
N         -6.11560       -0.40920       -1.92020
C         -5.97420       -1.66600       -2.60820
C         -4.82330       -1.63670       -3.61310
C         -5.36180        0.02670       -0.86150
C         -4.32450       -0.48340       -0.07570
C         -7.80000        0.90330       -3.34640
C         -8.26120        2.20520       -3.30020
S         -7.61310        3.12170       -1.94690
C         -9.04020        2.83780       -4.29600
S         -9.61200        1.90970       -5.66330
C        -10.03600        3.32770       -6.58540
C         -9.88020        4.45720       -5.79150
C         -9.30940        4.17140       -4.51520
S         -9.01340        5.60630       -3.58920
C         -9.64740        6.57200       -4.90550
C         -9.66470        8.02400       -4.72540
O         -9.29780        8.58680       -3.72290
O        -10.14900        8.64960       -5.81040
C        -10.17320       10.07620       -5.76190
C         -8.82020       10.66700       -6.13230
C        -10.05400        5.84800       -5.98620
C        -10.43930        3.26030       -7.95150
C        -10.02040        2.35260       -8.86270
C         -8.95530        1.41010       -8.67980
S         -9.05580       -0.18440       -9.39240
C         -7.54460       -0.70680       -8.70850
C         -6.97110        0.33220       -7.98850
C         -7.75760        1.52210       -8.01040
S         -6.98280        2.82700       -7.15910
C         -5.69160        1.74240       -6.68760
C         -4.67630        2.30090       -5.79490
O         -4.62360        3.46740       -5.49100
O         -3.82210        1.36320       -5.35410
C         -2.78240        1.81790       -4.48390
C         -3.27080        1.98820       -3.05330
C         -5.80220        0.48630       -7.20140
C         -7.02600       -2.02630       -8.89200
C         -7.62130       -2.99180       -9.59280
H         15.82690       -6.79270        6.70240
H         13.75140      -10.42350       -0.18210
H         15.31500      -11.10620        0.36640
H         14.05120      -12.69830        1.84460
H         12.52640      -12.02030        1.25180
H         13.59040      -12.89920        0.14580
H         11.54730       -7.44330        3.26180
H         10.58450       -5.66860        4.88020
H         11.48230       -4.01420        7.29910
H          8.12420       -0.21220        8.50840
H          6.54190        0.50260        8.14070
H          5.43070       -1.25060        9.53510
H          6.61060       -0.34200       10.48870
H          7.00400       -1.96240        9.90080
H          9.68850       -2.26880        8.02450
H          4.24020        0.02160        6.91020
H          0.51980        2.86810        5.24040
H         -1.01130        3.19020        4.40200
H         -0.70320        1.48070        6.92560
H         -1.35030        3.12570        6.87290
H         -2.22470        1.80390        6.09030
H          2.24290        0.94540        5.83120
H         -2.85860        2.13420        2.87040
H         -5.80260       -2.44980       -1.86440
H         -6.91590       -1.87420       -3.12210
H         -4.95110       -0.81250       -4.31160
H         -3.87380       -1.50970       -3.09820
H         -4.79330       -2.56960       -4.16960
H         -3.89670       -1.46600       -0.15980
H         -8.08780        0.21540       -4.12120
H        -10.45980       10.39190       -4.75330
H        -10.94300       10.37010       -6.47850
H         -8.51480       10.32040       -7.11680
H         -8.88580       11.75120       -6.14000
H         -8.07240       10.36420       -5.40340
H        -10.45950        6.29640       -6.87420
H        -11.14240        4.01990       -8.26850
H        -10.51260        2.31980       -9.82560
H         -2.39780        2.76960       -4.86470
H         -2.00900        1.04970       -4.54950
H         -4.05230        2.74290       -3.01250
H         -2.44500        2.30570       -2.42320
H         -3.66430        1.05010       -2.67200
H         -5.07960       -0.28790       -7.01770
H         -6.07540       -2.20910       -8.40770
H         -7.18100       -3.96690       -9.69720
H         -8.56700       -2.82630      -10.08160
