197

C          6.85000        3.12070       13.42580
S          6.55140        3.99890       14.87470
C          4.82640        3.79680       14.76100
C          4.52240        3.01210       13.65970
C          5.68450        2.66900       12.89250
S          5.28080        1.78840       11.44570
C          3.58900        1.84690       11.89480
C          2.54190        1.36230       10.99850
O          1.36530        1.36290       11.28560
O          3.03040        0.98780        9.81270
C          2.08870        0.55110        8.83230
C          1.75720       -0.92510        8.98300
C          3.34920        2.46720       13.08340
C          3.96830        4.46610       15.70440
C          2.77640        5.01810       15.42090
C          2.22550        5.08050       14.08160
C          1.04510        4.57510       13.63910
C          0.93870        4.53660       12.22120
C         -0.05670        3.92470       11.44400
C         -1.18070        3.22330       12.03720
S         -0.96400        2.05350       13.29900
C         -2.64790        1.66310       13.34790
C         -3.20370        0.67360       14.31340
C         -3.08610        1.17290       15.75410
C         -3.32400        2.40490       12.42620
F         -4.65150        2.31760       12.24010
C         -2.49920        3.27690       11.67740
F         -2.98660        4.11910       10.75420
C          0.12770        3.93300       10.06560
C          1.24170        4.54270        9.44070
C          2.22730        5.18020       10.21780
C          3.36740        5.82550        9.59070
S          3.14610        6.90690        8.24420
C          4.83820        7.23590        8.10630
C          5.38270        8.11640        7.03560
C          5.17690        7.49830        5.65150
C          5.51980        6.54240        9.05970
C          4.69730        5.75490        9.90160
F          5.20780        4.97410       10.86320
F          6.85410        6.59570        9.19680
C          2.06170        5.13390       11.59620
S          3.19670        5.72120       12.77390
C          1.26060        4.29820        8.04690
C          0.21860        3.53170        7.61430
S         -0.86900        3.09560        8.91250
C          0.00380        3.05400        6.28900
C         -0.94800        2.17890        5.85730
C         -0.84950        1.87280        4.47880
C         -1.62400        0.96700        3.73150
C         -2.62150        0.13050        4.37460
S         -4.22200       -0.07340        3.73080
C         -4.69240       -1.14930        5.00210
C         -6.04710       -1.76600        5.05290
C         -6.29030       -2.67320        3.84680
C         -3.65230       -1.33460        5.86200
F         -3.72120       -2.12860        6.94120
C         -2.48560       -0.61200        5.51540
F         -1.34490       -0.70500        6.21550
C         -1.35510        0.87860        2.37190
C         -0.32200        1.61330        1.74000
C          0.48240        2.48800        2.49430
C          1.58650        3.21600        1.89360
S          2.75030        2.42790        0.86770
C          3.67900        3.87100        0.65460
C          4.92160        3.89290       -0.16590
C          6.01440        3.01850        0.45020
C          3.10760        4.89400        1.34940
C          1.93140        4.53090        2.04900
F          1.20530        5.42000        2.73890
F          3.60650        6.14000        1.36800
C          0.19310        2.59920        3.84930
S          1.06550        3.56970        4.99840
C         -0.24440        1.32610        0.35570
C         -1.14760        0.39410       -0.06140
S         -2.17070       -0.16870        1.24460
C         -1.29330       -0.14540       -1.37170
C         -2.16300       -1.11340       -1.78080
C         -2.01780       -1.46590       -3.14360
C         -2.75220       -2.41620       -3.87830
C         -3.85380       -3.14890       -3.27840
S         -5.10530       -2.34050       -2.38130
C         -5.96240       -3.81140       -2.07300
C         -7.21320       -3.83860       -1.26460
C         -6.97920       -3.29460        0.14460
C         -5.30200       -4.85780       -2.64170
F         -5.73010       -6.12660       -2.56100
C         -4.11880       -4.48960       -3.32780
F         -3.31370       -5.38910       -3.90590
C         -2.38660       -2.60850       -5.20420
C         -1.33340       -1.88820       -5.82360
C         -0.60810       -0.92630       -5.09450
C          0.45940       -0.16260       -5.71650
S          0.25690        0.59430       -7.27060
C          1.86260        1.23560       -7.27300
C          2.38470        2.03980       -8.41220
C          1.57410        3.31920       -8.61820
C          2.49970        0.88560       -6.12110
C          1.71490        0.10120       -5.24140
F          2.19700       -0.38160       -4.08850
F          3.76350        1.24140       -5.84070
C         -0.96810       -0.74290       -3.76500
S         -0.24250        0.39060       -2.66280
C         -1.14470       -2.28070       -7.16660
C         -2.02890       -3.23600       -7.58800
S         -3.14550       -3.70290       -6.32520
C         -2.07480       -3.83320       -8.87370
S         -3.15510       -5.14240       -9.25980
C         -2.56430       -5.29390      -10.89420
C         -1.57230       -4.33600      -11.13150
C         -1.31120       -3.53120       -9.98530
S         -0.09010       -2.33680      -10.27950
C          0.05490       -2.90250      -11.92710
C          1.01950       -2.21600      -12.78680
O          1.70080       -1.28750      -12.42120
O          1.03690       -2.73620      -14.02040
C          1.95760       -2.15860      -14.94750
C          3.35560       -2.73470      -14.77640
C         -0.77100       -3.94360      -12.23020
C         -3.10990       -6.31070      -11.70630
C         -2.68410       -6.66240      -12.94700
C         -3.24280       -7.70280      -13.71950
S         -4.60380       -8.67590      -13.22010
C         -4.59350       -9.64000      -14.66960
C         -3.56610       -9.22320      -15.51290
C         -2.82500       -8.13730      -14.96380
S         -1.53920       -7.60960      -15.99770
C         -1.98870       -8.84000      -17.15740
C         -1.19150       -8.92830      -18.38200
O         -0.25450       -8.20790      -18.62750
O         -1.63910       -9.89740      -19.19310
C         -0.91880      -10.09130      -20.41160
C          0.31300      -10.95900      -20.19820
C         -3.05240       -9.60170      -16.77920
C         -5.58050      -10.66850      -14.79070
C         -5.76070      -11.48430      -15.83100
H          7.85020        3.01530       13.05990
H          2.56420        0.75480        7.87070
H          1.17630        1.14720        8.93060
H          2.65910       -1.52700        8.90270
H          1.05950       -1.21550        8.20270
H          1.29630       -1.10340        9.95160
H          2.36400        2.52470       13.50490
H          4.35380        4.54090       16.71270
H          2.17530        5.43120       16.21950
H          0.30870        4.15720       14.30140
H         -4.25240        0.50090       14.06380
H         -2.66470       -0.27160       14.21540
H         -2.04270        1.34580       16.00710
H         -3.63390        2.10380       15.87900
H         -3.49470        0.43520       16.43940
H          4.88360        9.08770        7.07320
H          6.44770        8.26700        7.22320
H          4.11710        7.35230        5.45600
H          5.58420        8.15300        4.88620
H          5.67840        6.53550        5.58740
H          2.03250        4.64190        7.38280
H         -1.69500        1.77600        6.51620
H         -6.12770       -2.34080        5.97750
H         -6.80500       -0.97880        5.06940
H         -6.21290       -2.10120        2.92530
H         -5.55620       -3.47480        3.82120
H         -7.28230       -3.11260        3.90460
H          4.69820        3.53020       -1.17220
H          5.26630        4.92630       -0.23920
H          6.26500        3.36920        1.44850
H          5.67700        1.98680        0.51780
H          6.90890        3.05290       -0.16530
H          0.45560        1.78500       -0.31830
H         -2.87160       -1.56610       -1.11130
H         -7.56670       -4.87040       -1.21580
H         -7.97980       -3.23640       -1.75960
H         -6.62860       -2.26600        0.09600
H         -6.23380       -3.89200        0.66390
H         -7.90410       -3.32270        0.71380
H          3.42880        2.28540       -8.20840
H          2.34360        1.43860       -9.32440
H          1.61200        3.94250       -7.72780
H          0.53520        3.07590       -8.82890
H          1.97650        3.88340       -9.45490
H         -0.37120       -1.89120       -7.79970
H          1.55020       -2.39720      -15.93190
H          1.97390       -1.07360      -14.80050
H          3.74540       -2.47880      -13.79410
H          4.01390       -2.32120      -15.53480
H          3.33110       -3.81700      -14.87780
H         -0.79080       -4.38070      -13.21040
H         -3.92920       -6.86820      -11.26850
H         -1.85080       -6.15690      -13.41110
H         -0.62850       -9.11370      -20.81040
H         -1.63050      -10.57320      -21.08500
H          1.01250      -10.45410      -19.53640
H          0.03120      -11.91160      -19.75560
H          0.79970      -11.13980      -21.15220
H         -3.42960      -10.39490      -17.39580
H         -6.23020      -10.75930      -13.92910
H         -5.15420      -11.43970      -16.71640
H         -6.53750      -12.22800      -15.81870
