
  xtb     02282216093D
 energy: -383.359387973971 gnorm: 0.000291935042 xtb: 6.4.1 (unknown)
197217  0     0  0            999 V2000
    6.8500    3.1207   13.4258 C   0  0  0  0  0  0  0  0  0  0  0  0
    6.5514    3.9989   14.8747 S   0  0  0  0  0  0  0  0  0  0  0  0
    4.8264    3.7968   14.7610 C   0  0  0  0  0  0  0  0  0  0  0  0
    4.5224    3.0121   13.6597 C   0  0  0  0  0  0  0  0  0  0  0  0
    5.6845    2.6690   12.8925 C   0  0  0  0  0  0  0  0  0  0  0  0
    5.2808    1.7884   11.4457 S   0  0  0  0  0  0  0  0  0  0  0  0
    3.5890    1.8469   11.8948 C   0  0  0  0  0  0  0  0  0  0  0  0
    2.5419    1.3623   10.9985 C   0  0  0  0  0  0  0  0  0  0  0  0
    1.3653    1.3629   11.2856 O   0  0  0  0  0  0  0  0  0  0  0  0
    3.0304    0.9878    9.8127 O   0  0  0  0  0  0  0  0  0  0  0  0
    2.0887    0.5511    8.8323 C   0  0  0  0  0  0  0  0  0  0  0  0
    1.7572   -0.9251    8.9830 C   0  0  0  0  0  0  0  0  0  0  0  0
    3.3492    2.4672   13.0834 C   0  0  0  0  0  0  0  0  0  0  0  0
    3.9683    4.4661   15.7044 C   0  0  0  0  0  0  0  0  0  0  0  0
    2.7764    5.0181   15.4209 C   0  0  0  0  0  0  0  0  0  0  0  0
    2.2255    5.0805   14.0816 C   0  0  0  0  0  0  0  0  0  0  0  0
    1.0451    4.5751   13.6391 C   0  0  0  0  0  0  0  0  0  0  0  0
    0.9387    4.5366   12.2212 C   0  0  0  0  0  0  0  0  0  0  0  0
   -0.0567    3.9247   11.4440 C   0  0  0  0  0  0  0  0  0  0  0  0
   -1.1807    3.2233   12.0372 C   0  0  0  0  0  0  0  0  0  0  0  0
   -0.9640    2.0535   13.2990 S   0  0  0  0  0  0  0  0  0  0  0  0
   -2.6479    1.6631   13.3479 C   0  0  0  0  0  0  0  0  0  0  0  0
   -3.2037    0.6736   14.3134 C   0  0  0  0  0  0  0  0  0  0  0  0
   -3.0861    1.1729   15.7541 C   0  0  0  0  0  0  0  0  0  0  0  0
   -3.3240    2.4049   12.4262 C   0  0  0  0  0  0  0  0  0  0  0  0
   -4.6515    2.3176   12.2401 F   0  0  0  0  0  0  0  0  0  0  0  0
   -2.4992    3.2769   11.6774 C   0  0  0  0  0  0  0  0  0  0  0  0
   -2.9866    4.1191   10.7542 F   0  0  0  0  0  0  0  0  0  0  0  0
    0.1277    3.9330   10.0656 C   0  0  0  0  0  0  0  0  0  0  0  0
    1.2417    4.5427    9.4407 C   0  0  0  0  0  0  0  0  0  0  0  0
    2.2273    5.1802   10.2178 C   0  0  0  0  0  0  0  0  0  0  0  0
    3.3674    5.8255    9.5907 C   0  0  0  0  0  0  0  0  0  0  0  0
    3.1461    6.9069    8.2442 S   0  0  0  0  0  0  0  0  0  0  0  0
    4.8382    7.2359    8.1063 C   0  0  0  0  0  0  0  0  0  0  0  0
    5.3827    8.1164    7.0356 C   0  0  0  0  0  0  0  0  0  0  0  0
    5.1769    7.4983    5.6515 C   0  0  0  0  0  0  0  0  0  0  0  0
    5.5198    6.5424    9.0597 C   0  0  0  0  0  0  0  0  0  0  0  0
    4.6973    5.7549    9.9016 C   0  0  0  0  0  0  0  0  0  0  0  0
    5.2078    4.9741   10.8632 F   0  0  0  0  0  0  0  0  0  0  0  0
    6.8541    6.5957    9.1968 F   0  0  0  0  0  0  0  0  0  0  0  0
    2.0617    5.1339   11.5962 C   0  0  0  0  0  0  0  0  0  0  0  0
    3.1967    5.7212   12.7739 S   0  0  0  0  0  0  0  0  0  0  0  0
    1.2606    4.2982    8.0469 C   0  0  0  0  0  0  0  0  0  0  0  0
    0.2186    3.5317    7.6143 C   0  0  0  0  0  0  0  0  0  0  0  0
   -0.8690    3.0956    8.9125 S   0  0  0  0  0  0  0  0  0  0  0  0
    0.0038    3.0540    6.2890 C   0  0  0  0  0  0  0  0  0  0  0  0
   -0.9480    2.1789    5.8573 C   0  0  0  0  0  0  0  0  0  0  0  0
   -0.8495    1.8728    4.4788 C   0  0  0  0  0  0  0  0  0  0  0  0
   -1.6240    0.9670    3.7315 C   0  0  0  0  0  0  0  0  0  0  0  0
   -2.6215    0.1305    4.3746 C   0  0  0  0  0  0  0  0  0  0  0  0
   -4.2220   -0.0734    3.7308 S   0  0  0  0  0  0  0  0  0  0  0  0
   -4.6924   -1.1493    5.0021 C   0  0  0  0  0  0  0  0  0  0  0  0
   -6.0471   -1.7660    5.0529 C   0  0  0  0  0  0  0  0  0  0  0  0
   -6.2903   -2.6732    3.8468 C   0  0  0  0  0  0  0  0  0  0  0  0
   -3.6523   -1.3346    5.8620 C   0  0  0  0  0  0  0  0  0  0  0  0
   -3.7212   -2.1286    6.9412 F   0  0  0  0  0  0  0  0  0  0  0  0
   -2.4856   -0.6120    5.5154 C   0  0  0  0  0  0  0  0  0  0  0  0
   -1.3449   -0.7050    6.2155 F   0  0  0  0  0  0  0  0  0  0  0  0
   -1.3551    0.8786    2.3719 C   0  0  0  0  0  0  0  0  0  0  0  0
   -0.3220    1.6133    1.7400 C   0  0  0  0  0  0  0  0  0  0  0  0
    0.4824    2.4880    2.4943 C   0  0  0  0  0  0  0  0  0  0  0  0
    1.5865    3.2160    1.8936 C   0  0  0  0  0  0  0  0  0  0  0  0
    2.7503    2.4279    0.8677 S   0  0  0  0  0  0  0  0  0  0  0  0
    3.6790    3.8710    0.6546 C   0  0  0  0  0  0  0  0  0  0  0  0
    4.9216    3.8929   -0.1659 C   0  0  0  0  0  0  0  0  0  0  0  0
    6.0144    3.0185    0.4502 C   0  0  0  0  0  0  0  0  0  0  0  0
    3.1076    4.8940    1.3494 C   0  0  0  0  0  0  0  0  0  0  0  0
    1.9314    4.5309    2.0490 C   0  0  0  0  0  0  0  0  0  0  0  0
    1.2053    5.4200    2.7389 F   0  0  0  0  0  0  0  0  0  0  0  0
    3.6065    6.1400    1.3680 F   0  0  0  0  0  0  0  0  0  0  0  0
    0.1931    2.5992    3.8493 C   0  0  0  0  0  0  0  0  0  0  0  0
    1.0655    3.5697    4.9984 S   0  0  0  0  0  0  0  0  0  0  0  0
   -0.2444    1.3261    0.3557 C   0  0  0  0  0  0  0  0  0  0  0  0
   -1.1476    0.3941   -0.0614 C   0  0  0  0  0  0  0  0  0  0  0  0
   -2.1707   -0.1687    1.2446 S   0  0  0  0  0  0  0  0  0  0  0  0
   -1.2933   -0.1454   -1.3717 C   0  0  0  0  0  0  0  0  0  0  0  0
   -2.1630   -1.1134   -1.7808 C   0  0  0  0  0  0  0  0  0  0  0  0
   -2.0178   -1.4659   -3.1436 C   0  0  0  0  0  0  0  0  0  0  0  0
   -2.7522   -2.4162   -3.8783 C   0  0  0  0  0  0  0  0  0  0  0  0
   -3.8538   -3.1489   -3.2784 C   0  0  0  0  0  0  0  0  0  0  0  0
   -5.1053   -2.3405   -2.3813 S   0  0  0  0  0  0  0  0  0  0  0  0
   -5.9624   -3.8114   -2.0730 C   0  0  0  0  0  0  0  0  0  0  0  0
   -7.2132   -3.8386   -1.2646 C   0  0  0  0  0  0  0  0  0  0  0  0
   -6.9792   -3.2946    0.1446 C   0  0  0  0  0  0  0  0  0  0  0  0
   -5.3020   -4.8578   -2.6417 C   0  0  0  0  0  0  0  0  0  0  0  0
   -5.7301   -6.1266   -2.5610 F   0  0  0  0  0  0  0  0  0  0  0  0
   -4.1188   -4.4896   -3.3278 C   0  0  0  0  0  0  0  0  0  0  0  0
   -3.3137   -5.3891   -3.9059 F   0  0  0  0  0  0  0  0  0  0  0  0
   -2.3866   -2.6085   -5.2042 C   0  0  0  0  0  0  0  0  0  0  0  0
   -1.3334   -1.8882   -5.8236 C   0  0  0  0  0  0  0  0  0  0  0  0
   -0.6081   -0.9263   -5.0945 C   0  0  0  0  0  0  0  0  0  0  0  0
    0.4594   -0.1626   -5.7165 C   0  0  0  0  0  0  0  0  0  0  0  0
    0.2569    0.5943   -7.2706 S   0  0  0  0  0  0  0  0  0  0  0  0
    1.8626    1.2356   -7.2730 C   0  0  0  0  0  0  0  0  0  0  0  0
    2.3847    2.0398   -8.4122 C   0  0  0  0  0  0  0  0  0  0  0  0
    1.5741    3.3192   -8.6182 C   0  0  0  0  0  0  0  0  0  0  0  0
    2.4997    0.8856   -6.1211 C   0  0  0  0  0  0  0  0  0  0  0  0
    1.7149    0.1012   -5.2414 C   0  0  0  0  0  0  0  0  0  0  0  0
    2.1970   -0.3816   -4.0885 F   0  0  0  0  0  0  0  0  0  0  0  0
    3.7635    1.2414   -5.8407 F   0  0  0  0  0  0  0  0  0  0  0  0
   -0.9681   -0.7429   -3.7650 C   0  0  0  0  0  0  0  0  0  0  0  0
   -0.2425    0.3906   -2.6628 S   0  0  0  0  0  0  0  0  0  0  0  0
   -1.1447   -2.2807   -7.1666 C   0  0  0  0  0  0  0  0  0  0  0  0
   -2.0289   -3.2360   -7.5880 C   0  0  0  0  0  0  0  0  0  0  0  0
   -3.1455   -3.7029   -6.3252 S   0  0  0  0  0  0  0  0  0  0  0  0
   -2.0748   -3.8332   -8.8737 C   0  0  0  0  0  0  0  0  0  0  0  0
   -3.1551   -5.1424   -9.2598 S   0  0  0  0  0  0  0  0  0  0  0  0
   -2.5643   -5.2939  -10.8942 C   0  0  0  0  0  0  0  0  0  0  0  0
   -1.5723   -4.3360  -11.1315 C   0  0  0  0  0  0  0  0  0  0  0  0
   -1.3112   -3.5312   -9.9853 C   0  0  0  0  0  0  0  0  0  0  0  0
   -0.0901   -2.3368  -10.2795 S   0  0  0  0  0  0  0  0  0  0  0  0
    0.0549   -2.9025  -11.9271 C   0  0  0  0  0  0  0  0  0  0  0  0
    1.0195   -2.2160  -12.7868 C   0  0  0  0  0  0  0  0  0  0  0  0
    1.7008   -1.2875  -12.4212 O   0  0  0  0  0  0  0  0  0  0  0  0
    1.0369   -2.7362  -14.0204 O   0  0  0  0  0  0  0  0  0  0  0  0
    1.9576   -2.1586  -14.9475 C   0  0  0  0  0  0  0  0  0  0  0  0
    3.3556   -2.7347  -14.7764 C   0  0  0  0  0  0  0  0  0  0  0  0
   -0.7710   -3.9436  -12.2302 C   0  0  0  0  0  0  0  0  0  0  0  0
   -3.1099   -6.3107  -11.7063 C   0  0  0  0  0  0  0  0  0  0  0  0
   -2.6841   -6.6624  -12.9470 C   0  0  0  0  0  0  0  0  0  0  0  0
   -3.2428   -7.7028  -13.7195 C   0  0  0  0  0  0  0  0  0  0  0  0
   -4.6038   -8.6759  -13.2201 S   0  0  0  0  0  0  0  0  0  0  0  0
   -4.5935   -9.6400  -14.6696 C   0  0  0  0  0  0  0  0  0  0  0  0
   -3.5661   -9.2232  -15.5129 C   0  0  0  0  0  0  0  0  0  0  0  0
   -2.8250   -8.1373  -14.9638 C   0  0  0  0  0  0  0  0  0  0  0  0
   -1.5392   -7.6096  -15.9977 S   0  0  0  0  0  0  0  0  0  0  0  0
   -1.9887   -8.8400  -17.1574 C   0  0  0  0  0  0  0  0  0  0  0  0
   -1.1915   -8.9283  -18.3820 C   0  0  0  0  0  0  0  0  0  0  0  0
   -0.2545   -8.2079  -18.6275 O   0  0  0  0  0  0  0  0  0  0  0  0
   -1.6391   -9.8974  -19.1931 O   0  0  0  0  0  0  0  0  0  0  0  0
   -0.9188  -10.0913  -20.4116 C   0  0  0  0  0  0  0  0  0  0  0  0
    0.3130  -10.9590  -20.1982 C   0  0  0  0  0  0  0  0  0  0  0  0
   -3.0524   -9.6017  -16.7792 C   0  0  0  0  0  0  0  0  0  0  0  0
   -5.5805  -10.6685  -14.7907 C   0  0  0  0  0  0  0  0  0  0  0  0
   -5.7607  -11.4843  -15.8310 C   0  0  0  0  0  0  0  0  0  0  0  0
    7.8502    3.0153   13.0599 H   0  0  0  0  0  0  0  0  0  0  0  0
    2.5642    0.7548    7.8707 H   0  0  0  0  0  0  0  0  0  0  0  0
    1.1763    1.1472    8.9306 H   0  0  0  0  0  0  0  0  0  0  0  0
    2.6591   -1.5270    8.9027 H   0  0  0  0  0  0  0  0  0  0  0  0
    1.0595   -1.2155    8.2027 H   0  0  0  0  0  0  0  0  0  0  0  0
    1.2963   -1.1034    9.9516 H   0  0  0  0  0  0  0  0  0  0  0  0
    2.3640    2.5247   13.5049 H   0  0  0  0  0  0  0  0  0  0  0  0
    4.3538    4.5409   16.7127 H   0  0  0  0  0  0  0  0  0  0  0  0
    2.1753    5.4312   16.2195 H   0  0  0  0  0  0  0  0  0  0  0  0
    0.3087    4.1572   14.3014 H   0  0  0  0  0  0  0  0  0  0  0  0
   -4.2524    0.5009   14.0638 H   0  0  0  0  0  0  0  0  0  0  0  0
   -2.6647   -0.2716   14.2154 H   0  0  0  0  0  0  0  0  0  0  0  0
   -2.0427    1.3458   16.0071 H   0  0  0  0  0  0  0  0  0  0  0  0
   -3.6339    2.1038   15.8790 H   0  0  0  0  0  0  0  0  0  0  0  0
   -3.4947    0.4352   16.4394 H   0  0  0  0  0  0  0  0  0  0  0  0
    4.8836    9.0877    7.0732 H   0  0  0  0  0  0  0  0  0  0  0  0
    6.4477    8.2670    7.2232 H   0  0  0  0  0  0  0  0  0  0  0  0
    4.1171    7.3523    5.4560 H   0  0  0  0  0  0  0  0  0  0  0  0
    5.5842    8.1530    4.8862 H   0  0  0  0  0  0  0  0  0  0  0  0
    5.6784    6.5355    5.5874 H   0  0  0  0  0  0  0  0  0  0  0  0
    2.0325    4.6419    7.3828 H   0  0  0  0  0  0  0  0  0  0  0  0
   -1.6950    1.7760    6.5162 H   0  0  0  0  0  0  0  0  0  0  0  0
   -6.1277   -2.3408    5.9775 H   0  0  0  0  0  0  0  0  0  0  0  0
   -6.8050   -0.9788    5.0694 H   0  0  0  0  0  0  0  0  0  0  0  0
   -6.2129   -2.1012    2.9253 H   0  0  0  0  0  0  0  0  0  0  0  0
   -5.5562   -3.4748    3.8212 H   0  0  0  0  0  0  0  0  0  0  0  0
   -7.2823   -3.1126    3.9046 H   0  0  0  0  0  0  0  0  0  0  0  0
    4.6982    3.5302   -1.1722 H   0  0  0  0  0  0  0  0  0  0  0  0
    5.2663    4.9263   -0.2392 H   0  0  0  0  0  0  0  0  0  0  0  0
    6.2650    3.3692    1.4485 H   0  0  0  0  0  0  0  0  0  0  0  0
    5.6770    1.9868    0.5178 H   0  0  0  0  0  0  0  0  0  0  0  0
    6.9089    3.0529   -0.1653 H   0  0  0  0  0  0  0  0  0  0  0  0
    0.4556    1.7850   -0.3183 H   0  0  0  0  0  0  0  0  0  0  0  0
   -2.8716   -1.5661   -1.1113 H   0  0  0  0  0  0  0  0  0  0  0  0
   -7.5667   -4.8704   -1.2158 H   0  0  0  0  0  0  0  0  0  0  0  0
   -7.9798   -3.2364   -1.7596 H   0  0  0  0  0  0  0  0  0  0  0  0
   -6.6286   -2.2660    0.0960 H   0  0  0  0  0  0  0  0  0  0  0  0
   -6.2338   -3.8920    0.6639 H   0  0  0  0  0  0  0  0  0  0  0  0
   -7.9041   -3.3227    0.7138 H   0  0  0  0  0  0  0  0  0  0  0  0
    3.4288    2.2854   -8.2084 H   0  0  0  0  0  0  0  0  0  0  0  0
    2.3436    1.4386   -9.3244 H   0  0  0  0  0  0  0  0  0  0  0  0
    1.6120    3.9425   -7.7278 H   0  0  0  0  0  0  0  0  0  0  0  0
    0.5352    3.0759   -8.8289 H   0  0  0  0  0  0  0  0  0  0  0  0
    1.9765    3.8834   -9.4549 H   0  0  0  0  0  0  0  0  0  0  0  0
   -0.3712   -1.8912   -7.7997 H   0  0  0  0  0  0  0  0  0  0  0  0
    1.5502   -2.3972  -15.9319 H   0  0  0  0  0  0  0  0  0  0  0  0
    1.9739   -1.0736  -14.8005 H   0  0  0  0  0  0  0  0  0  0  0  0
    3.7454   -2.4788  -13.7941 H   0  0  0  0  0  0  0  0  0  0  0  0
    4.0139   -2.3212  -15.5348 H   0  0  0  0  0  0  0  0  0  0  0  0
    3.3311   -3.8170  -14.8778 H   0  0  0  0  0  0  0  0  0  0  0  0
   -0.7908   -4.3807  -13.2104 H   0  0  0  0  0  0  0  0  0  0  0  0
   -3.9292   -6.8682  -11.2685 H   0  0  0  0  0  0  0  0  0  0  0  0
   -1.8508   -6.1569  -13.4111 H   0  0  0  0  0  0  0  0  0  0  0  0
   -0.6285   -9.1137  -20.8104 H   0  0  0  0  0  0  0  0  0  0  0  0
   -1.6305  -10.5732  -21.0850 H   0  0  0  0  0  0  0  0  0  0  0  0
    1.0125  -10.4541  -19.5364 H   0  0  0  0  0  0  0  0  0  0  0  0
    0.0312  -11.9116  -19.7556 H   0  0  0  0  0  0  0  0  0  0  0  0
    0.7997  -11.1398  -21.1522 H   0  0  0  0  0  0  0  0  0  0  0  0
   -3.4296  -10.3949  -17.3958 H   0  0  0  0  0  0  0  0  0  0  0  0
   -6.2302  -10.7593  -13.9291 H   0  0  0  0  0  0  0  0  0  0  0  0
   -5.1542  -11.4397  -16.7164 H   0  0  0  0  0  0  0  0  0  0  0  0
   -6.5375  -12.2280  -15.8187 H   0  0  0  0  0  0  0  0  0  0  0  0
  1  2  1  0  0  0  0
  2  3  1  0  0  0  0
  3  4  2  0  0  0  0
  4  5  1  0  0  0  0
  5  6  1  0  0  0  0
  6  7  1  0  0  0  0
  7  8  1  0  0  0  0
  8  9  2  0  0  0  0
  8 10  1  0  0  0  0
 10 11  1  0  0  0  0
 11 12  1  0  0  0  0
  7 13  2  0  0  0  0
  3 14  1  0  0  0  0
 14 15  2  0  0  0  0
 15 16  1  0  0  0  0
 16 17  2  0  0  0  0
 17 18  1  0  0  0  0
 18 19  2  0  0  0  0
 19 20  1  0  0  0  0
 20 21  1  0  0  0  0
 21 22  1  0  0  0  0
 22 23  1  0  0  0  0
 23 24  1  0  0  0  0
 22 25  2  0  0  0  0
 25 26  1  0  0  0  0
 25 27  1  0  0  0  0
 27 28  1  0  0  0  0
 19 29  1  0  0  0  0
 29 30  2  0  0  0  0
 30 31  1  0  0  0  0
 31 32  1  0  0  0  0
 32 33  1  0  0  0  0
 33 34  1  0  0  0  0
 34 35  1  0  0  0  0
 35 36  1  0  0  0  0
 34 37  2  0  0  0  0
 37 38  1  0  0  0  0
 38 39  1  0  0  0  0
 37 40  1  0  0  0  0
 31 41  2  0  0  0  0
 41 42  1  0  0  0  0
 30 43  1  0  0  0  0
 43 44  2  0  0  0  0
 44 45  1  0  0  0  0
 44 46  1  0  0  0  0
 46 47  2  0  0  0  0
 47 48  1  0  0  0  0
 48 49  2  0  0  0  0
 49 50  1  0  0  0  0
 50 51  1  0  0  0  0
 51 52  1  0  0  0  0
 52 53  1  0  0  0  0
 53 54  1  0  0  0  0
 52 55  2  0  0  0  0
 55 56  1  0  0  0  0
 55 57  1  0  0  0  0
 57 58  1  0  0  0  0
 49 59  1  0  0  0  0
 59 60  2  0  0  0  0
 60 61  1  0  0  0  0
 61 62  1  0  0  0  0
 62 63  1  0  0  0  0
 63 64  1  0  0  0  0
 64 65  1  0  0  0  0
 65 66  1  0  0  0  0
 64 67  2  0  0  0  0
 67 68  1  0  0  0  0
 68 69  1  0  0  0  0
 67 70  1  0  0  0  0
 61 71  2  0  0  0  0
 71 72  1  0  0  0  0
 60 73  1  0  0  0  0
 73 74  2  0  0  0  0
 74 75  1  0  0  0  0
 74 76  1  0  0  0  0
 76 77  2  0  0  0  0
 77 78  1  0  0  0  0
 78 79  2  0  0  0  0
 79 80  1  0  0  0  0
 80 81  1  0  0  0  0
 81 82  1  0  0  0  0
 82 83  1  0  0  0  0
 83 84  1  0  0  0  0
 82 85  2  0  0  0  0
 85 86  1  0  0  0  0
 85 87  1  0  0  0  0
 87 88  1  0  0  0  0
 79 89  1  0  0  0  0
 89 90  2  0  0  0  0
 90 91  1  0  0  0  0
 91 92  1  0  0  0  0
 92 93  1  0  0  0  0
 93 94  1  0  0  0  0
 94 95  1  0  0  0  0
 95 96  1  0  0  0  0
 94 97  2  0  0  0  0
 97 98  1  0  0  0  0
 98 99  1  0  0  0  0
 97100  1  0  0  0  0
 91101  2  0  0  0  0
101102  1  0  0  0  0
 90103  1  0  0  0  0
103104  2  0  0  0  0
104105  1  0  0  0  0
104106  1  0  0  0  0
106107  1  0  0  0  0
107108  1  0  0  0  0
108109  2  0  0  0  0
109110  1  0  0  0  0
110111  1  0  0  0  0
111112  1  0  0  0  0
112113  1  0  0  0  0
113114  2  0  0  0  0
113115  1  0  0  0  0
115116  1  0  0  0  0
116117  1  0  0  0  0
112118  2  0  0  0  0
108119  1  0  0  0  0
119120  2  0  0  0  0
120121  1  0  0  0  0
121122  1  0  0  0  0
122123  1  0  0  0  0
123124  2  0  0  0  0
124125  1  0  0  0  0
125126  1  0  0  0  0
126127  1  0  0  0  0
127128  1  0  0  0  0
128129  2  0  0  0  0
128130  1  0  0  0  0
130131  1  0  0  0  0
131132  1  0  0  0  0
127133  2  0  0  0  0
123134  1  0  0  0  0
134135  2  0  0  0  0
  5  1  2  0  0  0  0
 42 16  1  0  0  0  0
 72 46  1  0  0  0  0
102 76  1  0  0  0  0
110106  2  0  0  0  0
125121  2  0  0  0  0
 13  4  1  0  0  0  0
 41 18  1  0  0  0  0
 71 48  1  0  0  0  0
101 78  1  0  0  0  0
118109  1  0  0  0  0
133124  1  0  0  0  0
 27 20  2  0  0  0  0
 45 29  1  0  0  0  0
 57 50  2  0  0  0  0
 75 59  1  0  0  0  0
 87 80  2  0  0  0  0
105 89  1  0  0  0  0
 38 32  2  0  0  0  0
 68 62  2  0  0  0  0
 98 92  2  0  0  0  0
  1136  1  0  0  0  0
 11137  1  0  0  0  0
 11138  1  0  0  0  0
 12139  1  0  0  0  0
 12140  1  0  0  0  0
 12141  1  0  0  0  0
 13142  1  0  0  0  0
 14143  1  0  0  0  0
 15144  1  0  0  0  0
 17145  1  0  0  0  0
 23146  1  0  0  0  0
 23147  1  0  0  0  0
 24148  1  0  0  0  0
 24149  1  0  0  0  0
 24150  1  0  0  0  0
 35151  1  0  0  0  0
 35152  1  0  0  0  0
 36153  1  0  0  0  0
 36154  1  0  0  0  0
 36155  1  0  0  0  0
 43156  1  0  0  0  0
 47157  1  0  0  0  0
 53158  1  0  0  0  0
 53159  1  0  0  0  0
 54160  1  0  0  0  0
 54161  1  0  0  0  0
 54162  1  0  0  0  0
 65163  1  0  0  0  0
 65164  1  0  0  0  0
 66165  1  0  0  0  0
 66166  1  0  0  0  0
 66167  1  0  0  0  0
 73168  1  0  0  0  0
 77169  1  0  0  0  0
 83170  1  0  0  0  0
 83171  1  0  0  0  0
 84172  1  0  0  0  0
 84173  1  0  0  0  0
 84174  1  0  0  0  0
 95175  1  0  0  0  0
 95176  1  0  0  0  0
 96177  1  0  0  0  0
 96178  1  0  0  0  0
 96179  1  0  0  0  0
103180  1  0  0  0  0
116181  1  0  0  0  0
116182  1  0  0  0  0
117183  1  0  0  0  0
117184  1  0  0  0  0
117185  1  0  0  0  0
118186  1  0  0  0  0
119187  1  0  0  0  0
120188  1  0  0  0  0
131189  1  0  0  0  0
131190  1  0  0  0  0
132191  1  0  0  0  0
132192  1  0  0  0  0
132193  1  0  0  0  0
133194  1  0  0  0  0
134195  1  0  0  0  0
135196  1  0  0  0  0
135197  1  0  0  0  0
M  END
