240

C          4.12010       10.93900       -1.78640
C          3.11300       10.04280       -1.82390
C          2.88640        9.41220       -0.56550
C          1.92340        8.44640       -0.23150
C          1.01740        7.88740       -1.22360
S         -0.00830        8.87690       -2.21940
C         -0.66890        7.50640       -3.04400
C         -1.71540        7.65440       -4.09240
C         -3.11660        7.61900       -3.47740
C         -0.12660        6.35510       -2.55690
Cl        -0.53630        4.78730       -3.12700
C          0.83520        6.56730       -1.53340
Cl         1.73640        5.27710       -0.84960
C          1.91020        7.99960        1.08460
C          2.85500        8.41940        2.05330
C          3.80590        9.39780        1.72340
C          4.73050        9.91030        2.71970
S          6.44360        9.97200        2.43550
C          6.75500       10.66400        3.98980
C          8.13360       11.04450        4.40270
C          8.48260       12.44740        3.89980
C          5.58850       10.84440        4.67220
C          4.43920       10.41160        3.95900
Cl         2.84830       10.58940        4.57810
Cl         5.49520       11.52300        6.24560
C          3.79790        9.86870        0.41540
S          4.87060       11.07650       -0.23510
C          2.70610        7.71460        3.27650
C          1.64410        6.86480        3.28420
S          0.77000        6.87500        1.76430
C          1.24820        5.92880        4.29070
C          0.01770        5.36990        4.45630
C         -0.00820        4.33120        5.41960
C         -1.08070        3.48470        5.75210
C         -2.41460        3.66860        5.20540
S         -2.70190        3.82890        3.49750
C         -4.41570        3.92690        3.71270
C         -5.33510        4.03470        2.54690
C         -5.67440        2.65060        1.98830
C         -4.73230        3.83300        5.03480
Cl        -6.33630        3.89280        5.64060
C         -3.60280        3.68660        5.88360
Cl        -3.73870        3.62640        7.59050
C         -0.79230        2.39990        6.57060
C          0.49910        2.15490        7.09880
C          1.55000        3.05380        6.84230
C          2.89600        2.79480        7.32720
S          3.66260        1.25830        7.04150
C          5.11580        1.73850        7.84930
C          6.25540        0.79020        7.99370
C          5.80100       -0.55510        8.55860
C          5.00290        3.02110        8.29550
C          3.75110        3.62600        7.99420
Cl         3.34940        5.21210        8.50270
Cl         6.23710        3.85420        9.14850
C          1.26820        4.12260        6.00050
S          2.44000        5.25050        5.37940
C          0.57410        0.89370        7.73580
C         -0.57490        0.16450        7.64450
S         -1.87270        1.07100        6.89180
C         -0.68500       -1.24670        7.81770
C         -1.75640       -2.05020        7.56140
C         -1.40510       -3.41180        7.38030
C         -2.21500       -4.42740        6.84360
C         -3.64920       -4.23210        6.68640
S         -4.64760       -3.92980        8.07780
C         -6.08620       -3.82920        7.12180
C         -7.42090       -3.62750        7.74970
C         -8.03640       -4.96580        8.16540
C         -5.79160       -4.02030        5.80530
Cl        -6.96030       -3.99110        4.55060
C         -4.41050       -4.24000        5.55070
Cl        -3.79330       -4.40110        3.95850
C         -1.56460       -5.55460        6.36630
C         -0.15800       -5.73760        6.44230
C          0.63060       -4.78770        7.11800
C          2.07360       -4.89260        7.24550
S          3.10490       -5.23570        5.88530
C          4.54690       -5.02310        6.81630
C          5.89540       -5.12750        6.19430
C          6.38980       -3.75290        5.73620
C          4.23400       -4.70390        8.10360
C          2.83750       -4.63060        8.35120
Cl         2.20220       -4.32180        9.91200
Cl         5.40290       -4.41200        9.32410
C         -0.01570       -3.62950        7.53900
S          0.79700       -2.16690        8.01730
C          0.27450       -6.81150        5.62800
C         -0.73890       -7.39660        4.91840
S         -2.31090       -6.80130        5.41250
C         -0.63220       -8.05410        3.65420
C          0.50060       -8.21800        2.90580
C          0.24610       -8.32480        1.51650
C          1.19160       -8.26300        0.47240
C          2.59700       -8.48180        0.73970
S          3.84420       -7.48240        0.05460
C          5.10460       -8.38170        0.82820
C          6.53850       -8.05960        0.58980
C          7.05770       -8.78660       -0.65350
C          4.57640       -9.40140        1.56280
Cl         5.51840      -10.51870        2.46290
C          3.15860       -9.45920        1.52090
Cl         2.27360      -10.70250        2.30580
C          0.70530       -7.90440       -0.78180
C         -0.67690       -7.76470       -1.05360
C         -1.63480       -8.02190       -0.05080
C         -3.05250       -7.88820       -0.32140
S         -4.08160       -6.94460        0.71720
C         -5.46750       -7.21730       -0.27560
C         -6.80190       -6.64250        0.05820
C         -6.81370       -5.93800        1.40730
C         -5.13950       -8.00100       -1.34410
C         -3.77330       -8.38050       -1.37730
Cl        -3.13460       -9.42110       -2.58340
Cl        -6.26930       -8.48390       -2.54320
C         -1.13840       -8.24050        1.22580
S         -2.08540       -8.22120        2.68590
C         -0.90210       -7.17370       -2.31460
C          0.24230       -6.84000       -2.99130
S          1.67170       -7.37490       -2.13150
C          0.25780       -5.98130       -4.13060
C          1.25710       -5.17010       -4.65190
C          2.70740       -5.12440       -4.43600
O          3.37610       -4.19050       -4.81700
O          3.19890       -6.20690       -3.83290
C          4.60320       -6.24310       -3.57680
C          5.34790       -6.91940       -4.71790
C          0.71790       -4.20230       -5.52970
C         -0.64160       -4.30980       -5.75230
S         -1.31110       -5.61170       -4.84960
C         -1.18530       -3.27980       -6.55450
C         -2.62670       -3.23420       -6.83030
O         -3.22750       -2.39080       -7.45010
O         -3.21410       -4.31110       -6.27920
C         -4.62990       -4.42480       -6.39520
C         -5.33100       -3.72560       -5.23970
C         -0.19900       -2.36030       -6.89330
S          1.38280       -2.81080       -6.28420
C         -0.31800       -1.09460       -7.54940
C         -1.18400       -0.67790       -8.51390
C         -1.02620        0.68760       -8.86100
C         -1.79130        1.43820       -9.76990
C         -2.79330        0.79910      -10.60390
S         -4.42820        1.37980      -10.68010
C         -4.89650        0.14730      -11.79860
C         -6.30260        0.02610      -12.27280
C         -7.12950       -0.83220      -11.31230
C         -3.83730       -0.66220      -12.08420
Cl        -3.91610       -1.99450      -13.16210
C         -2.64280       -0.29540      -11.41080
Cl        -1.15200       -1.10680      -11.66340
C         -1.54170        2.80380       -9.82530
C         -0.54910        3.43900       -9.04200
C          0.24990        2.68220       -8.17170
C          1.27510        3.29310       -7.33980
S          0.89690        4.59020       -6.24500
C          2.51520        4.65380       -5.63080
C          2.90250        5.60760       -4.55530
C          2.52040        7.04700       -4.89090
C          3.29010        3.72400       -6.25630
C          2.59130        2.94700       -7.22010
Cl         3.36380        1.75460       -8.17740
Cl         4.95780        3.48530       -5.92950
C         -0.00660        1.31710       -8.10510
S          0.76950        0.18820       -7.03800
C         -0.48470        4.83790       -9.30940
C         -1.37600        5.23340      -10.24090
S         -2.35180        3.94650      -10.86080
H          4.48790       11.54820       -2.58860
H          2.53500        9.83470       -2.70540
H         -1.61020        6.83530       -4.80740
H         -1.57210        8.60010       -4.61740
H         -3.23770        8.43170       -2.76530
H         -3.86770        7.72100       -4.25570
H         -3.27580        6.67640       -2.96030
H          8.84580       10.32480        3.99580
H          8.19340       11.02060        5.49230
H          7.78930       13.17740        4.30980
H          9.49060       12.71360        4.20610
H          8.42470       12.48390        2.81460
H          3.37010        7.82250        4.11480
H         -0.83600        5.67740        3.88050
H         -6.25140        4.53340        2.86850
H         -4.86300        4.63530        1.76760
H         -6.35060        2.74530        1.14300
H         -4.77020        2.14480        1.65790
H         -6.15320        2.04300        2.75200
H          6.99820        1.24440        8.65170
H          6.72010        0.63080        7.01620
H          6.65190       -1.22230        8.66810
H          5.34010       -0.42170        9.53410
H          5.07380       -1.01910        7.89530
H          1.46440        0.49960        8.19000
H         -2.74950       -1.66780        7.40610
H         -8.07570       -3.13240        7.02990
H         -7.31600       -2.98720        8.62700
H         -9.01030       -4.80360        8.61890
H         -7.39510       -5.46880        8.88510
H         -8.15790       -5.60980        7.29810
H          6.59160       -5.53720        6.92890
H          5.84830       -5.80370        5.33940
H          5.70540       -3.32870        5.00560
H          7.37340       -3.84270        5.28320
H          6.45590       -3.07670        6.58420
H          1.30710       -7.06970        5.48870
H          1.49040       -8.13390        3.31490
H          7.11920       -8.36820        1.46090
H          6.65020       -6.98260        0.45530
H          6.48520       -8.49290       -1.53020
H          6.96810       -9.86220       -0.52480
H          8.10290       -8.54150       -0.82030
H         -7.53970       -7.45050        0.04910
H         -7.08890       -5.93990       -0.73100
H         -7.80390       -5.54170        1.61690
H         -6.54140       -6.62920        2.20150
H         -6.10310       -5.11480        1.41430
H         -1.87970       -6.90850       -2.67350
H          4.96290       -5.21860       -3.43820
H          4.70370       -6.80470       -2.64510
H          6.40390       -6.98950       -4.47340
H          4.95270       -7.91870       -4.88340
H          5.23680       -6.33970       -5.63120
H         -4.94330       -3.99190       -7.35100
H         -4.83170       -5.49810       -6.38530
H         -4.97970       -4.12730       -4.29210
H         -6.40340       -3.87990       -5.31660
H         -5.12450       -2.65830       -5.27010
H         -1.93450       -1.31500       -8.93880
H         -6.74590        1.02040      -12.34690
H         -6.30110       -0.43300      -13.26330
H         -8.15280       -0.91240      -11.66930
H         -6.70540       -1.83040      -11.24050
H         -7.13740       -0.38640      -10.32060
H          2.41070        5.31390       -3.62480
H          3.98050        5.53150       -4.40360
H          1.44620        7.12790       -5.04210
H          2.80970        7.70460       -4.07510
H          3.02530        7.37290       -5.79700
H          0.20610        5.50160       -8.82290
H         -1.53240        6.22310      -10.62340
