
  xtb     03022216493D
 energy: -454.290830614992 gnorm: 0.000415866571 xtb: 6.4.1 (unknown)
232258  0     0  0            999 V2000
    2.1442   -3.3315   15.3934 C   0  0  0  0  0  0  0  0  0  0  0  0
    2.7706   -2.5354   14.5034 C   0  0  0  0  0  0  0  0  0  0  0  0
    2.3703   -2.7877   13.1590 C   0  0  0  0  0  0  0  0  0  0  0  0
    2.8278   -2.1739   11.9828 C   0  0  0  0  0  0  0  0  0  0  0  0
    3.9039   -1.1965   12.0039 C   0  0  0  0  0  0  0  0  0  0  0  0
    3.7406    0.3609   11.2497 S   0  0  0  0  0  0  0  0  0  0  0  0
    5.3522    0.8241   11.6789 C   0  0  0  0  0  0  0  0  0  0  0  0
    5.9159    2.1348   11.2541 C   0  0  0  0  0  0  0  0  0  0  0  0
    6.4504    2.0571    9.8219 C   0  0  0  0  0  0  0  0  0  0  0  0
    5.9711   -0.1843   12.3553 C   0  0  0  0  0  0  0  0  0  0  0  0
    7.5846   -0.1004   12.9350 Cl  0  0  0  0  0  0  0  0  0  0  0  0
    5.1523   -1.3297   12.5453 C   0  0  0  0  0  0  0  0  0  0  0  0
    5.7258   -2.7580   13.3062 Cl  0  0  0  0  0  0  0  0  0  0  0  0
    2.2323   -2.5704   10.7931 C   0  0  0  0  0  0  0  0  0  0  0  0
    1.2538   -3.5895   10.7195 C   0  0  0  0  0  0  0  0  0  0  0  0
    0.8025   -4.2115   11.8957 C   0  0  0  0  0  0  0  0  0  0  0  0
   -0.2248   -5.2400   11.8623 C   0  0  0  0  0  0  0  0  0  0  0  0
   -0.0467   -6.6748   10.8950 S   0  0  0  0  0  0  0  0  0  0  0  0
   -1.5725   -7.3090   11.4103 C   0  0  0  0  0  0  0  0  0  0  0  0
   -2.0987   -8.5927   10.8706 C   0  0  0  0  0  0  0  0  0  0  0  0
   -2.8177   -8.3688    9.5379 C   0  0  0  0  0  0  0  0  0  0  0  0
   -2.1768   -6.4428   12.2709 C   0  0  0  0  0  0  0  0  0  0  0  0
   -1.4147   -5.2726   12.5341 C   0  0  0  0  0  0  0  0  0  0  0  0
   -1.9964   -4.0041   13.5282 Cl  0  0  0  0  0  0  0  0  0  0  0  0
   -3.7123   -6.7192   12.9853 Cl  0  0  0  0  0  0  0  0  0  0  0  0
    1.3734   -3.7906   13.0911 C   0  0  0  0  0  0  0  0  0  0  0  0
    1.0172   -4.4264   14.6719 S   0  0  0  0  0  0  0  0  0  0  0  0
    0.8437   -3.8272    9.3862 C   0  0  0  0  0  0  0  0  0  0  0  0
    1.4838   -3.0563    8.4558 C   0  0  0  0  0  0  0  0  0  0  0  0
    2.6093   -1.9421    9.2166 S   0  0  0  0  0  0  0  0  0  0  0  0
    1.1576   -3.0192    7.0637 C   0  0  0  0  0  0  0  0  0  0  0  0
   -0.5091   -3.3535    6.7020 S   0  0  0  0  0  0  0  0  0  0  0  0
   -0.3081   -3.0519    5.0163 C   0  0  0  0  0  0  0  0  0  0  0  0
    1.0049   -2.6431    4.7484 C   0  0  0  0  0  0  0  0  0  0  0  0
    1.8630   -2.6833    5.9007 C   0  0  0  0  0  0  0  0  0  0  0  0
    3.2568   -2.4528    5.7120 C   0  0  0  0  0  0  0  0  0  0  0  0
    4.2820   -2.7455    6.7609 C   0  0  0  0  0  0  0  0  0  0  0  0
    3.6756   -1.9909    4.4915 C   0  0  0  0  0  0  0  0  0  0  0  0
    2.7924   -1.7660    3.4217 C   0  0  0  0  0  0  0  0  0  0  0  0
    1.4814   -2.1239    3.5263 C   0  0  0  0  0  0  0  0  0  0  0  0
   -1.3970   -3.2518    4.1238 C   0  0  0  0  0  0  0  0  0  0  0  0
   -1.2535   -3.6060    2.8266 C   0  0  0  0  0  0  0  0  0  0  0  0
   -2.2985   -3.6960    1.8685 C   0  0  0  0  0  0  0  0  0  0  0  0
   -2.1317   -4.0375    0.5539 C   0  0  0  0  0  0  0  0  0  0  0  0
   -3.2954   -3.8895   -0.2312 C   0  0  0  0  0  0  0  0  0  0  0  0
   -3.4270   -4.0676   -1.6219 C   0  0  0  0  0  0  0  0  0  0  0  0
   -2.2849   -4.4095   -2.4518 C   0  0  0  0  0  0  0  0  0  0  0  0
   -0.7985   -3.5095   -2.3230 S   0  0  0  0  0  0  0  0  0  0  0  0
   -0.0567   -4.3851   -3.6165 C   0  0  0  0  0  0  0  0  0  0  0  0
    1.3120   -4.0402   -4.0906 C   0  0  0  0  0  0  0  0  0  0  0  0
    1.2605   -2.9399   -5.1531 C   0  0  0  0  0  0  0  0  0  0  0  0
   -0.9233   -5.3118   -4.1142 C   0  0  0  0  0  0  0  0  0  0  0  0
   -0.5431   -6.3772   -5.4044 Cl  0  0  0  0  0  0  0  0  0  0  0  0
   -2.1860   -5.3270   -3.4603 C   0  0  0  0  0  0  0  0  0  0  0  0
   -3.4211   -6.4428   -3.8670 Cl  0  0  0  0  0  0  0  0  0  0  0  0
   -4.6539   -3.7376   -2.1824 C   0  0  0  0  0  0  0  0  0  0  0  0
   -5.7387   -3.2414   -1.4182 C   0  0  0  0  0  0  0  0  0  0  0  0
   -5.6310   -3.1397   -0.0176 C   0  0  0  0  0  0  0  0  0  0  0  0
   -6.7480   -2.6384    0.7611 C   0  0  0  0  0  0  0  0  0  0  0  0
   -6.5711   -1.3168    1.8771 S   0  0  0  0  0  0  0  0  0  0  0  0
   -8.2589   -1.3141    2.2615 C   0  0  0  0  0  0  0  0  0  0  0  0
   -8.8341   -0.2942    3.1806 C   0  0  0  0  0  0  0  0  0  0  0  0
   -9.0066    1.0474    2.4639 C   0  0  0  0  0  0  0  0  0  0  0  0
   -8.9070   -2.2893    1.5634 C   0  0  0  0  0  0  0  0  0  0  0  0
   -8.0547   -3.0409    0.7109 C   0  0  0  0  0  0  0  0  0  0  0  0
   -8.6168   -4.3586   -0.2334 Cl  0  0  0  0  0  0  0  0  0  0  0  0
  -10.5902   -2.6008    1.6859 Cl  0  0  0  0  0  0  0  0  0  0  0  0
   -4.3973   -3.4434    0.5406 C   0  0  0  0  0  0  0  0  0  0  0  0
   -3.9578   -3.2419    2.2146 S   0  0  0  0  0  0  0  0  0  0  0  0
   -6.7416   -2.6671   -2.2376 C   0  0  0  0  0  0  0  0  0  0  0  0
   -6.4504   -2.7059   -3.5697 C   0  0  0  0  0  0  0  0  0  0  0  0
   -4.9727   -3.6042   -3.8903 S   0  0  0  0  0  0  0  0  0  0  0  0
   -6.9391   -1.8253   -4.5813 C   0  0  0  0  0  0  0  0  0  0  0  0
   -6.5032   -1.7268   -5.8708 C   0  0  0  0  0  0  0  0  0  0  0  0
   -6.6344   -0.4224   -6.4125 C   0  0  0  0  0  0  0  0  0  0  0  0
   -5.9511    0.0753   -7.5443 C   0  0  0  0  0  0  0  0  0  0  0  0
   -5.4967   -0.8310   -8.5729 C   0  0  0  0  0  0  0  0  0  0  0  0
   -3.9457   -0.6901   -9.3490 S   0  0  0  0  0  0  0  0  0  0  0  0
   -4.2346   -2.0673  -10.3551 C   0  0  0  0  0  0  0  0  0  0  0  0
   -3.2376   -2.4998  -11.3720 C   0  0  0  0  0  0  0  0  0  0  0  0
   -3.4040   -1.7040  -12.6689 C   0  0  0  0  0  0  0  0  0  0  0  0
   -5.4713   -2.5868  -10.1082 C   0  0  0  0  0  0  0  0  0  0  0  0
   -6.1191   -3.9466  -10.9306 Cl  0  0  0  0  0  0  0  0  0  0  0  0
   -6.1864   -1.8974   -9.0955 C   0  0  0  0  0  0  0  0  0  0  0  0
   -7.7872   -2.3280   -8.6562 Cl  0  0  0  0  0  0  0  0  0  0  0  0
   -5.6358    1.4300   -7.5074 C   0  0  0  0  0  0  0  0  0  0  0  0
   -6.1496    2.3157   -6.5260 C   0  0  0  0  0  0  0  0  0  0  0  0
   -7.0531    1.8502   -5.5525 C   0  0  0  0  0  0  0  0  0  0  0  0
   -7.5831    2.6812   -4.4856 C   0  0  0  0  0  0  0  0  0  0  0  0
   -6.5644    3.6888   -3.4936 S   0  0  0  0  0  0  0  0  0  0  0  0
   -7.8666    4.1076   -2.4346 C   0  0  0  0  0  0  0  0  0  0  0  0
   -7.6378    4.9618   -1.2381 C   0  0  0  0  0  0  0  0  0  0  0  0
   -7.1640    4.1153   -0.0538 C   0  0  0  0  0  0  0  0  0  0  0  0
   -9.0159    3.4956   -2.8355 C   0  0  0  0  0  0  0  0  0  0  0  0
   -8.8584    2.6834   -3.9907 C   0  0  0  0  0  0  0  0  0  0  0  0
  -10.1634    1.8397   -4.7119 Cl  0  0  0  0  0  0  0  0  0  0  0  0
  -10.5211    3.6701   -2.0316 Cl  0  0  0  0  0  0  0  0  0  0  0  0
   -7.2183    0.4716   -5.4864 C   0  0  0  0  0  0  0  0  0  0  0  0
   -7.7735   -0.3658   -4.0604 S   0  0  0  0  0  0  0  0  0  0  0  0
   -5.4336    3.5358   -6.4873 C   0  0  0  0  0  0  0  0  0  0  0  0
   -4.3456    3.5491   -7.3127 C   0  0  0  0  0  0  0  0  0  0  0  0
   -4.3478    2.1795   -8.4162 S   0  0  0  0  0  0  0  0  0  0  0  0
   -3.0981    4.1770   -6.9887 C   0  0  0  0  0  0  0  0  0  0  0  0
   -2.7442    4.3775   -5.6838 C   0  0  0  0  0  0  0  0  0  0  0  0
   -1.3485    4.4323   -5.4767 C   0  0  0  0  0  0  0  0  0  0  0  0
   -0.6969    4.3359   -4.2329 C   0  0  0  0  0  0  0  0  0  0  0  0
   -1.4527    4.4884   -3.0060 C   0  0  0  0  0  0  0  0  0  0  0  0
   -1.3427    3.3437   -1.7010 S   0  0  0  0  0  0  0  0  0  0  0  0
   -2.5390    4.1747   -0.7659 C   0  0  0  0  0  0  0  0  0  0  0  0
   -2.9195    3.6998    0.5927 C   0  0  0  0  0  0  0  0  0  0  0  0
   -1.8433    4.0582    1.6200 C   0  0  0  0  0  0  0  0  0  0  0  0
   -2.9759    5.2810   -1.4316 C   0  0  0  0  0  0  0  0  0  0  0  0
   -4.1501    6.3680   -0.8164 Cl  0  0  0  0  0  0  0  0  0  0  0  0
   -2.3706    5.4596   -2.7028 C   0  0  0  0  0  0  0  0  0  0  0  0
   -2.7179    6.8108   -3.7021 Cl  0  0  0  0  0  0  0  0  0  0  0  0
    0.6443    3.9769   -4.2722 C   0  0  0  0  0  0  0  0  0  0  0  0
    1.3803    3.9030   -5.4793 C   0  0  0  0  0  0  0  0  0  0  0  0
    0.7542    4.1585   -6.7164 C   0  0  0  0  0  0  0  0  0  0  0  0
    1.5199    4.1672   -7.9471 C   0  0  0  0  0  0  0  0  0  0  0  0
    0.9934    3.3214   -9.3726 S   0  0  0  0  0  0  0  0  0  0  0  0
    2.3730    3.8339  -10.2819 C   0  0  0  0  0  0  0  0  0  0  0  0
    2.5838    3.3808  -11.6840 C   0  0  0  0  0  0  0  0  0  0  0  0
    3.2865    2.0214  -11.7201 C   0  0  0  0  0  0  0  0  0  0  0  0
    3.1870    4.6123   -9.5132 C   0  0  0  0  0  0  0  0  0  0  0  0
    2.7068    4.8070   -8.1916 C   0  0  0  0  0  0  0  0  0  0  0  0
    3.5117    5.8221   -7.0651 Cl  0  0  0  0  0  0  0  0  0  0  0  0
    4.6515    5.3106  -10.0729 Cl  0  0  0  0  0  0  0  0  0  0  0  0
   -0.6271    4.3194   -6.6886 C   0  0  0  0  0  0  0  0  0  0  0  0
   -1.7123    4.2296   -8.0559 S   0  0  0  0  0  0  0  0  0  0  0  0
    2.6883    3.3935   -5.2627 C   0  0  0  0  0  0  0  0  0  0  0  0
    2.9335    3.0670   -3.9655 C   0  0  0  0  0  0  0  0  0  0  0  0
    1.5918    3.4523   -2.9116 S   0  0  0  0  0  0  0  0  0  0  0  0
    4.0945    2.3921   -3.4515 C   0  0  0  0  0  0  0  0  0  0  0  0
    5.3969    2.6305   -3.7504 C   0  0  0  0  0  0  0  0  0  0  0  0
    6.2943    1.7254   -3.1224 C   0  0  0  0  0  0  0  0  0  0  0  0
    7.6962    1.7154   -3.1855 C   0  0  0  0  0  0  0  0  0  0  0  0
    8.4240    2.7868   -3.8436 C   0  0  0  0  0  0  0  0  0  0  0  0
    9.6373    2.4716   -5.0473 S   0  0  0  0  0  0  0  0  0  0  0  0
    9.9676    4.1556   -5.2670 C   0  0  0  0  0  0  0  0  0  0  0  0
   11.0325    4.6173   -6.1990 C   0  0  0  0  0  0  0  0  0  0  0  0
   12.4005    4.5936   -5.5129 C   0  0  0  0  0  0  0  0  0  0  0  0
    9.1857    4.9051   -4.4390 C   0  0  0  0  0  0  0  0  0  0  0  0
    9.2405    6.6187   -4.3614 Cl  0  0  0  0  0  0  0  0  0  0  0  0
    8.3039    4.1339   -3.6361 C   0  0  0  0  0  0  0  0  0  0  0  0
    7.2615    4.8409   -2.4699 Cl  0  0  0  0  0  0  0  0  0  0  0  0
    8.3452    0.6490   -2.5748 C   0  0  0  0  0  0  0  0  0  0  0  0
    7.6578   -0.3782   -1.8866 C   0  0  0  0  0  0  0  0  0  0  0  0
    6.2595   -0.3265   -1.7590 C   0  0  0  0  0  0  0  0  0  0  0  0
    5.5488   -1.3756   -1.0428 C   0  0  0  0  0  0  0  0  0  0  0  0
    4.3022   -2.3140   -1.8138 S   0  0  0  0  0  0  0  0  0  0  0  0
    4.1372   -3.3622   -0.4469 C   0  0  0  0  0  0  0  0  0  0  0  0
    3.1682   -4.4929   -0.4273 C   0  0  0  0  0  0  0  0  0  0  0  0
    1.8655   -4.0981    0.2706 C   0  0  0  0  0  0  0  0  0  0  0  0
    4.9808   -2.9764    0.5520 C   0  0  0  0  0  0  0  0  0  0  0  0
    5.7805   -1.8506    0.2183 C   0  0  0  0  0  0  0  0  0  0  0  0
    6.8780   -1.1360    1.3284 Cl  0  0  0  0  0  0  0  0  0  0  0  0
    5.1106   -3.7979    2.0538 Cl  0  0  0  0  0  0  0  0  0  0  0  0
    5.6094    0.7298   -2.3845 C   0  0  0  0  0  0  0  0  0  0  0  0
    3.8925    1.0156   -2.3828 S   0  0  0  0  0  0  0  0  0  0  0  0
    8.5562   -1.3777   -1.4086 C   0  0  0  0  0  0  0  0  0  0  0  0
    9.8458   -1.0971   -1.6839 C   0  0  0  0  0  0  0  0  0  0  0  0
   10.0656    0.3838   -2.5496 S   0  0  0  0  0  0  0  0  0  0  0  0
    2.2627   -3.3487   16.4592 H   0  0  0  0  0  0  0  0  0  0  0  0
    3.4865   -1.7827   14.7774 H   0  0  0  0  0  0  0  0  0  0  0  0
    5.1398    2.8999   11.3107 H   0  0  0  0  0  0  0  0  0  0  0  0
    6.7260    2.4053   11.9337 H   0  0  0  0  0  0  0  0  0  0  0  0
    5.6506    1.7896    9.1354 H   0  0  0  0  0  0  0  0  0  0  0  0
    6.8609    3.0180    9.5238 H   0  0  0  0  0  0  0  0  0  0  0  0
    7.2340    1.3067    9.7527 H   0  0  0  0  0  0  0  0  0  0  0  0
   -1.2739   -9.2925   10.7261 H   0  0  0  0  0  0  0  0  0  0  0  0
   -2.7960   -9.0168   11.5954 H   0  0  0  0  0  0  0  0  0  0  0  0
   -3.2026   -9.3113    9.1584 H   0  0  0  0  0  0  0  0  0  0  0  0
   -2.1322   -7.9504    8.8045 H   0  0  0  0  0  0  0  0  0  0  0  0
   -3.6487   -7.6804    9.6695 H   0  0  0  0  0  0  0  0  0  0  0  0
    0.1062   -4.5617    9.1169 H   0  0  0  0  0  0  0  0  0  0  0  0
    3.9734   -3.5748    7.3921 H   0  0  0  0  0  0  0  0  0  0  0  0
    4.4555   -1.8755    7.3930 H   0  0  0  0  0  0  0  0  0  0  0  0
    5.2259   -3.0027    6.2843 H   0  0  0  0  0  0  0  0  0  0  0  0
    4.7268   -1.7916    4.3431 H   0  0  0  0  0  0  0  0  0  0  0  0
    3.1704   -1.3399    2.5042 H   0  0  0  0  0  0  0  0  0  0  0  0
    0.7974   -1.9781    2.7059 H   0  0  0  0  0  0  0  0  0  0  0  0
   -2.3936   -3.1506    4.5359 H   0  0  0  0  0  0  0  0  0  0  0  0
   -0.2706   -3.8339    2.4396 H   0  0  0  0  0  0  0  0  0  0  0  0
   -1.1864   -4.3616    0.1615 H   0  0  0  0  0  0  0  0  0  0  0  0
    1.7751   -4.9343   -4.5122 H   0  0  0  0  0  0  0  0  0  0  0  0
    1.9137   -3.6901   -3.2500 H   0  0  0  0  0  0  0  0  0  0  0  0
    0.6767   -3.2675   -6.0094 H   0  0  0  0  0  0  0  0  0  0  0  0
    2.2665   -2.6987   -5.4849 H   0  0  0  0  0  0  0  0  0  0  0  0
    0.8048   -2.0421   -4.7427 H   0  0  0  0  0  0  0  0  0  0  0  0
   -8.1727   -0.1630    4.0391 H   0  0  0  0  0  0  0  0  0  0  0  0
   -9.8027   -0.6498    3.5353 H   0  0  0  0  0  0  0  0  0  0  0  0
   -8.0434    1.4112    2.1129 H   0  0  0  0  0  0  0  0  0  0  0  0
   -9.6699    0.9361    1.6097 H   0  0  0  0  0  0  0  0  0  0  0  0
   -9.4327    1.7817    3.1421 H   0  0  0  0  0  0  0  0  0  0  0  0
   -7.5984   -2.1454   -1.8503 H   0  0  0  0  0  0  0  0  0  0  0  0
   -5.9638   -2.5179   -6.3608 H   0  0  0  0  0  0  0  0  0  0  0  0
   -2.2309   -2.3474  -10.9795 H   0  0  0  0  0  0  0  0  0  0  0  0
   -3.3799   -3.5630  -11.5738 H   0  0  0  0  0  0  0  0  0  0  0  0
   -3.2643   -0.6424  -12.4794 H   0  0  0  0  0  0  0  0  0  0  0  0
   -4.3988   -1.8567  -13.0795 H   0  0  0  0  0  0  0  0  0  0  0  0
   -2.6709   -2.0285  -13.4025 H   0  0  0  0  0  0  0  0  0  0  0  0
   -6.8834    5.7155   -1.4678 H   0  0  0  0  0  0  0  0  0  0  0  0
   -8.5713    5.4646   -0.9796 H   0  0  0  0  0  0  0  0  0  0  0  0
   -6.2411    3.5981   -0.3072 H   0  0  0  0  0  0  0  0  0  0  0  0
   -6.9847    4.7512    0.8089 H   0  0  0  0  0  0  0  0  0  0  0  0
   -7.9183    3.3768    0.2065 H   0  0  0  0  0  0  0  0  0  0  0  0
   -5.6395    4.3225   -5.7867 H   0  0  0  0  0  0  0  0  0  0  0  0
   -3.4536    4.3253   -4.8788 H   0  0  0  0  0  0  0  0  0  0  0  0
   -3.8655    4.1662    0.8732 H   0  0  0  0  0  0  0  0  0  0  0  0
   -3.0543    2.6164    0.5748 H   0  0  0  0  0  0  0  0  0  0  0  0
   -1.7088    5.1360    1.6655 H   0  0  0  0  0  0  0  0  0  0  0  0
   -2.1339    3.7014    2.6042 H   0  0  0  0  0  0  0  0  0  0  0  0
   -0.8955    3.6005    1.3474 H   0  0  0  0  0  0  0  0  0  0  0  0
    3.1940    4.1213  -12.2043 H   0  0  0  0  0  0  0  0  0  0  0  0
    1.6188    3.3042  -12.1874 H   0  0  0  0  0  0  0  0  0  0  0  0
    2.6874    1.2742  -11.2051 H   0  0  0  0  0  0  0  0  0  0  0  0
    3.4328    1.7044  -12.7490 H   0  0  0  0  0  0  0  0  0  0  0  0
    4.2566    2.0857  -11.2339 H   0  0  0  0  0  0  0  0  0  0  0  0
    3.3890    3.1950   -6.0525 H   0  0  0  0  0  0  0  0  0  0  0  0
    5.7103    3.4285   -4.3977 H   0  0  0  0  0  0  0  0  0  0  0  0
   10.8012    5.6344   -6.5203 H   0  0  0  0  0  0  0  0  0  0  0  0
   11.0544    3.9682   -7.0759 H   0  0  0  0  0  0  0  0  0  0  0  0
   13.1696    4.9320   -6.2018 H   0  0  0  0  0  0  0  0  0  0  0  0
   12.6410    3.5845   -5.1868 H   0  0  0  0  0  0  0  0  0  0  0  0
   12.3976    5.2479   -4.6448 H   0  0  0  0  0  0  0  0  0  0  0  0
    3.6226   -5.3284    0.1099 H   0  0  0  0  0  0  0  0  0  0  0  0
    2.9579   -4.8114   -1.4489 H   0  0  0  0  0  0  0  0  0  0  0  0
    2.0698   -3.7960    1.2949 H   0  0  0  0  0  0  0  0  0  0  0  0
    1.3864   -3.2728   -0.2517 H   0  0  0  0  0  0  0  0  0  0  0  0
    1.1878   -4.9480    0.2835 H   0  0  0  0  0  0  0  0  0  0  0  0
    8.2384   -2.2665   -0.8960 H   0  0  0  0  0  0  0  0  0  0  0  0
   10.7126   -1.6778   -1.4360 H   0  0  0  0  0  0  0  0  0  0  0  0
  1  2  2  0  0  0  0
  2  3  1  0  0  0  0
  3  4  2  0  0  0  0
  4  5  1  0  0  0  0
  5  6  1  0  0  0  0
  6  7  1  0  0  0  0
  7  8  1  0  0  0  0
  8  9  1  0  0  0  0
  7 10  2  0  0  0  0
 10 11  1  0  0  0  0
 10 12  1  0  0  0  0
 12 13  1  0  0  0  0
  4 14  1  0  0  0  0
 14 15  2  0  0  0  0
 15 16  1  0  0  0  0
 16 17  1  0  0  0  0
 17 18  1  0  0  0  0
 18 19  1  0  0  0  0
 19 20  1  0  0  0  0
 20 21  1  0  0  0  0
 19 22  2  0  0  0  0
 22 23  1  0  0  0  0
 23 24  1  0  0  0  0
 22 25  1  0  0  0  0
 16 26  2  0  0  0  0
 26 27  1  0  0  0  0
 15 28  1  0  0  0  0
 28 29  2  0  0  0  0
 29 30  1  0  0  0  0
 29 31  1  0  0  0  0
 31 32  1  0  0  0  0
 32 33  1  0  0  0  0
 33 34  2  0  0  0  0
 34 35  1  0  0  0  0
 35 36  1  0  0  0  0
 36 37  1  0  0  0  0
 36 38  2  0  0  0  0
 38 39  1  0  0  0  0
 39 40  2  0  0  0  0
 33 41  1  0  0  0  0
 41 42  2  0  0  0  0
 42 43  1  0  0  0  0
 43 44  2  0  0  0  0
 44 45  1  0  0  0  0
 45 46  2  0  0  0  0
 46 47  1  0  0  0  0
 47 48  1  0  0  0  0
 48 49  1  0  0  0  0
 49 50  1  0  0  0  0
 50 51  1  0  0  0  0
 49 52  2  0  0  0  0
 52 53  1  0  0  0  0
 52 54  1  0  0  0  0
 54 55  1  0  0  0  0
 46 56  1  0  0  0  0
 56 57  2  0  0  0  0
 57 58  1  0  0  0  0
 58 59  1  0  0  0  0
 59 60  1  0  0  0  0
 60 61  1  0  0  0  0
 61 62  1  0  0  0  0
 62 63  1  0  0  0  0
 61 64  2  0  0  0  0
 64 65  1  0  0  0  0
 65 66  1  0  0  0  0
 64 67  1  0  0  0  0
 58 68  2  0  0  0  0
 68 69  1  0  0  0  0
 57 70  1  0  0  0  0
 70 71  2  0  0  0  0
 71 72  1  0  0  0  0
 71 73  1  0  0  0  0
 73 74  2  0  0  0  0
 74 75  1  0  0  0  0
 75 76  2  0  0  0  0
 76 77  1  0  0  0  0
 77 78  1  0  0  0  0
 78 79  1  0  0  0  0
 79 80  1  0  0  0  0
 80 81  1  0  0  0  0
 79 82  2  0  0  0  0
 82 83  1  0  0  0  0
 82 84  1  0  0  0  0
 84 85  1  0  0  0  0
 76 86  1  0  0  0  0
 86 87  2  0  0  0  0
 87 88  1  0  0  0  0
 88 89  1  0  0  0  0
 89 90  1  0  0  0  0
 90 91  1  0  0  0  0
 91 92  1  0  0  0  0
 92 93  1  0  0  0  0
 91 94  2  0  0  0  0
 94 95  1  0  0  0  0
 95 96  1  0  0  0  0
 94 97  1  0  0  0  0
 88 98  2  0  0  0  0
 98 99  1  0  0  0  0
 87100  1  0  0  0  0
100101  2  0  0  0  0
101102  1  0  0  0  0
101103  1  0  0  0  0
103104  2  0  0  0  0
104105  1  0  0  0  0
105106  2  0  0  0  0
106107  1  0  0  0  0
107108  1  0  0  0  0
108109  1  0  0  0  0
109110  1  0  0  0  0
110111  1  0  0  0  0
109112  2  0  0  0  0
112113  1  0  0  0  0
112114  1  0  0  0  0
114115  1  0  0  0  0
106116  1  0  0  0  0
116117  2  0  0  0  0
117118  1  0  0  0  0
118119  1  0  0  0  0
119120  1  0  0  0  0
120121  1  0  0  0  0
121122  1  0  0  0  0
122123  1  0  0  0  0
121124  2  0  0  0  0
124125  1  0  0  0  0
125126  1  0  0  0  0
124127  1  0  0  0  0
118128  2  0  0  0  0
128129  1  0  0  0  0
117130  1  0  0  0  0
130131  2  0  0  0  0
131132  1  0  0  0  0
131133  1  0  0  0  0
133134  2  0  0  0  0
134135  1  0  0  0  0
135136  2  0  0  0  0
136137  1  0  0  0  0
137138  1  0  0  0  0
138139  1  0  0  0  0
139140  1  0  0  0  0
140141  1  0  0  0  0
139142  2  0  0  0  0
142143  1  0  0  0  0
142144  1  0  0  0  0
144145  1  0  0  0  0
136146  1  0  0  0  0
146147  2  0  0  0  0
147148  1  0  0  0  0
148149  1  0  0  0  0
149150  1  0  0  0  0
150151  1  0  0  0  0
151152  1  0  0  0  0
152153  1  0  0  0  0
151154  2  0  0  0  0
154155  1  0  0  0  0
155156  1  0  0  0  0
154157  1  0  0  0  0
148158  2  0  0  0  0
158159  1  0  0  0  0
147160  1  0  0  0  0
160161  2  0  0  0  0
161162  1  0  0  0  0
 27  1  1  0  0  0  0
 35 31  2  0  0  0  0
 69 43  1  0  0  0  0
 99 73  1  0  0  0  0
129103  1  0  0  0  0
159133  1  0  0  0  0
 26  3  1  0  0  0  0
 40 34  1  0  0  0  0
 68 45  1  0  0  0  0
 98 75  1  0  0  0  0
128105  1  0  0  0  0
158135  1  0  0  0  0
 12  5  2  0  0  0  0
 30 14  1  0  0  0  0
 54 47  2  0  0  0  0
 72 56  1  0  0  0  0
 84 77  2  0  0  0  0
102 86  1  0  0  0  0
114107  2  0  0  0  0
132116  1  0  0  0  0
144137  2  0  0  0  0
162146  1  0  0  0  0
 23 17  2  0  0  0  0
 65 59  2  0  0  0  0
 95 89  2  0  0  0  0
125119  2  0  0  0  0
155149  2  0  0  0  0
  1163  1  0  0  0  0
  2164  1  0  0  0  0
  8165  1  0  0  0  0
  8166  1  0  0  0  0
  9167  1  0  0  0  0
  9168  1  0  0  0  0
  9169  1  0  0  0  0
 20170  1  0  0  0  0
 20171  1  0  0  0  0
 21172  1  0  0  0  0
 21173  1  0  0  0  0
 21174  1  0  0  0  0
 28175  1  0  0  0  0
 37176  1  0  0  0  0
 37177  1  0  0  0  0
 37178  1  0  0  0  0
 38179  1  0  0  0  0
 39180  1  0  0  0  0
 40181  1  0  0  0  0
 41182  1  0  0  0  0
 42183  1  0  0  0  0
 44184  1  0  0  0  0
 50185  1  0  0  0  0
 50186  1  0  0  0  0
 51187  1  0  0  0  0
 51188  1  0  0  0  0
 51189  1  0  0  0  0
 62190  1  0  0  0  0
 62191  1  0  0  0  0
 63192  1  0  0  0  0
 63193  1  0  0  0  0
 63194  1  0  0  0  0
 70195  1  0  0  0  0
 74196  1  0  0  0  0
 80197  1  0  0  0  0
 80198  1  0  0  0  0
 81199  1  0  0  0  0
 81200  1  0  0  0  0
 81201  1  0  0  0  0
 92202  1  0  0  0  0
 92203  1  0  0  0  0
 93204  1  0  0  0  0
 93205  1  0  0  0  0
 93206  1  0  0  0  0
100207  1  0  0  0  0
104208  1  0  0  0  0
110209  1  0  0  0  0
110210  1  0  0  0  0
111211  1  0  0  0  0
111212  1  0  0  0  0
111213  1  0  0  0  0
122214  1  0  0  0  0
122215  1  0  0  0  0
123216  1  0  0  0  0
123217  1  0  0  0  0
123218  1  0  0  0  0
130219  1  0  0  0  0
134220  1  0  0  0  0
140221  1  0  0  0  0
140222  1  0  0  0  0
141223  1  0  0  0  0
141224  1  0  0  0  0
141225  1  0  0  0  0
152226  1  0  0  0  0
152227  1  0  0  0  0
153228  1  0  0  0  0
153229  1  0  0  0  0
153230  1  0  0  0  0
160231  1  0  0  0  0
161232  1  0  0  0  0
M  END
