229

C          2.65240      -12.61070        4.61340
C          2.80120      -12.22240        3.33100
C          1.65390      -11.54770        2.81900
C          1.44960      -11.03600        1.52680
C          2.50030      -11.06780        0.52240
S          2.22740      -11.75350       -1.05100
C          3.83880      -11.39750       -1.57060
C          4.28500      -11.70550       -2.95710
C          3.84740      -10.60370       -3.92530
C          4.53050      -10.77160       -0.57690
Cl         6.15960      -10.25130       -0.72430
C          3.77710      -10.58780        0.61350
Cl         4.40280       -9.76950        1.98720
C          0.20280      -10.48830        1.25370
C         -0.82120      -10.40830        2.22620
C         -0.62320      -10.92470        3.51710
C         -1.70510      -10.88510        4.48680
S         -1.50730      -10.17460        6.06050
C         -3.16350      -10.44930        6.47930
C         -3.72740       -9.97660        7.77360
C         -4.31500       -8.57030        7.62740
C         -3.81780      -11.06010        5.45110
C         -2.99500      -11.31240        4.32260
Cl        -3.57220      -12.14240        2.93340
Cl        -5.47620      -11.49170        5.49620
C          0.62410      -11.47060        3.78760
S          1.11360      -12.20020        5.29030
C         -1.96830       -9.74680        1.73130
C         -1.86240       -9.37160        0.42500
S         -0.30130       -9.77310       -0.25480
C         -2.90800       -8.73550       -0.31130
C         -4.21850       -8.73230        0.06140
C         -5.04500       -7.94570       -0.77370
C         -6.39880       -7.63800       -0.56330
C         -7.05480       -8.07590        0.65780
S         -8.53280       -8.98820        0.64410
C         -8.55040       -9.13230        2.36900
C         -9.59340       -9.92570        3.07570
C         -9.12670      -11.36870        3.28590
C         -7.47040       -8.49950        2.90880
Cl        -7.14640       -8.43120        4.59060
C         -6.62310       -7.89520        1.94420
Cl        -5.24080       -6.97390        2.38210
C         -7.01770       -6.85000       -1.52100
C         -6.31670       -6.32730       -2.63250
C         -4.93650       -6.54950       -2.78990
C         -4.19170       -5.80650       -3.79130
S         -4.44720       -4.08760       -3.93690
C         -3.25630       -3.92780       -5.18090
C         -2.94160       -2.61380       -5.81030
C         -4.05400       -1.59160       -5.61650
C         -2.69830       -5.14180       -5.45080
C         -3.22230       -6.20690       -4.66900
Cl        -2.73140       -7.83270       -4.90430
Cl        -1.47340       -5.37960       -6.63100
C         -4.32940       -7.38940       -1.86170
S         -2.64290       -7.82320       -1.77730
C         -7.15500       -5.50300       -3.42700
C         -8.38640       -5.32020       -2.89520
S         -8.64990       -6.25720       -1.45700
C         -9.37050       -4.30870       -3.37870
S        -10.86820       -4.23830       -2.32120
C        -10.48680       -2.59140       -1.63400
C         -9.02410       -2.27460       -1.96550
C         -8.77290       -2.89880       -3.35000
C         -8.09880       -2.85130       -0.86450
O         -7.27490       -3.70990       -1.06060
N         -8.33000       -2.31180        0.34780
N         -8.83420       -0.83500       -1.95530
C         -7.58930       -0.25860       -2.03970
C         -6.34930       -0.81110       -2.00100
C         -5.30680        0.15490       -1.93770
C         -3.92920       -0.07260       -1.78600
C         -3.39160       -1.40740       -1.58420
S         -2.02200       -1.98160       -2.48840
C         -2.02710       -3.51250       -1.68660
C         -1.04070       -4.58000       -2.01200
C          0.01530       -4.13000       -3.01000
C         -3.02920       -3.55760       -0.76180
Cl        -3.35510       -4.92340        0.22540
C         -3.79200       -2.36370       -0.69180
Cl        -4.99620       -2.12290        0.49330
C         -3.10150        1.04640       -1.78150
C         -3.59590        2.36680       -1.87220
C         -4.97910        2.59870       -1.99910
C         -5.50380        3.95190       -2.08110
S         -5.07190        5.16240       -0.90700
C         -6.02290        6.38010       -1.68740
C         -6.10970        7.75810       -1.13180
C         -7.01840        7.80400        0.09810
C         -6.64280        5.86060       -2.78370
C         -6.34790        4.48910       -3.01250
Cl        -6.93120        3.64800       -4.38600
Cl        -7.67420        6.76030       -3.81980
C         -5.79720        1.48090       -2.02230
S         -7.54070        1.49750       -2.07530
C         -2.55850        3.32540       -1.79500
C         -1.32200        2.77680       -1.62560
S         -1.37070        1.02900       -1.59320
C         -0.11180        3.51560       -1.44560
C         -0.03930        4.79530       -0.98050
C          1.27850        5.30680       -0.92990
C          1.69360        6.57310       -0.47820
C          0.71990        7.57490       -0.08220
S          0.85460        8.41570        1.43380
C         -0.60270        9.30690        1.16070
C         -1.07590       10.32780        2.13530
C         -0.35100       11.65890        1.92150
C         -1.14200        8.97250       -0.04540
Cl        -2.59170        9.64820       -0.66610
C         -0.39800        7.99220       -0.75350
Cl        -0.83930        7.47870       -2.33280
C          3.06190        6.80340       -0.42910
C          4.01240        5.84810       -0.86590
C          3.59730        4.58230       -1.31880
C          4.57130        3.58060       -1.71700
S          4.45650        2.76680       -3.24930
C          5.90310        1.86140       -2.96670
C          6.45350        0.93840       -3.99700
C          7.38900        1.68280       -4.95310
C          6.43180        2.18270       -1.75210
C          5.67720        3.14870       -1.03540
Cl         6.09400        3.63510        0.55980
Cl         7.87220        1.49410       -1.12530
C          2.23050        4.34500       -1.34870
S          1.46320        2.85300       -1.81730
C          5.33280        6.34580       -0.78730
C          5.41510        7.60260       -0.26120
S          3.83910        8.26510        0.11170
C          6.62270        8.30740        0.02810
C          7.88710        7.85310       -0.21160
C          8.90060        8.71950        0.25900
C         10.29040        8.51540        0.22130
C         10.84960        7.29930       -0.34650
S         10.29870        5.73100        0.17360
C         11.36690        4.90510       -0.90830
C         11.41790        3.41810       -0.94960
C         12.23150        2.86070        0.22020
C         12.10930        5.80400       -1.61390
Cl        13.28090        5.36630       -2.78920
C         11.81770        7.16000       -1.30170
Cl        12.55460        8.46720       -2.12880
C         11.08420        9.50980        0.78000
C         10.54860       10.68670        1.35860
C          9.16000       10.89360        1.38440
C          8.57610       12.08130        1.98810
S          8.94150       12.53580        3.62690
C          7.89460       13.91220        3.56410
C          7.69450       14.78610        4.75270
C          6.60410       14.22440        5.66820
C          7.29780       13.99550        2.34200
C          7.68250       12.96200        1.44540
Cl         7.13090       12.90100       -0.17580
Cl         6.19280       15.23160        1.90040
C          8.36290        9.89590        0.83620
S          6.62220        9.86580        0.82090
C         11.57660       11.53370        1.86620
C         12.81020       11.01140        1.71010
S         12.81760        9.47140        0.92670
H          3.35930      -13.13050        5.23010
H          3.68450      -12.41320        2.75030
H          5.37310      -11.79110       -2.96520
H          3.85560      -12.65760       -3.27350
H          2.76430      -10.50800       -3.92230
H          4.28100       -9.65080       -3.63240
H          4.17540      -10.84090       -4.93370
H         -4.51210      -10.66690        8.09040
H         -2.94090       -9.96830        8.52970
H         -3.54360       -7.86870        7.31920
H         -5.10460       -8.56730        6.88060
H         -4.73110       -8.23890        8.57490
H         -2.82750       -9.52370        2.33420
H         -4.59120       -9.29350        0.89730
H         -9.79220       -9.46440        4.04560
H        -10.51280       -9.91910        2.48860
H         -8.93100      -11.84540        2.32850
H         -8.21410      -11.38760        3.87600
H         -9.89100      -11.93640        3.80960
H         -2.75770       -2.77800       -6.87490
H         -2.01610       -2.22270       -5.37560
H         -4.21500       -1.40160       -4.55800
H         -3.78900       -0.65360       -6.09680
H         -4.98460       -1.95300       -6.04810
H         -6.84000       -5.03650       -4.34210
H         -9.70560       -4.56690       -4.38770
H        -10.69060       -2.61690       -0.56580
H        -11.15210       -1.86710       -2.10960
H         -9.26670       -2.27160       -4.09630
H         -7.70590       -2.93330       -3.56590
H         -8.87740       -1.47480        0.44910
H         -7.70320       -2.56620        1.09500
H         -9.57480       -0.29720       -2.38570
H         -6.15160       -1.86440       -2.03110
H         -0.56520       -4.90570       -1.08200
H         -1.57710       -5.44630       -2.41130
H          0.55610       -3.26490       -2.63270
H         -0.44560       -3.86250       -3.95790
H          0.72360       -4.93450       -3.18780
H         -6.50190        8.42020       -1.90550
H         -5.11060        8.10040       -0.85480
H         -8.02350        7.48140       -0.16240
H         -6.63290        7.14880        0.87590
H         -7.06730        8.81730        0.48720
H         -2.71650        4.38380       -1.87930
H         -0.90170        5.33720       -0.64230
H         -0.89070        9.97330        3.15060
H         -2.15030       10.46870        2.00330
H          0.72090       11.52860        2.04910
H         -0.53810       12.03370        0.91840
H         -0.70240       12.39480        2.63940
H          7.00470        0.13970       -3.49680
H          5.63140        0.49660       -4.56190
H          6.85200        2.47940       -5.46220
H          7.78410        0.99680       -5.69730
H          8.22040        2.11860       -4.40460
H          6.19080        5.78990       -1.11190
H          8.09080        6.92220       -0.70440
H         11.87240        3.11140       -1.89340
H         10.40280        3.01900       -0.90430
H         13.25130        3.23590        0.18440
H         11.78370        3.15780        1.16560
H         12.25680        1.77550        0.17190
H          8.63080       14.86310        5.30800
H          7.40660       15.78180        4.41010
H          6.87970       13.23250        6.01870
H          5.66150       14.15400        5.13150
H          6.46840       14.87400        6.52860
H         11.38810       12.48700        2.32430
H         13.74820       11.44040        2.00410
