
  xtb     03032209043D
 energy: -451.452978498902 gnorm: 0.000639172912 xtb: 6.4.1 (unknown)
229254  0     0  0            999 V2000
    2.6524  -12.6107    4.6134 C   0  0  0  0  0  0  0  0  0  0  0  0
    2.8012  -12.2224    3.3310 C   0  0  0  0  0  0  0  0  0  0  0  0
    1.6539  -11.5477    2.8190 C   0  0  0  0  0  0  0  0  0  0  0  0
    1.4496  -11.0360    1.5268 C   0  0  0  0  0  0  0  0  0  0  0  0
    2.5003  -11.0678    0.5224 C   0  0  0  0  0  0  0  0  0  0  0  0
    2.2274  -11.7535   -1.0510 S   0  0  0  0  0  0  0  0  0  0  0  0
    3.8388  -11.3975   -1.5706 C   0  0  0  0  0  0  0  0  0  0  0  0
    4.2850  -11.7055   -2.9571 C   0  0  0  0  0  0  0  0  0  0  0  0
    3.8474  -10.6037   -3.9253 C   0  0  0  0  0  0  0  0  0  0  0  0
    4.5305  -10.7716   -0.5769 C   0  0  0  0  0  0  0  0  0  0  0  0
    6.1596  -10.2513   -0.7243 Cl  0  0  0  0  0  0  0  0  0  0  0  0
    3.7771  -10.5878    0.6135 C   0  0  0  0  0  0  0  0  0  0  0  0
    4.4028   -9.7695    1.9872 Cl  0  0  0  0  0  0  0  0  0  0  0  0
    0.2028  -10.4883    1.2537 C   0  0  0  0  0  0  0  0  0  0  0  0
   -0.8212  -10.4083    2.2262 C   0  0  0  0  0  0  0  0  0  0  0  0
   -0.6232  -10.9247    3.5171 C   0  0  0  0  0  0  0  0  0  0  0  0
   -1.7051  -10.8851    4.4868 C   0  0  0  0  0  0  0  0  0  0  0  0
   -1.5073  -10.1746    6.0605 S   0  0  0  0  0  0  0  0  0  0  0  0
   -3.1635  -10.4493    6.4793 C   0  0  0  0  0  0  0  0  0  0  0  0
   -3.7274   -9.9766    7.7736 C   0  0  0  0  0  0  0  0  0  0  0  0
   -4.3150   -8.5703    7.6274 C   0  0  0  0  0  0  0  0  0  0  0  0
   -3.8178  -11.0601    5.4511 C   0  0  0  0  0  0  0  0  0  0  0  0
   -2.9950  -11.3124    4.3226 C   0  0  0  0  0  0  0  0  0  0  0  0
   -3.5722  -12.1424    2.9334 Cl  0  0  0  0  0  0  0  0  0  0  0  0
   -5.4762  -11.4917    5.4962 Cl  0  0  0  0  0  0  0  0  0  0  0  0
    0.6241  -11.4706    3.7876 C   0  0  0  0  0  0  0  0  0  0  0  0
    1.1136  -12.2002    5.2903 S   0  0  0  0  0  0  0  0  0  0  0  0
   -1.9683   -9.7468    1.7313 C   0  0  0  0  0  0  0  0  0  0  0  0
   -1.8624   -9.3716    0.4250 C   0  0  0  0  0  0  0  0  0  0  0  0
   -0.3013   -9.7731   -0.2548 S   0  0  0  0  0  0  0  0  0  0  0  0
   -2.9080   -8.7355   -0.3113 C   0  0  0  0  0  0  0  0  0  0  0  0
   -4.2185   -8.7323    0.0614 C   0  0  0  0  0  0  0  0  0  0  0  0
   -5.0450   -7.9457   -0.7737 C   0  0  0  0  0  0  0  0  0  0  0  0
   -6.3988   -7.6380   -0.5633 C   0  0  0  0  0  0  0  0  0  0  0  0
   -7.0548   -8.0759    0.6578 C   0  0  0  0  0  0  0  0  0  0  0  0
   -8.5328   -8.9882    0.6441 S   0  0  0  0  0  0  0  0  0  0  0  0
   -8.5504   -9.1323    2.3690 C   0  0  0  0  0  0  0  0  0  0  0  0
   -9.5934   -9.9257    3.0757 C   0  0  0  0  0  0  0  0  0  0  0  0
   -9.1267  -11.3687    3.2859 C   0  0  0  0  0  0  0  0  0  0  0  0
   -7.4704   -8.4995    2.9088 C   0  0  0  0  0  0  0  0  0  0  0  0
   -7.1464   -8.4312    4.5906 Cl  0  0  0  0  0  0  0  0  0  0  0  0
   -6.6231   -7.8952    1.9442 C   0  0  0  0  0  0  0  0  0  0  0  0
   -5.2408   -6.9739    2.3821 Cl  0  0  0  0  0  0  0  0  0  0  0  0
   -7.0177   -6.8500   -1.5210 C   0  0  0  0  0  0  0  0  0  0  0  0
   -6.3167   -6.3273   -2.6325 C   0  0  0  0  0  0  0  0  0  0  0  0
   -4.9365   -6.5495   -2.7899 C   0  0  0  0  0  0  0  0  0  0  0  0
   -4.1917   -5.8065   -3.7913 C   0  0  0  0  0  0  0  0  0  0  0  0
   -4.4472   -4.0876   -3.9369 S   0  0  0  0  0  0  0  0  0  0  0  0
   -3.2563   -3.9278   -5.1809 C   0  0  0  0  0  0  0  0  0  0  0  0
   -2.9416   -2.6138   -5.8103 C   0  0  0  0  0  0  0  0  0  0  0  0
   -4.0540   -1.5916   -5.6165 C   0  0  0  0  0  0  0  0  0  0  0  0
   -2.6983   -5.1418   -5.4508 C   0  0  0  0  0  0  0  0  0  0  0  0
   -3.2223   -6.2069   -4.6690 C   0  0  0  0  0  0  0  0  0  0  0  0
   -2.7314   -7.8327   -4.9043 Cl  0  0  0  0  0  0  0  0  0  0  0  0
   -1.4734   -5.3796   -6.6310 Cl  0  0  0  0  0  0  0  0  0  0  0  0
   -4.3294   -7.3894   -1.8617 C   0  0  0  0  0  0  0  0  0  0  0  0
   -2.6429   -7.8232   -1.7773 S   0  0  0  0  0  0  0  0  0  0  0  0
   -7.1550   -5.5030   -3.4270 C   0  0  0  0  0  0  0  0  0  0  0  0
   -8.3864   -5.3202   -2.8952 C   0  0  0  0  0  0  0  0  0  0  0  0
   -8.6499   -6.2572   -1.4570 S   0  0  0  0  0  0  0  0  0  0  0  0
   -9.3705   -4.3087   -3.3787 C   0  0  0  0  0  0  0  0  0  0  0  0
  -10.8682   -4.2383   -2.3212 S   0  0  0  0  0  0  0  0  0  0  0  0
  -10.4868   -2.5914   -1.6340 C   0  0  0  0  0  0  0  0  0  0  0  0
   -9.0241   -2.2746   -1.9655 C   0  0  0  0  0  0  0  0  0  0  0  0
   -8.7729   -2.8988   -3.3500 C   0  0  0  0  0  0  0  0  0  0  0  0
   -8.0988   -2.8513   -0.8645 C   0  0  0  0  0  0  0  0  0  0  0  0
   -7.2749   -3.7099   -1.0606 O   0  0  0  0  0  0  0  0  0  0  0  0
   -8.3300   -2.3118    0.3478 N   0  0  0  0  0  0  0  0  0  0  0  0
   -8.8342   -0.8350   -1.9553 N   0  0  0  0  0  0  0  0  0  0  0  0
   -7.5893   -0.2586   -2.0397 C   0  0  0  0  0  0  0  0  0  0  0  0
   -6.3493   -0.8111   -2.0010 C   0  0  0  0  0  0  0  0  0  0  0  0
   -5.3068    0.1549   -1.9377 C   0  0  0  0  0  0  0  0  0  0  0  0
   -3.9292   -0.0726   -1.7860 C   0  0  0  0  0  0  0  0  0  0  0  0
   -3.3916   -1.4074   -1.5842 C   0  0  0  0  0  0  0  0  0  0  0  0
   -2.0220   -1.9816   -2.4884 S   0  0  0  0  0  0  0  0  0  0  0  0
   -2.0271   -3.5125   -1.6866 C   0  0  0  0  0  0  0  0  0  0  0  0
   -1.0407   -4.5800   -2.0120 C   0  0  0  0  0  0  0  0  0  0  0  0
    0.0153   -4.1300   -3.0100 C   0  0  0  0  0  0  0  0  0  0  0  0
   -3.0292   -3.5576   -0.7618 C   0  0  0  0  0  0  0  0  0  0  0  0
   -3.3551   -4.9234    0.2254 Cl  0  0  0  0  0  0  0  0  0  0  0  0
   -3.7920   -2.3637   -0.6918 C   0  0  0  0  0  0  0  0  0  0  0  0
   -4.9962   -2.1229    0.4933 Cl  0  0  0  0  0  0  0  0  0  0  0  0
   -3.1015    1.0464   -1.7815 C   0  0  0  0  0  0  0  0  0  0  0  0
   -3.5959    2.3668   -1.8722 C   0  0  0  0  0  0  0  0  0  0  0  0
   -4.9791    2.5987   -1.9991 C   0  0  0  0  0  0  0  0  0  0  0  0
   -5.5038    3.9519   -2.0811 C   0  0  0  0  0  0  0  0  0  0  0  0
   -5.0719    5.1624   -0.9070 S   0  0  0  0  0  0  0  0  0  0  0  0
   -6.0229    6.3801   -1.6874 C   0  0  0  0  0  0  0  0  0  0  0  0
   -6.1097    7.7581   -1.1318 C   0  0  0  0  0  0  0  0  0  0  0  0
   -7.0184    7.8040    0.0981 C   0  0  0  0  0  0  0  0  0  0  0  0
   -6.6428    5.8606   -2.7837 C   0  0  0  0  0  0  0  0  0  0  0  0
   -6.3479    4.4891   -3.0125 C   0  0  0  0  0  0  0  0  0  0  0  0
   -6.9312    3.6480   -4.3860 Cl  0  0  0  0  0  0  0  0  0  0  0  0
   -7.6742    6.7603   -3.8198 Cl  0  0  0  0  0  0  0  0  0  0  0  0
   -5.7972    1.4809   -2.0223 C   0  0  0  0  0  0  0  0  0  0  0  0
   -7.5407    1.4975   -2.0753 S   0  0  0  0  0  0  0  0  0  0  0  0
   -2.5585    3.3254   -1.7950 C   0  0  0  0  0  0  0  0  0  0  0  0
   -1.3220    2.7768   -1.6256 C   0  0  0  0  0  0  0  0  0  0  0  0
   -1.3707    1.0290   -1.5932 S   0  0  0  0  0  0  0  0  0  0  0  0
   -0.1118    3.5156   -1.4456 C   0  0  0  0  0  0  0  0  0  0  0  0
   -0.0393    4.7953   -0.9805 C   0  0  0  0  0  0  0  0  0  0  0  0
    1.2785    5.3068   -0.9299 C   0  0  0  0  0  0  0  0  0  0  0  0
    1.6936    6.5731   -0.4782 C   0  0  0  0  0  0  0  0  0  0  0  0
    0.7199    7.5749   -0.0822 C   0  0  0  0  0  0  0  0  0  0  0  0
    0.8546    8.4157    1.4338 S   0  0  0  0  0  0  0  0  0  0  0  0
   -0.6027    9.3069    1.1607 C   0  0  0  0  0  0  0  0  0  0  0  0
   -1.0759   10.3278    2.1353 C   0  0  0  0  0  0  0  0  0  0  0  0
   -0.3510   11.6589    1.9215 C   0  0  0  0  0  0  0  0  0  0  0  0
   -1.1420    8.9725   -0.0454 C   0  0  0  0  0  0  0  0  0  0  0  0
   -2.5917    9.6482   -0.6661 Cl  0  0  0  0  0  0  0  0  0  0  0  0
   -0.3980    7.9922   -0.7535 C   0  0  0  0  0  0  0  0  0  0  0  0
   -0.8393    7.4787   -2.3328 Cl  0  0  0  0  0  0  0  0  0  0  0  0
    3.0619    6.8034   -0.4291 C   0  0  0  0  0  0  0  0  0  0  0  0
    4.0124    5.8481   -0.8659 C   0  0  0  0  0  0  0  0  0  0  0  0
    3.5973    4.5823   -1.3188 C   0  0  0  0  0  0  0  0  0  0  0  0
    4.5713    3.5806   -1.7170 C   0  0  0  0  0  0  0  0  0  0  0  0
    4.4565    2.7668   -3.2493 S   0  0  0  0  0  0  0  0  0  0  0  0
    5.9031    1.8614   -2.9667 C   0  0  0  0  0  0  0  0  0  0  0  0
    6.4535    0.9384   -3.9970 C   0  0  0  0  0  0  0  0  0  0  0  0
    7.3890    1.6828   -4.9531 C   0  0  0  0  0  0  0  0  0  0  0  0
    6.4318    2.1827   -1.7521 C   0  0  0  0  0  0  0  0  0  0  0  0
    5.6772    3.1487   -1.0354 C   0  0  0  0  0  0  0  0  0  0  0  0
    6.0940    3.6351    0.5598 Cl  0  0  0  0  0  0  0  0  0  0  0  0
    7.8722    1.4941   -1.1253 Cl  0  0  0  0  0  0  0  0  0  0  0  0
    2.2305    4.3450   -1.3487 C   0  0  0  0  0  0  0  0  0  0  0  0
    1.4632    2.8530   -1.8173 S   0  0  0  0  0  0  0  0  0  0  0  0
    5.3328    6.3458   -0.7873 C   0  0  0  0  0  0  0  0  0  0  0  0
    5.4151    7.6026   -0.2612 C   0  0  0  0  0  0  0  0  0  0  0  0
    3.8391    8.2651    0.1117 S   0  0  0  0  0  0  0  0  0  0  0  0
    6.6227    8.3074    0.0281 C   0  0  0  0  0  0  0  0  0  0  0  0
    7.8871    7.8531   -0.2116 C   0  0  0  0  0  0  0  0  0  0  0  0
    8.9006    8.7195    0.2590 C   0  0  0  0  0  0  0  0  0  0  0  0
   10.2904    8.5154    0.2213 C   0  0  0  0  0  0  0  0  0  0  0  0
   10.8496    7.2993   -0.3465 C   0  0  0  0  0  0  0  0  0  0  0  0
   10.2987    5.7310    0.1736 S   0  0  0  0  0  0  0  0  0  0  0  0
   11.3669    4.9051   -0.9083 C   0  0  0  0  0  0  0  0  0  0  0  0
   11.4179    3.4181   -0.9496 C   0  0  0  0  0  0  0  0  0  0  0  0
   12.2315    2.8607    0.2202 C   0  0  0  0  0  0  0  0  0  0  0  0
   12.1093    5.8040   -1.6139 C   0  0  0  0  0  0  0  0  0  0  0  0
   13.2809    5.3663   -2.7892 Cl  0  0  0  0  0  0  0  0  0  0  0  0
   11.8177    7.1600   -1.3017 C   0  0  0  0  0  0  0  0  0  0  0  0
   12.5546    8.4672   -2.1288 Cl  0  0  0  0  0  0  0  0  0  0  0  0
   11.0842    9.5098    0.7800 C   0  0  0  0  0  0  0  0  0  0  0  0
   10.5486   10.6867    1.3586 C   0  0  0  0  0  0  0  0  0  0  0  0
    9.1600   10.8936    1.3844 C   0  0  0  0  0  0  0  0  0  0  0  0
    8.5761   12.0813    1.9881 C   0  0  0  0  0  0  0  0  0  0  0  0
    8.9415   12.5358    3.6269 S   0  0  0  0  0  0  0  0  0  0  0  0
    7.8946   13.9122    3.5641 C   0  0  0  0  0  0  0  0  0  0  0  0
    7.6945   14.7861    4.7527 C   0  0  0  0  0  0  0  0  0  0  0  0
    6.6041   14.2244    5.6682 C   0  0  0  0  0  0  0  0  0  0  0  0
    7.2978   13.9955    2.3420 C   0  0  0  0  0  0  0  0  0  0  0  0
    7.6825   12.9620    1.4454 C   0  0  0  0  0  0  0  0  0  0  0  0
    7.1309   12.9010   -0.1758 Cl  0  0  0  0  0  0  0  0  0  0  0  0
    6.1928   15.2316    1.9004 Cl  0  0  0  0  0  0  0  0  0  0  0  0
    8.3629    9.8959    0.8362 C   0  0  0  0  0  0  0  0  0  0  0  0
    6.6222    9.8658    0.8209 S   0  0  0  0  0  0  0  0  0  0  0  0
   11.5766   11.5337    1.8662 C   0  0  0  0  0  0  0  0  0  0  0  0
   12.8102   11.0114    1.7101 C   0  0  0  0  0  0  0  0  0  0  0  0
   12.8176    9.4714    0.9267 S   0  0  0  0  0  0  0  0  0  0  0  0
    3.3593  -13.1305    5.2301 H   0  0  0  0  0  0  0  0  0  0  0  0
    3.6845  -12.4132    2.7503 H   0  0  0  0  0  0  0  0  0  0  0  0
    5.3731  -11.7911   -2.9652 H   0  0  0  0  0  0  0  0  0  0  0  0
    3.8556  -12.6576   -3.2735 H   0  0  0  0  0  0  0  0  0  0  0  0
    2.7643  -10.5080   -3.9223 H   0  0  0  0  0  0  0  0  0  0  0  0
    4.2810   -9.6508   -3.6324 H   0  0  0  0  0  0  0  0  0  0  0  0
    4.1754  -10.8409   -4.9337 H   0  0  0  0  0  0  0  0  0  0  0  0
   -4.5121  -10.6669    8.0904 H   0  0  0  0  0  0  0  0  0  0  0  0
   -2.9409   -9.9683    8.5297 H   0  0  0  0  0  0  0  0  0  0  0  0
   -3.5436   -7.8687    7.3192 H   0  0  0  0  0  0  0  0  0  0  0  0
   -5.1046   -8.5673    6.8806 H   0  0  0  0  0  0  0  0  0  0  0  0
   -4.7311   -8.2389    8.5749 H   0  0  0  0  0  0  0  0  0  0  0  0
   -2.8275   -9.5237    2.3342 H   0  0  0  0  0  0  0  0  0  0  0  0
   -4.5912   -9.2935    0.8973 H   0  0  0  0  0  0  0  0  0  0  0  0
   -9.7922   -9.4644    4.0456 H   0  0  0  0  0  0  0  0  0  0  0  0
  -10.5128   -9.9191    2.4886 H   0  0  0  0  0  0  0  0  0  0  0  0
   -8.9310  -11.8454    2.3285 H   0  0  0  0  0  0  0  0  0  0  0  0
   -8.2141  -11.3876    3.8760 H   0  0  0  0  0  0  0  0  0  0  0  0
   -9.8910  -11.9364    3.8096 H   0  0  0  0  0  0  0  0  0  0  0  0
   -2.7577   -2.7780   -6.8749 H   0  0  0  0  0  0  0  0  0  0  0  0
   -2.0161   -2.2227   -5.3756 H   0  0  0  0  0  0  0  0  0  0  0  0
   -4.2150   -1.4016   -4.5580 H   0  0  0  0  0  0  0  0  0  0  0  0
   -3.7890   -0.6536   -6.0968 H   0  0  0  0  0  0  0  0  0  0  0  0
   -4.9846   -1.9530   -6.0481 H   0  0  0  0  0  0  0  0  0  0  0  0
   -6.8400   -5.0365   -4.3421 H   0  0  0  0  0  0  0  0  0  0  0  0
   -9.7056   -4.5669   -4.3877 H   0  0  0  0  0  0  0  0  0  0  0  0
  -10.6906   -2.6169   -0.5658 H   0  0  0  0  0  0  0  0  0  0  0  0
  -11.1521   -1.8671   -2.1096 H   0  0  0  0  0  0  0  0  0  0  0  0
   -9.2667   -2.2716   -4.0963 H   0  0  0  0  0  0  0  0  0  0  0  0
   -7.7059   -2.9333   -3.5659 H   0  0  0  0  0  0  0  0  0  0  0  0
   -8.8774   -1.4748    0.4491 H   0  0  0  0  0  0  0  0  0  0  0  0
   -7.7032   -2.5662    1.0950 H   0  0  0  0  0  0  0  0  0  0  0  0
   -9.5748   -0.2972   -2.3857 H   0  0  0  0  0  0  0  0  0  0  0  0
   -6.1516   -1.8644   -2.0311 H   0  0  0  0  0  0  0  0  0  0  0  0
   -0.5652   -4.9057   -1.0820 H   0  0  0  0  0  0  0  0  0  0  0  0
   -1.5771   -5.4463   -2.4113 H   0  0  0  0  0  0  0  0  0  0  0  0
    0.5561   -3.2649   -2.6327 H   0  0  0  0  0  0  0  0  0  0  0  0
   -0.4456   -3.8625   -3.9579 H   0  0  0  0  0  0  0  0  0  0  0  0
    0.7236   -4.9345   -3.1878 H   0  0  0  0  0  0  0  0  0  0  0  0
   -6.5019    8.4202   -1.9055 H   0  0  0  0  0  0  0  0  0  0  0  0
   -5.1106    8.1004   -0.8548 H   0  0  0  0  0  0  0  0  0  0  0  0
   -8.0235    7.4814   -0.1624 H   0  0  0  0  0  0  0  0  0  0  0  0
   -6.6329    7.1488    0.8759 H   0  0  0  0  0  0  0  0  0  0  0  0
   -7.0673    8.8173    0.4872 H   0  0  0  0  0  0  0  0  0  0  0  0
   -2.7165    4.3838   -1.8793 H   0  0  0  0  0  0  0  0  0  0  0  0
   -0.9017    5.3372   -0.6423 H   0  0  0  0  0  0  0  0  0  0  0  0
   -0.8907    9.9733    3.1506 H   0  0  0  0  0  0  0  0  0  0  0  0
   -2.1503   10.4687    2.0033 H   0  0  0  0  0  0  0  0  0  0  0  0
    0.7209   11.5286    2.0491 H   0  0  0  0  0  0  0  0  0  0  0  0
   -0.5381   12.0337    0.9184 H   0  0  0  0  0  0  0  0  0  0  0  0
   -0.7024   12.3948    2.6394 H   0  0  0  0  0  0  0  0  0  0  0  0
    7.0047    0.1397   -3.4968 H   0  0  0  0  0  0  0  0  0  0  0  0
    5.6314    0.4966   -4.5619 H   0  0  0  0  0  0  0  0  0  0  0  0
    6.8520    2.4794   -5.4622 H   0  0  0  0  0  0  0  0  0  0  0  0
    7.7841    0.9968   -5.6973 H   0  0  0  0  0  0  0  0  0  0  0  0
    8.2204    2.1186   -4.4046 H   0  0  0  0  0  0  0  0  0  0  0  0
    6.1908    5.7899   -1.1119 H   0  0  0  0  0  0  0  0  0  0  0  0
    8.0908    6.9222   -0.7044 H   0  0  0  0  0  0  0  0  0  0  0  0
   11.8724    3.1114   -1.8934 H   0  0  0  0  0  0  0  0  0  0  0  0
   10.4028    3.0190   -0.9043 H   0  0  0  0  0  0  0  0  0  0  0  0
   13.2513    3.2359    0.1844 H   0  0  0  0  0  0  0  0  0  0  0  0
   11.7837    3.1578    1.1656 H   0  0  0  0  0  0  0  0  0  0  0  0
   12.2568    1.7755    0.1719 H   0  0  0  0  0  0  0  0  0  0  0  0
    8.6308   14.8631    5.3080 H   0  0  0  0  0  0  0  0  0  0  0  0
    7.4066   15.7818    4.4101 H   0  0  0  0  0  0  0  0  0  0  0  0
    6.8797   13.2325    6.0187 H   0  0  0  0  0  0  0  0  0  0  0  0
    5.6615   14.1540    5.1315 H   0  0  0  0  0  0  0  0  0  0  0  0
    6.4684   14.8740    6.5286 H   0  0  0  0  0  0  0  0  0  0  0  0
   11.3881   12.4870    2.3243 H   0  0  0  0  0  0  0  0  0  0  0  0
   13.7482   11.4404    2.0041 H   0  0  0  0  0  0  0  0  0  0  0  0
  1  2  2  0  0  0  0
  2  3  1  0  0  0  0
  3  4  2  0  0  0  0
  4  5  1  0  0  0  0
  5  6  1  0  0  0  0
  6  7  1  0  0  0  0
  7  8  1  0  0  0  0
  8  9  1  0  0  0  0
  7 10  2  0  0  0  0
 10 11  1  0  0  0  0
 10 12  1  0  0  0  0
 12 13  1  0  0  0  0
  4 14  1  0  0  0  0
 14 15  2  0  0  0  0
 15 16  1  0  0  0  0
 16 17  1  0  0  0  0
 17 18  1  0  0  0  0
 18 19  1  0  0  0  0
 19 20  1  0  0  0  0
 20 21  1  0  0  0  0
 19 22  2  0  0  0  0
 22 23  1  0  0  0  0
 23 24  1  0  0  0  0
 22 25  1  0  0  0  0
 16 26  2  0  0  0  0
 26 27  1  0  0  0  0
 15 28  1  0  0  0  0
 28 29  2  0  0  0  0
 29 30  1  0  0  0  0
 29 31  1  0  0  0  0
 31 32  2  0  0  0  0
 32 33  1  0  0  0  0
 33 34  2  0  0  0  0
 34 35  1  0  0  0  0
 35 36  1  0  0  0  0
 36 37  1  0  0  0  0
 37 38  1  0  0  0  0
 38 39  1  0  0  0  0
 37 40  2  0  0  0  0
 40 41  1  0  0  0  0
 40 42  1  0  0  0  0
 42 43  1  0  0  0  0
 34 44  1  0  0  0  0
 44 45  2  0  0  0  0
 45 46  1  0  0  0  0
 46 47  1  0  0  0  0
 47 48  1  0  0  0  0
 48 49  1  0  0  0  0
 49 50  1  0  0  0  0
 50 51  1  0  0  0  0
 49 52  2  0  0  0  0
 52 53  1  0  0  0  0
 53 54  1  0  0  0  0
 52 55  1  0  0  0  0
 46 56  2  0  0  0  0
 56 57  1  0  0  0  0
 45 58  1  0  0  0  0
 58 59  2  0  0  0  0
 59 60  1  0  0  0  0
 59 61  1  0  0  0  0
 61 62  1  0  0  0  0
 62 63  1  0  0  0  0
 63 64  1  0  0  0  0
 64 65  1  0  0  0  0
 64 66  1  0  0  0  0
 66 67  2  0  0  0  0
 66 68  1  0  0  0  0
 64 69  1  0  0  0  0
 69 70  1  0  0  0  0
 70 71  2  0  0  0  0
 71 72  1  0  0  0  0
 72 73  2  0  0  0  0
 73 74  1  0  0  0  0
 74 75  1  0  0  0  0
 75 76  1  0  0  0  0
 76 77  1  0  0  0  0
 77 78  1  0  0  0  0
 76 79  2  0  0  0  0
 79 80  1  0  0  0  0
 79 81  1  0  0  0  0
 81 82  1  0  0  0  0
 73 83  1  0  0  0  0
 83 84  2  0  0  0  0
 84 85  1  0  0  0  0
 85 86  1  0  0  0  0
 86 87  1  0  0  0  0
 87 88  1  0  0  0  0
 88 89  1  0  0  0  0
 89 90  1  0  0  0  0
 88 91  2  0  0  0  0
 91 92  1  0  0  0  0
 92 93  1  0  0  0  0
 91 94  1  0  0  0  0
 85 95  2  0  0  0  0
 95 96  1  0  0  0  0
 84 97  1  0  0  0  0
 97 98  2  0  0  0  0
 98 99  1  0  0  0  0
 98100  1  0  0  0  0
100101  2  0  0  0  0
101102  1  0  0  0  0
102103  2  0  0  0  0
103104  1  0  0  0  0
104105  1  0  0  0  0
105106  1  0  0  0  0
106107  1  0  0  0  0
107108  1  0  0  0  0
106109  2  0  0  0  0
109110  1  0  0  0  0
109111  1  0  0  0  0
111112  1  0  0  0  0
103113  1  0  0  0  0
113114  2  0  0  0  0
114115  1  0  0  0  0
115116  1  0  0  0  0
116117  1  0  0  0  0
117118  1  0  0  0  0
118119  1  0  0  0  0
119120  1  0  0  0  0
118121  2  0  0  0  0
121122  1  0  0  0  0
122123  1  0  0  0  0
121124  1  0  0  0  0
115125  2  0  0  0  0
125126  1  0  0  0  0
114127  1  0  0  0  0
127128  2  0  0  0  0
128129  1  0  0  0  0
128130  1  0  0  0  0
130131  2  0  0  0  0
131132  1  0  0  0  0
132133  2  0  0  0  0
133134  1  0  0  0  0
134135  1  0  0  0  0
135136  1  0  0  0  0
136137  1  0  0  0  0
137138  1  0  0  0  0
136139  2  0  0  0  0
139140  1  0  0  0  0
139141  1  0  0  0  0
141142  1  0  0  0  0
133143  1  0  0  0  0
143144  2  0  0  0  0
144145  1  0  0  0  0
145146  1  0  0  0  0
146147  1  0  0  0  0
147148  1  0  0  0  0
148149  1  0  0  0  0
149150  1  0  0  0  0
148151  2  0  0  0  0
151152  1  0  0  0  0
152153  1  0  0  0  0
151154  1  0  0  0  0
145155  2  0  0  0  0
155156  1  0  0  0  0
144157  1  0  0  0  0
157158  2  0  0  0  0
158159  1  0  0  0  0
 27  1  1  0  0  0  0
 57 31  1  0  0  0  0
 65 61  1  0  0  0  0
 96 70  1  0  0  0  0
126100  1  0  0  0  0
156130  1  0  0  0  0
 26  3  1  0  0  0  0
 56 33  1  0  0  0  0
 95 72  1  0  0  0  0
125102  1  0  0  0  0
155132  1  0  0  0  0
 12  5  2  0  0  0  0
 30 14  1  0  0  0  0
 42 35  2  0  0  0  0
 60 44  1  0  0  0  0
 81 74  2  0  0  0  0
 99 83  1  0  0  0  0
111104  2  0  0  0  0
129113  1  0  0  0  0
141134  2  0  0  0  0
159143  1  0  0  0  0
 23 17  2  0  0  0  0
 53 47  2  0  0  0  0
 92 86  2  0  0  0  0
122116  2  0  0  0  0
152146  2  0  0  0  0
  1160  1  0  0  0  0
  2161  1  0  0  0  0
  8162  1  0  0  0  0
  8163  1  0  0  0  0
  9164  1  0  0  0  0
  9165  1  0  0  0  0
  9166  1  0  0  0  0
 20167  1  0  0  0  0
 20168  1  0  0  0  0
 21169  1  0  0  0  0
 21170  1  0  0  0  0
 21171  1  0  0  0  0
 28172  1  0  0  0  0
 32173  1  0  0  0  0
 38174  1  0  0  0  0
 38175  1  0  0  0  0
 39176  1  0  0  0  0
 39177  1  0  0  0  0
 39178  1  0  0  0  0
 50179  1  0  0  0  0
 50180  1  0  0  0  0
 51181  1  0  0  0  0
 51182  1  0  0  0  0
 51183  1  0  0  0  0
 58184  1  0  0  0  0
 61185  1  0  0  0  0
 63186  1  0  0  0  0
 63187  1  0  0  0  0
 65188  1  0  0  0  0
 65189  1  0  0  0  0
 68190  1  0  0  0  0
 68191  1  0  0  0  0
 69192  1  0  0  0  0
 71193  1  0  0  0  0
 77194  1  0  0  0  0
 77195  1  0  0  0  0
 78196  1  0  0  0  0
 78197  1  0  0  0  0
 78198  1  0  0  0  0
 89199  1  0  0  0  0
 89200  1  0  0  0  0
 90201  1  0  0  0  0
 90202  1  0  0  0  0
 90203  1  0  0  0  0
 97204  1  0  0  0  0
101205  1  0  0  0  0
107206  1  0  0  0  0
107207  1  0  0  0  0
108208  1  0  0  0  0
108209  1  0  0  0  0
108210  1  0  0  0  0
119211  1  0  0  0  0
119212  1  0  0  0  0
120213  1  0  0  0  0
120214  1  0  0  0  0
120215  1  0  0  0  0
127216  1  0  0  0  0
131217  1  0  0  0  0
137218  1  0  0  0  0
137219  1  0  0  0  0
138220  1  0  0  0  0
138221  1  0  0  0  0
138222  1  0  0  0  0
149223  1  0  0  0  0
149224  1  0  0  0  0
150225  1  0  0  0  0
150226  1  0  0  0  0
150227  1  0  0  0  0
157228  1  0  0  0  0
158229  1  0  0  0  0
M  END
