
  xtb     03052205013D
 energy: -406.339410052584 gnorm: 0.000516522624 xtb: 6.4.1 (unknown)
236257  0     0  0            999 V2000
    1.9876   -3.9648    7.8404 C   0  0  0  0  0  0  0  0  0  0  0  0
    1.9709   -2.8989    7.0162 C   0  0  0  0  0  0  0  0  0  0  0  0
    1.1671   -3.1068    5.8550 C   0  0  0  0  0  0  0  0  0  0  0  0
    0.9122   -2.2098    4.8074 C   0  0  0  0  0  0  0  0  0  0  0  0
    1.6142   -0.9236    4.7347 C   0  0  0  0  0  0  0  0  0  0  0  0
    3.0031   -0.8844    4.8592 C   0  0  0  0  0  0  0  0  0  0  0  0
    3.6857    0.3073    4.7773 C   0  0  0  0  0  0  0  0  0  0  0  0
    3.0165    1.5179    4.5923 C   0  0  0  0  0  0  0  0  0  0  0  0
    4.0411    2.9499    4.4645 S   0  0  0  0  0  0  0  0  0  0  0  0
    3.0149    4.3688    4.9936 C   0  0  0  0  0  0  0  0  0  0  0  0
    2.5439    4.2402    6.4274 C   0  0  0  0  0  0  0  0  0  0  0  0
    1.6317    1.4613    4.4710 C   0  0  0  0  0  0  0  0  0  0  0  0
    0.9024    2.5830    4.3006 F   0  0  0  0  0  0  0  0  0  0  0  0
    0.9349    0.2705    4.5318 C   0  0  0  0  0  0  0  0  0  0  0  0
    0.0242   -2.6329    3.8281 C   0  0  0  0  0  0  0  0  0  0  0  0
   -0.5662   -3.9193    3.8304 C   0  0  0  0  0  0  0  0  0  0  0  0
   -0.2878   -4.8271    4.8613 C   0  0  0  0  0  0  0  0  0  0  0  0
   -0.8439   -6.1843    4.8560 C   0  0  0  0  0  0  0  0  0  0  0  0
   -0.0138   -7.2881    5.0297 C   0  0  0  0  0  0  0  0  0  0  0  0
   -0.5153   -8.5750    4.9945 C   0  0  0  0  0  0  0  0  0  0  0  0
   -1.8691   -8.8060    4.7794 C   0  0  0  0  0  0  0  0  0  0  0  0
   -2.6524  -10.3822    4.7089 S   0  0  0  0  0  0  0  0  0  0  0  0
   -1.2763  -11.5794    4.7761 C   0  0  0  0  0  0  0  0  0  0  0  0
   -0.5223  -11.6722    3.4624 C   0  0  0  0  0  0  0  0  0  0  0  0
   -2.6919   -7.6885    4.6207 C   0  0  0  0  0  0  0  0  0  0  0  0
   -2.2065   -6.4014    4.6569 C   0  0  0  0  0  0  0  0  0  0  0  0
   -4.0131   -7.8734    4.4174 F   0  0  0  0  0  0  0  0  0  0  0  0
    0.5717   -4.3889    5.8587 C   0  0  0  0  0  0  0  0  0  0  0  0
    1.0398   -5.2957    7.2716 S   0  0  0  0  0  0  0  0  0  0  0  0
   -1.3327   -4.1493    2.6529 C   0  0  0  0  0  0  0  0  0  0  0  0
   -1.3541   -3.0952    1.8030 C   0  0  0  0  0  0  0  0  0  0  0  0
   -0.4285   -1.7375    2.3994 S   0  0  0  0  0  0  0  0  0  0  0  0
   -1.9681   -3.0419    0.4536 C   0  0  0  0  0  0  0  0  0  0  0  0
   -0.9943   -4.1119   -0.7016 S   0  0  0  0  0  0  0  0  0  0  0  0
   -2.4224   -4.2092   -1.8030 C   0  0  0  0  0  0  0  0  0  0  0  0
   -3.6587   -4.3744   -0.9108 C   0  0  0  0  0  0  0  0  0  0  0  0
   -3.4180   -3.5456    0.3761 C   0  0  0  0  0  0  0  0  0  0  0  0
   -3.8713   -5.8674   -0.5608 C   0  0  0  0  0  0  0  0  0  0  0  0
   -4.8954   -6.4434   -0.8705 O   0  0  0  0  0  0  0  0  0  0  0  0
   -2.8667   -6.4441    0.1184 N   0  0  0  0  0  0  0  0  0  0  0  0
   -4.8405   -3.8617   -1.5927 N   0  0  0  0  0  0  0  0  0  0  0  0
   -5.0988   -4.3650   -2.9090 C   0  0  0  0  0  0  0  0  0  0  0  0
   -4.3954   -3.2506   -4.2154 S   0  0  0  0  0  0  0  0  0  0  0  0
   -5.4265   -4.1227   -5.4196 C   0  0  0  0  0  0  0  0  0  0  0  0
   -6.8102   -4.3466   -4.7584 C   0  0  0  0  0  0  0  0  0  0  0  0
   -6.5898   -4.4133   -3.2351 C   0  0  0  0  0  0  0  0  0  0  0  0
   -7.3783   -5.6394   -5.3744 C   0  0  0  0  0  0  0  0  0  0  0  0
   -8.1646   -5.6100   -6.2925 O   0  0  0  0  0  0  0  0  0  0  0  0
   -6.8746   -6.7857   -4.8779 N   0  0  0  0  0  0  0  0  0  0  0  0
   -7.7621   -3.2906   -5.1008 N   0  0  0  0  0  0  0  0  0  0  0  0
   -7.3609   -1.9867   -4.8969 C   0  0  0  0  0  0  0  0  0  0  0  0
   -7.4185   -1.3156   -3.7223 C   0  0  0  0  0  0  0  0  0  0  0  0
   -6.7230   -0.0776   -3.7329 C   0  0  0  0  0  0  0  0  0  0  0  0
   -6.4304    0.7316   -2.6311 C   0  0  0  0  0  0  0  0  0  0  0  0
   -6.8021    0.3574   -1.2594 C   0  0  0  0  0  0  0  0  0  0  0  0
   -6.4180   -0.8819   -0.7491 C   0  0  0  0  0  0  0  0  0  0  0  0
   -6.7015   -1.2150    0.5583 C   0  0  0  0  0  0  0  0  0  0  0  0
   -7.3604   -0.3282    1.4070 C   0  0  0  0  0  0  0  0  0  0  0  0
   -7.5845   -0.8363    3.0909 S   0  0  0  0  0  0  0  0  0  0  0  0
   -9.2760   -0.2733    3.5051 C   0  0  0  0  0  0  0  0  0  0  0  0
  -10.3127   -0.8572    2.5673 C   0  0  0  0  0  0  0  0  0  0  0  0
   -7.7195    0.9107    0.8870 C   0  0  0  0  0  0  0  0  0  0  0  0
   -8.3367    1.8298    1.6623 F   0  0  0  0  0  0  0  0  0  0  0  0
   -7.4586    1.2535   -0.4248 C   0  0  0  0  0  0  0  0  0  0  0  0
   -5.6010    1.8155   -2.8600 C   0  0  0  0  0  0  0  0  0  0  0  0
   -5.0353    2.1143   -4.1224 C   0  0  0  0  0  0  0  0  0  0  0  0
   -5.3527    1.3145   -5.2342 C   0  0  0  0  0  0  0  0  0  0  0  0
   -4.7268    1.5456   -6.5428 C   0  0  0  0  0  0  0  0  0  0  0  0
   -3.3436    1.6352   -6.6668 C   0  0  0  0  0  0  0  0  0  0  0  0
   -2.7466    1.8804   -7.8881 C   0  0  0  0  0  0  0  0  0  0  0  0
   -3.5155    2.0395   -9.0351 C   0  0  0  0  0  0  0  0  0  0  0  0
   -2.9010    2.4024  -10.6444 S   0  0  0  0  0  0  0  0  0  0  0  0
   -1.0870    2.4629  -10.4424 C   0  0  0  0  0  0  0  0  0  0  0  0
   -0.4596    1.0822  -10.3912 C   0  0  0  0  0  0  0  0  0  0  0  0
   -4.9005    1.9157   -8.9006 C   0  0  0  0  0  0  0  0  0  0  0  0
   -5.5074    1.6718   -7.6893 C   0  0  0  0  0  0  0  0  0  0  0  0
   -5.6767    2.0532   -9.9947 F   0  0  0  0  0  0  0  0  0  0  0  0
   -6.1960    0.2359   -5.0074 C   0  0  0  0  0  0  0  0  0  0  0  0
   -6.5630   -1.0185   -6.1606 S   0  0  0  0  0  0  0  0  0  0  0  0
   -4.0418    3.1268   -4.0224 C   0  0  0  0  0  0  0  0  0  0  0  0
   -3.7982    3.5250   -2.7422 C   0  0  0  0  0  0  0  0  0  0  0  0
   -4.9219    2.8028   -1.5972 S   0  0  0  0  0  0  0  0  0  0  0  0
   -2.6102    4.1081   -2.2088 C   0  0  0  0  0  0  0  0  0  0  0  0
   -2.2359    4.0098   -0.9024 C   0  0  0  0  0  0  0  0  0  0  0  0
   -0.8451    4.1601   -0.7000 C   0  0  0  0  0  0  0  0  0  0  0  0
   -0.1515    3.8484    0.4729 C   0  0  0  0  0  0  0  0  0  0  0  0
   -0.8792    3.4154    1.6802 C   0  0  0  0  0  0  0  0  0  0  0  0
   -1.5071    2.1737    1.6952 C   0  0  0  0  0  0  0  0  0  0  0  0
   -2.2069    1.7517    2.8067 C   0  0  0  0  0  0  0  0  0  0  0  0
   -2.3159    2.5669    3.9271 C   0  0  0  0  0  0  0  0  0  0  0  0
   -3.1978    2.0762    5.3810 S   0  0  0  0  0  0  0  0  0  0  0  0
   -4.6951    1.3026    4.6670 C   0  0  0  0  0  0  0  0  0  0  0  0
   -5.4678    2.2670    3.7911 C   0  0  0  0  0  0  0  0  0  0  0  0
   -1.6720    3.8010    3.9025 C   0  0  0  0  0  0  0  0  0  0  0  0
   -1.7450    4.6121    4.9732 F   0  0  0  0  0  0  0  0  0  0  0  0
   -0.9594    4.2303    2.8006 C   0  0  0  0  0  0  0  0  0  0  0  0
    1.2253    3.8123    0.3807 C   0  0  0  0  0  0  0  0  0  0  0  0
    1.9360    4.1656   -0.7933 C   0  0  0  0  0  0  0  0  0  0  0  0
    1.2354    4.5390   -1.9567 C   0  0  0  0  0  0  0  0  0  0  0  0
    1.9537    4.8957   -3.1859 C   0  0  0  0  0  0  0  0  0  0  0  0
    2.9833    5.8322   -3.1566 C   0  0  0  0  0  0  0  0  0  0  0  0
    3.6589    6.1925   -4.3067 C   0  0  0  0  0  0  0  0  0  0  0  0
    3.3277    5.6285   -5.5337 C   0  0  0  0  0  0  0  0  0  0  0  0
    4.1098    5.9775   -7.0729 S   0  0  0  0  0  0  0  0  0  0  0  0
    5.1273    7.4560   -6.7403 C   0  0  0  0  0  0  0  0  0  0  0  0
    4.2877    8.7077   -6.5676 C   0  0  0  0  0  0  0  0  0  0  0  0
    2.3032    4.6803   -5.5452 C   0  0  0  0  0  0  0  0  0  0  0  0
    1.6235    4.3120   -4.4075 C   0  0  0  0  0  0  0  0  0  0  0  0
    1.9650    4.0943   -6.7138 F   0  0  0  0  0  0  0  0  0  0  0  0
   -0.1500    4.4685   -1.8949 C   0  0  0  0  0  0  0  0  0  0  0  0
   -1.2701    4.5905   -3.2373 S   0  0  0  0  0  0  0  0  0  0  0  0
    3.3202    3.8657   -0.6656 C   0  0  0  0  0  0  0  0  0  0  0  0
    3.6356    3.2565    0.5110 C   0  0  0  0  0  0  0  0  0  0  0  0
    2.2684    3.1334    1.5933 S   0  0  0  0  0  0  0  0  0  0  0  0
    4.8431    2.5621    0.8504 C   0  0  0  0  0  0  0  0  0  0  0  0
    4.9002    1.3485    1.4637 C   0  0  0  0  0  0  0  0  0  0  0  0
    6.2030    0.7870    1.4966 C   0  0  0  0  0  0  0  0  0  0  0  0
    6.5885   -0.4884    1.9468 C   0  0  0  0  0  0  0  0  0  0  0  0
    5.5978   -1.5166    2.2839 C   0  0  0  0  0  0  0  0  0  0  0  0
    5.7626   -2.3976    3.3529 C   0  0  0  0  0  0  0  0  0  0  0  0
    4.8614   -3.4179    3.5724 C   0  0  0  0  0  0  0  0  0  0  0  0
    3.7431   -3.5971    2.7568 C   0  0  0  0  0  0  0  0  0  0  0  0
    2.6602   -4.9329    3.1541 S   0  0  0  0  0  0  0  0  0  0  0  0
    1.8826   -5.3814    1.5525 C   0  0  0  0  0  0  0  0  0  0  0  0
    1.2839   -6.7693    1.6617 C   0  0  0  0  0  0  0  0  0  0  0  0
    3.5643   -2.6834    1.7235 C   0  0  0  0  0  0  0  0  0  0  0  0
    2.4863   -2.7451    0.9104 F   0  0  0  0  0  0  0  0  0  0  0  0
    4.4791   -1.6826    1.4710 C   0  0  0  0  0  0  0  0  0  0  0  0
    7.9525   -0.7599    1.9293 C   0  0  0  0  0  0  0  0  0  0  0  0
    8.9192    0.1568    1.4492 C   0  0  0  0  0  0  0  0  0  0  0  0
    8.5228    1.3999    0.9360 C   0  0  0  0  0  0  0  0  0  0  0  0
    9.4981    2.3576    0.3983 C   0  0  0  0  0  0  0  0  0  0  0  0
   10.5974    2.7593    1.1553 C   0  0  0  0  0  0  0  0  0  0  0  0
   11.5098    3.6575    0.6452 C   0  0  0  0  0  0  0  0  0  0  0  0
   11.3622    4.1965   -0.6317 C   0  0  0  0  0  0  0  0  0  0  0  0
   12.5773    5.3689   -1.1599 S   0  0  0  0  0  0  0  0  0  0  0  0
   12.8449    4.9700   -2.9272 C   0  0  0  0  0  0  0  0  0  0  0  0
   13.2848    3.5334   -3.1253 C   0  0  0  0  0  0  0  0  0  0  0  0
   10.2422    3.8119   -1.3617 C   0  0  0  0  0  0  0  0  0  0  0  0
    9.3294    2.9005   -0.8704 C   0  0  0  0  0  0  0  0  0  0  0  0
   10.0075    4.3209   -2.5918 F   0  0  0  0  0  0  0  0  0  0  0  0
    7.1642    1.6765    0.9576 C   0  0  0  0  0  0  0  0  0  0  0  0
    6.4149    3.1268    0.3382 S   0  0  0  0  0  0  0  0  0  0  0  0
   10.2337   -0.3999    1.4712 C   0  0  0  0  0  0  0  0  0  0  0  0
   10.2621   -1.6620    1.9414 C   0  0  0  0  0  0  0  0  0  0  0  0
    8.7045   -2.2668    2.3912 S   0  0  0  0  0  0  0  0  0  0  0  0
    2.5046   -4.0685    8.7743 H   0  0  0  0  0  0  0  0  0  0  0  0
    2.4870   -1.9785    7.2204 H   0  0  0  0  0  0  0  0  0  0  0  0
    3.5494   -1.8027    5.0033 H   0  0  0  0  0  0  0  0  0  0  0  0
    4.7616    0.3262    4.8590 H   0  0  0  0  0  0  0  0  0  0  0  0
    2.1872    4.4802    4.2973 H   0  0  0  0  0  0  0  0  0  0  0  0
    3.6945    5.2139    4.8781 H   0  0  0  0  0  0  0  0  0  0  0  0
    1.8682    3.3960    6.5421 H   0  0  0  0  0  0  0  0  0  0  0  0
    3.3900    4.1031    7.0977 H   0  0  0  0  0  0  0  0  0  0  0  0
    2.0090    5.1426    6.7156 H   0  0  0  0  0  0  0  0  0  0  0  0
   -0.1395    0.3012    4.4397 H   0  0  0  0  0  0  0  0  0  0  0  0
    1.0454   -7.1380    5.1704 H   0  0  0  0  0  0  0  0  0  0  0  0
    0.1652   -9.3977    5.1382 H   0  0  0  0  0  0  0  0  0  0  0  0
   -1.7713  -12.5237    5.0030 H   0  0  0  0  0  0  0  0  0  0  0  0
   -0.6303  -11.3177    5.6129 H   0  0  0  0  0  0  0  0  0  0  0  0
    0.2687  -12.4154    3.5421 H   0  0  0  0  0  0  0  0  0  0  0  0
   -0.0761  -10.7164    3.1961 H   0  0  0  0  0  0  0  0  0  0  0  0
   -1.1981  -11.9689    2.6637 H   0  0  0  0  0  0  0  0  0  0  0  0
   -2.8939   -5.5761    4.5559 H   0  0  0  0  0  0  0  0  0  0  0  0
   -1.8163   -5.0875    2.4478 H   0  0  0  0  0  0  0  0  0  0  0  0
   -1.8894   -2.0317    0.0452 H   0  0  0  0  0  0  0  0  0  0  0  0
   -2.2713   -5.0380   -2.4916 H   0  0  0  0  0  0  0  0  0  0  0  0
   -2.4961   -3.2790   -2.3685 H   0  0  0  0  0  0  0  0  0  0  0  0
   -3.6502   -4.1480    1.2549 H   0  0  0  0  0  0  0  0  0  0  0  0
   -4.0876   -2.6851    0.3659 H   0  0  0  0  0  0  0  0  0  0  0  0
   -2.9368   -7.4250    0.3384 H   0  0  0  0  0  0  0  0  0  0  0  0
   -1.9742   -5.9739    0.2086 H   0  0  0  0  0  0  0  0  0  0  0  0
   -5.6507   -4.0182   -1.0017 H   0  0  0  0  0  0  0  0  0  0  0  0
   -4.6256   -5.3405   -3.0915 H   0  0  0  0  0  0  0  0  0  0  0  0
   -5.4986   -3.5264   -6.3268 H   0  0  0  0  0  0  0  0  0  0  0  0
   -4.9407   -5.0718   -5.6552 H   0  0  0  0  0  0  0  0  0  0  0  0
   -7.0579   -3.5352   -2.7926 H   0  0  0  0  0  0  0  0  0  0  0  0
   -7.0467   -5.2958   -2.7862 H   0  0  0  0  0  0  0  0  0  0  0  0
   -7.2239   -7.6542   -5.2492 H   0  0  0  0  0  0  0  0  0  0  0  0
   -6.2701   -6.8181   -4.0760 H   0  0  0  0  0  0  0  0  0  0  0  0
   -8.1468   -3.4796   -6.0237 H   0  0  0  0  0  0  0  0  0  0  0  0
   -7.9416   -1.6767   -2.8558 H   0  0  0  0  0  0  0  0  0  0  0  0
   -5.8729   -1.5712   -1.3771 H   0  0  0  0  0  0  0  0  0  0  0  0
   -6.4102   -2.1743    0.9592 H   0  0  0  0  0  0  0  0  0  0  0  0
   -9.2970    0.8145    3.5097 H   0  0  0  0  0  0  0  0  0  0  0  0
   -9.4160   -0.6358    4.5235 H   0  0  0  0  0  0  0  0  0  0  0  0
  -11.3076   -0.5613    2.8931 H   0  0  0  0  0  0  0  0  0  0  0  0
  -10.2549   -1.9438    2.5616 H   0  0  0  0  0  0  0  0  0  0  0  0
  -10.1632   -0.4968    1.5509 H   0  0  0  0  0  0  0  0  0  0  0  0
   -7.7635    2.2256   -0.7797 H   0  0  0  0  0  0  0  0  0  0  0  0
   -2.7201    1.4864   -5.7983 H   0  0  0  0  0  0  0  0  0  0  0  0
   -1.6724    1.9523   -7.9322 H   0  0  0  0  0  0  0  0  0  0  0  0
   -0.7495    3.0048  -11.3260 H   0  0  0  0  0  0  0  0  0  0  0  0
   -0.8558    3.0605   -9.5619 H   0  0  0  0  0  0  0  0  0  0  0  0
   -0.8481    0.5028   -9.5566 H   0  0  0  0  0  0  0  0  0  0  0  0
    0.6191    1.1735  -10.2791 H   0  0  0  0  0  0  0  0  0  0  0  0
   -0.6710    0.5398  -11.3097 H   0  0  0  0  0  0  0  0  0  0  0  0
   -6.5828    1.6017   -7.6435 H   0  0  0  0  0  0  0  0  0  0  0  0
   -3.4713    3.4906   -4.8580 H   0  0  0  0  0  0  0  0  0  0  0  0
   -2.9143    3.7288   -0.1168 H   0  0  0  0  0  0  0  0  0  0  0  0
   -1.4318    1.5286    0.8324 H   0  0  0  0  0  0  0  0  0  0  0  0
   -2.6705    0.7770    2.8042 H   0  0  0  0  0  0  0  0  0  0  0  0
   -4.4142    0.3981    4.1287 H   0  0  0  0  0  0  0  0  0  0  0  0
   -5.2761    1.0184    5.5437 H   0  0  0  0  0  0  0  0  0  0  0  0
   -6.4045    1.8099    3.4848 H   0  0  0  0  0  0  0  0  0  0  0  0
   -5.6905    3.1810    4.3369 H   0  0  0  0  0  0  0  0  0  0  0  0
   -4.8999    2.5244    2.8985 H   0  0  0  0  0  0  0  0  0  0  0  0
   -0.4811    5.1969    2.8227 H   0  0  0  0  0  0  0  0  0  0  0  0
    3.2489    6.3006   -2.2207 H   0  0  0  0  0  0  0  0  0  0  0  0
    4.4527    6.9179   -4.2349 H   0  0  0  0  0  0  0  0  0  0  0  0
    5.7588    7.5331   -7.6254 H   0  0  0  0  0  0  0  0  0  0  0  0
    5.7632    7.2552   -5.8791 H   0  0  0  0  0  0  0  0  0  0  0  0
    4.9348    9.5669   -6.4018 H   0  0  0  0  0  0  0  0  0  0  0  0
    3.6111    8.6130   -5.7210 H   0  0  0  0  0  0  0  0  0  0  0  0
    3.6939    8.8865   -7.4609 H   0  0  0  0  0  0  0  0  0  0  0  0
    0.8560    3.5585   -4.4794 H   0  0  0  0  0  0  0  0  0  0  0  0
    4.0362    4.0066   -1.4558 H   0  0  0  0  0  0  0  0  0  0  0  0
    4.0300    0.8661    1.8709 H   0  0  0  0  0  0  0  0  0  0  0  0
    6.5995   -2.2807    4.0232 H   0  0  0  0  0  0  0  0  0  0  0  0
    5.0082   -4.1064    4.3907 H   0  0  0  0  0  0  0  0  0  0  0  0
    1.1138   -4.6477    1.3162 H   0  0  0  0  0  0  0  0  0  0  0  0
    2.6650   -5.3499    0.7960 H   0  0  0  0  0  0  0  0  0  0  0  0
    2.0489   -7.4975    1.9215 H   0  0  0  0  0  0  0  0  0  0  0  0
    0.8458   -7.0467    0.7053 H   0  0  0  0  0  0  0  0  0  0  0  0
    0.5107   -6.7939    2.4266 H   0  0  0  0  0  0  0  0  0  0  0  0
    4.3135   -1.0496    0.6136 H   0  0  0  0  0  0  0  0  0  0  0  0
   10.7261    2.3723    2.1547 H   0  0  0  0  0  0  0  0  0  0  0  0
   12.3616    3.9645    1.2321 H   0  0  0  0  0  0  0  0  0  0  0  0
   11.9398    5.2002   -3.4846 H   0  0  0  0  0  0  0  0  0  0  0  0
   13.6304    5.6658   -3.2221 H   0  0  0  0  0  0  0  0  0  0  0  0
   14.1736    3.3212   -2.5347 H   0  0  0  0  0  0  0  0  0  0  0  0
   13.5129    3.3620   -4.1753 H   0  0  0  0  0  0  0  0  0  0  0  0
   12.4984    2.8420   -2.8280 H   0  0  0  0  0  0  0  0  0  0  0  0
    8.4921    2.6211   -1.4905 H   0  0  0  0  0  0  0  0  0  0  0  0
   11.1039    0.1295    1.1282 H   0  0  0  0  0  0  0  0  0  0  0  0
   11.1129   -2.3037    2.0617 H   0  0  0  0  0  0  0  0  0  0  0  0
  1  2  2  0  0  0  0
  2  3  1  0  0  0  0
  3  4  2  0  0  0  0
  4  5  1  0  0  0  0
  5  6  2  0  0  0  0
  6  7  1  0  0  0  0
  7  8  2  0  0  0  0
  8  9  1  0  0  0  0
  9 10  1  0  0  0  0
 10 11  1  0  0  0  0
  8 12  1  0  0  0  0
 12 13  1  0  0  0  0
 12 14  2  0  0  0  0
  4 15  1  0  0  0  0
 15 16  2  0  0  0  0
 16 17  1  0  0  0  0
 17 18  1  0  0  0  0
 18 19  2  0  0  0  0
 19 20  1  0  0  0  0
 20 21  2  0  0  0  0
 21 22  1  0  0  0  0
 22 23  1  0  0  0  0
 23 24  1  0  0  0  0
 21 25  1  0  0  0  0
 25 26  2  0  0  0  0
 25 27  1  0  0  0  0
 17 28  2  0  0  0  0
 28 29  1  0  0  0  0
 16 30  1  0  0  0  0
 30 31  2  0  0  0  0
 31 32  1  0  0  0  0
 31 33  1  0  0  0  0
 33 34  1  0  0  0  0
 34 35  1  0  0  0  0
 35 36  1  0  0  0  0
 36 37  1  0  0  0  0
 36 38  1  0  0  0  0
 38 39  2  0  0  0  0
 38 40  1  0  0  0  0
 36 41  1  0  0  0  0
 41 42  1  0  0  0  0
 42 43  1  0  0  0  0
 43 44  1  0  0  0  0
 44 45  1  0  0  0  0
 45 46  1  0  0  0  0
 45 47  1  0  0  0  0
 47 48  2  0  0  0  0
 47 49  1  0  0  0  0
 45 50  1  0  0  0  0
 50 51  1  0  0  0  0
 51 52  2  0  0  0  0
 52 53  1  0  0  0  0
 53 54  2  0  0  0  0
 54 55  1  0  0  0  0
 55 56  2  0  0  0  0
 56 57  1  0  0  0  0
 57 58  2  0  0  0  0
 58 59  1  0  0  0  0
 59 60  1  0  0  0  0
 60 61  1  0  0  0  0
 58 62  1  0  0  0  0
 62 63  1  0  0  0  0
 62 64  2  0  0  0  0
 54 65  1  0  0  0  0
 65 66  2  0  0  0  0
 66 67  1  0  0  0  0
 67 68  1  0  0  0  0
 68 69  2  0  0  0  0
 69 70  1  0  0  0  0
 70 71  2  0  0  0  0
 71 72  1  0  0  0  0
 72 73  1  0  0  0  0
 73 74  1  0  0  0  0
 71 75  1  0  0  0  0
 75 76  2  0  0  0  0
 75 77  1  0  0  0  0
 67 78  2  0  0  0  0
 78 79  1  0  0  0  0
 66 80  1  0  0  0  0
 80 81  2  0  0  0  0
 81 82  1  0  0  0  0
 81 83  1  0  0  0  0
 83 84  2  0  0  0  0
 84 85  1  0  0  0  0
 85 86  2  0  0  0  0
 86 87  1  0  0  0  0
 87 88  2  0  0  0  0
 88 89  1  0  0  0  0
 89 90  2  0  0  0  0
 90 91  1  0  0  0  0
 91 92  1  0  0  0  0
 92 93  1  0  0  0  0
 90 94  1  0  0  0  0
 94 95  1  0  0  0  0
 94 96  2  0  0  0  0
 86 97  1  0  0  0  0
 97 98  2  0  0  0  0
 98 99  1  0  0  0  0
 99100  1  0  0  0  0
100101  2  0  0  0  0
101102  1  0  0  0  0
102103  2  0  0  0  0
103104  1  0  0  0  0
104105  1  0  0  0  0
105106  1  0  0  0  0
103107  1  0  0  0  0
107108  2  0  0  0  0
107109  1  0  0  0  0
 99110  2  0  0  0  0
110111  1  0  0  0  0
 98112  1  0  0  0  0
112113  2  0  0  0  0
113114  1  0  0  0  0
113115  1  0  0  0  0
115116  2  0  0  0  0
116117  1  0  0  0  0
117118  2  0  0  0  0
118119  1  0  0  0  0
119120  2  0  0  0  0
120121  1  0  0  0  0
121122  2  0  0  0  0
122123  1  0  0  0  0
123124  1  0  0  0  0
124125  1  0  0  0  0
122126  1  0  0  0  0
126127  1  0  0  0  0
126128  2  0  0  0  0
118129  1  0  0  0  0
129130  2  0  0  0  0
130131  1  0  0  0  0
131132  1  0  0  0  0
132133  2  0  0  0  0
133134  1  0  0  0  0
134135  2  0  0  0  0
135136  1  0  0  0  0
136137  1  0  0  0  0
137138  1  0  0  0  0
135139  1  0  0  0  0
139140  2  0  0  0  0
139141  1  0  0  0  0
131142  2  0  0  0  0
142143  1  0  0  0  0
130144  1  0  0  0  0
144145  2  0  0  0  0
145146  1  0  0  0  0
 29  1  1  0  0  0  0
 37 33  1  0  0  0  0
 46 42  1  0  0  0  0
 79 51  1  0  0  0  0
111 83  1  0  0  0  0
143115  1  0  0  0  0
 28  3  1  0  0  0  0
 78 53  1  0  0  0  0
110 85  1  0  0  0  0
142117  1  0  0  0  0
 14  5  1  0  0  0  0
 32 15  1  0  0  0  0
 64 55  1  0  0  0  0
 82 65  1  0  0  0  0
 96 87  1  0  0  0  0
114 97  1  0  0  0  0
128119  1  0  0  0  0
146129  1  0  0  0  0
 26 18  1  0  0  0  0
 76 68  1  0  0  0  0
108100  1  0  0  0  0
140132  1  0  0  0  0
  1147  1  0  0  0  0
  2148  1  0  0  0  0
  6149  1  0  0  0  0
  7150  1  0  0  0  0
 10151  1  0  0  0  0
 10152  1  0  0  0  0
 11153  1  0  0  0  0
 11154  1  0  0  0  0
 11155  1  0  0  0  0
 14156  1  0  0  0  0
 19157  1  0  0  0  0
 20158  1  0  0  0  0
 23159  1  0  0  0  0
 23160  1  0  0  0  0
 24161  1  0  0  0  0
 24162  1  0  0  0  0
 24163  1  0  0  0  0
 26164  1  0  0  0  0
 30165  1  0  0  0  0
 33166  1  0  0  0  0
 35167  1  0  0  0  0
 35168  1  0  0  0  0
 37169  1  0  0  0  0
 37170  1  0  0  0  0
 40171  1  0  0  0  0
 40172  1  0  0  0  0
 41173  1  0  0  0  0
 42174  1  0  0  0  0
 44175  1  0  0  0  0
 44176  1  0  0  0  0
 46177  1  0  0  0  0
 46178  1  0  0  0  0
 49179  1  0  0  0  0
 49180  1  0  0  0  0
 50181  1  0  0  0  0
 52182  1  0  0  0  0
 56183  1  0  0  0  0
 57184  1  0  0  0  0
 60185  1  0  0  0  0
 60186  1  0  0  0  0
 61187  1  0  0  0  0
 61188  1  0  0  0  0
 61189  1  0  0  0  0
 64190  1  0  0  0  0
 69191  1  0  0  0  0
 70192  1  0  0  0  0
 73193  1  0  0  0  0
 73194  1  0  0  0  0
 74195  1  0  0  0  0
 74196  1  0  0  0  0
 74197  1  0  0  0  0
 76198  1  0  0  0  0
 80199  1  0  0  0  0
 84200  1  0  0  0  0
 88201  1  0  0  0  0
 89202  1  0  0  0  0
 92203  1  0  0  0  0
 92204  1  0  0  0  0
 93205  1  0  0  0  0
 93206  1  0  0  0  0
 93207  1  0  0  0  0
 96208  1  0  0  0  0
101209  1  0  0  0  0
102210  1  0  0  0  0
105211  1  0  0  0  0
105212  1  0  0  0  0
106213  1  0  0  0  0
106214  1  0  0  0  0
106215  1  0  0  0  0
108216  1  0  0  0  0
112217  1  0  0  0  0
116218  1  0  0  0  0
120219  1  0  0  0  0
121220  1  0  0  0  0
124221  1  0  0  0  0
124222  1  0  0  0  0
125223  1  0  0  0  0
125224  1  0  0  0  0
125225  1  0  0  0  0
128226  1  0  0  0  0
133227  1  0  0  0  0
134228  1  0  0  0  0
137229  1  0  0  0  0
137230  1  0  0  0  0
138231  1  0  0  0  0
138232  1  0  0  0  0
138233  1  0  0  0  0
140234  1  0  0  0  0
144235  1  0  0  0  0
145236  1  0  0  0  0
M  END
