
  xtb     03022213183D
 energy: -451.447327070059 gnorm: 0.000215329663 xtb: 6.4.1 (unknown)
229254  0     0  0            999 V2000
   13.6707   -0.1526   -0.2482 C   0  0  0  0  0  0  0  0  0  0  0  0
   14.2868    0.9596    0.2004 C   0  0  0  0  0  0  0  0  0  0  0  0
   13.8963    1.3101    1.5264 C   0  0  0  0  0  0  0  0  0  0  0  0
   14.3220    2.4009    2.2998 C   0  0  0  0  0  0  0  0  0  0  0  0
   15.3290    3.3286    1.8107 C   0  0  0  0  0  0  0  0  0  0  0  0
   15.0263    5.0391    1.7402 S   0  0  0  0  0  0  0  0  0  0  0  0
   16.5984    5.3693    1.0950 C   0  0  0  0  0  0  0  0  0  0  0  0
   17.0047    6.7542    0.7304 C   0  0  0  0  0  0  0  0  0  0  0  0
   16.3936    7.1723   -0.6090 C   0  0  0  0  0  0  0  0  0  0  0  0
   17.3018    4.2116    0.9459 C   0  0  0  0  0  0  0  0  0  0  0  0
   18.9044    4.1337    0.3370 Cl  0  0  0  0  0  0  0  0  0  0  0  0
   16.5865    3.0526    1.3529 C   0  0  0  0  0  0  0  0  0  0  0  0
   17.2786    1.4820    1.3333 Cl  0  0  0  0  0  0  0  0  0  0  0  0
   13.7242    2.5610    3.5436 C   0  0  0  0  0  0  0  0  0  0  0  0
   12.7535    1.6673    4.0508 C   0  0  0  0  0  0  0  0  0  0  0  0
   12.3498    0.5582    3.2916 C   0  0  0  0  0  0  0  0  0  0  0  0
   11.3317   -0.3477    3.7954 C   0  0  0  0  0  0  0  0  0  0  0  0
    9.8894   -0.6804    2.8830 S   0  0  0  0  0  0  0  0  0  0  0  0
    9.2207   -1.6544    4.1450 C   0  0  0  0  0  0  0  0  0  0  0  0
    7.8509   -2.2233    4.0284 C   0  0  0  0  0  0  0  0  0  0  0  0
    6.7985   -1.1455    4.2971 C   0  0  0  0  0  0  0  0  0  0  0  0
   10.0816   -1.7210    5.1993 C   0  0  0  0  0  0  0  0  0  0  0  0
   11.2817   -0.9856    5.0038 C   0  0  0  0  0  0  0  0  0  0  0  0
   12.5568   -0.9741    6.1541 Cl  0  0  0  0  0  0  0  0  0  0  0  0
    9.7659   -2.5968    6.6407 Cl  0  0  0  0  0  0  0  0  0  0  0  0
   12.9276    0.4134    2.0366 C   0  0  0  0  0  0  0  0  0  0  0  0
   12.5722   -0.8486    0.8921 S   0  0  0  0  0  0  0  0  0  0  0  0
   12.2534    2.0912    5.3124 C   0  0  0  0  0  0  0  0  0  0  0  0
   12.8232    3.2329    5.7626 C   0  0  0  0  0  0  0  0  0  0  0  0
   14.0283    3.8594    4.6643 S   0  0  0  0  0  0  0  0  0  0  0  0
   12.4639    3.9939    6.9838 C   0  0  0  0  0  0  0  0  0  0  0  0
   12.8300    3.0924    8.5467 S   0  0  0  0  0  0  0  0  0  0  0  0
   11.6894    4.2107    9.4185 C   0  0  0  0  0  0  0  0  0  0  0  0
   10.4850    4.4781    8.4923 C   0  0  0  0  0  0  0  0  0  0  0  0
   10.9519    4.2170    7.0496 C   0  0  0  0  0  0  0  0  0  0  0  0
   10.0027    5.9334    8.7235 C   0  0  0  0  0  0  0  0  0  0  0  0
    8.9826    6.1684    9.3242 O   0  0  0  0  0  0  0  0  0  0  0  0
   10.8158    6.8930    8.2376 N   0  0  0  0  0  0  0  0  0  0  0  0
    9.4176    3.5714    8.8735 N   0  0  0  0  0  0  0  0  0  0  0  0
    8.3342    3.2316    8.1140 C   0  0  0  0  0  0  0  0  0  0  0  0
    8.0729    3.3718    6.7855 C   0  0  0  0  0  0  0  0  0  0  0  0
    6.9196    2.6668    6.3576 C   0  0  0  0  0  0  0  0  0  0  0  0
    6.4514    2.5293    5.0409 C   0  0  0  0  0  0  0  0  0  0  0  0
    7.2485    3.0040    3.9230 C   0  0  0  0  0  0  0  0  0  0  0  0
    8.9404    2.5801    3.8197 S   0  0  0  0  0  0  0  0  0  0  0  0
    9.1417    3.4016    2.3112 C   0  0  0  0  0  0  0  0  0  0  0  0
   10.4449    3.4051    1.5905 C   0  0  0  0  0  0  0  0  0  0  0  0
   10.4665    2.3416    0.4908 C   0  0  0  0  0  0  0  0  0  0  0  0
    7.9622    3.9603    1.9212 C   0  0  0  0  0  0  0  0  0  0  0  0
    7.7730    4.8669    0.4775 Cl  0  0  0  0  0  0  0  0  0  0  0  0
    6.8899    3.7415    2.8296 C   0  0  0  0  0  0  0  0  0  0  0  0
    5.3397    4.4301    2.5886 Cl  0  0  0  0  0  0  0  0  0  0  0  0
    5.2539    1.8422    4.8699 C   0  0  0  0  0  0  0  0  0  0  0  0
    4.5224    1.2933    5.9512 C   0  0  0  0  0  0  0  0  0  0  0  0
    5.0246    1.3908    7.2631 C   0  0  0  0  0  0  0  0  0  0  0  0
    4.3106    0.8116    8.3889 C   0  0  0  0  0  0  0  0  0  0  0  0
    5.0894   -0.3008    9.4735 S   0  0  0  0  0  0  0  0  0  0  0  0
    3.6639   -0.4783   10.4385 C   0  0  0  0  0  0  0  0  0  0  0  0
    3.6644   -1.3294   11.6599 C   0  0  0  0  0  0  0  0  0  0  0  0
    4.3075   -0.5921   12.8368 C   0  0  0  0  0  0  0  0  0  0  0  0
    2.6571    0.2954    9.9435 C   0  0  0  0  0  0  0  0  0  0  0  0
    3.0173    1.0233    8.7773 C   0  0  0  0  0  0  0  0  0  0  0  0
    1.9424    2.1126    7.9992 Cl  0  0  0  0  0  0  0  0  0  0  0  0
    1.0920    0.3936   10.6402 Cl  0  0  0  0  0  0  0  0  0  0  0  0
    6.2300    2.0528    7.4265 C   0  0  0  0  0  0  0  0  0  0  0  0
    7.0922    2.2847    8.9266 S   0  0  0  0  0  0  0  0  0  0  0  0
    3.3541    0.6221    5.5134 C   0  0  0  0  0  0  0  0  0  0  0  0
    3.1939    0.6372    4.1609 C   0  0  0  0  0  0  0  0  0  0  0  0
    4.4986    1.4780    3.3479 S   0  0  0  0  0  0  0  0  0  0  0  0
    2.1039    0.1348    3.3908 C   0  0  0  0  0  0  0  0  0  0  0  0
    2.0667   -0.0548    2.0418 C   0  0  0  0  0  0  0  0  0  0  0  0
    0.7993   -0.4639    1.5628 C   0  0  0  0  0  0  0  0  0  0  0  0
    0.4082   -0.6755    0.2295 C   0  0  0  0  0  0  0  0  0  0  0  0
    1.3313   -0.4496   -0.8703 C   0  0  0  0  0  0  0  0  0  0  0  0
    1.6151   -1.6693   -2.0764 S   0  0  0  0  0  0  0  0  0  0  0  0
    2.7381   -0.6709   -2.9336 C   0  0  0  0  0  0  0  0  0  0  0  0
    3.4583   -1.1713   -4.1369 C   0  0  0  0  0  0  0  0  0  0  0  0
    4.7767   -1.8426   -3.7441 C   0  0  0  0  0  0  0  0  0  0  0  0
    2.8760    0.5323   -2.3083 C   0  0  0  0  0  0  0  0  0  0  0  0
    3.9059    1.7863   -2.8656 Cl  0  0  0  0  0  0  0  0  0  0  0  0
    2.0759    0.6653   -1.1417 C   0  0  0  0  0  0  0  0  0  0  0  0
    2.0103    2.1211   -0.2329 Cl  0  0  0  0  0  0  0  0  0  0  0  0
   -0.9043   -1.0716    0.0138 C   0  0  0  0  0  0  0  0  0  0  0  0
   -1.8410   -1.2199    1.0645 C   0  0  0  0  0  0  0  0  0  0  0  0
   -1.4581   -0.9875    2.3984 C   0  0  0  0  0  0  0  0  0  0  0  0
   -2.4372   -1.0750    3.4691 C   0  0  0  0  0  0  0  0  0  0  0  0
   -3.9424   -0.2079    3.3537 S   0  0  0  0  0  0  0  0  0  0  0  0
   -4.5033   -0.8127    4.8749 C   0  0  0  0  0  0  0  0  0  0  0  0
   -5.8626   -0.4659    5.3738 C   0  0  0  0  0  0  0  0  0  0  0  0
   -6.9477   -0.9986    4.4362 C   0  0  0  0  0  0  0  0  0  0  0  0
   -3.5637   -1.6273    5.4320 C   0  0  0  0  0  0  0  0  0  0  0  0
   -2.3895   -1.7733    4.6428 C   0  0  0  0  0  0  0  0  0  0  0  0
   -1.1026   -2.8072    5.1001 Cl  0  0  0  0  0  0  0  0  0  0  0  0
   -3.7535   -2.4233    6.9408 Cl  0  0  0  0  0  0  0  0  0  0  0  0
   -0.1364   -0.6240    2.6172 C   0  0  0  0  0  0  0  0  0  0  0  0
    0.5724   -0.2299    4.1568 S   0  0  0  0  0  0  0  0  0  0  0  0
   -3.1187   -1.5847    0.5797 C   0  0  0  0  0  0  0  0  0  0  0  0
   -3.1825   -1.6814   -0.7783 C   0  0  0  0  0  0  0  0  0  0  0  0
   -1.6380   -1.3614   -1.5404 S   0  0  0  0  0  0  0  0  0  0  0  0
   -4.3536   -1.9372   -1.5482 C   0  0  0  0  0  0  0  0  0  0  0  0
   -4.4836   -2.0409   -2.9009 C   0  0  0  0  0  0  0  0  0  0  0  0
   -5.8249   -2.2089   -3.3260 C   0  0  0  0  0  0  0  0  0  0  0  0
   -6.3083   -2.3631   -4.6364 C   0  0  0  0  0  0  0  0  0  0  0  0
   -5.4034   -2.4326   -5.7721 C   0  0  0  0  0  0  0  0  0  0  0  0
   -4.0980   -3.5826   -5.8045 S   0  0  0  0  0  0  0  0  0  0  0  0
   -3.5892   -3.0814   -7.3803 C   0  0  0  0  0  0  0  0  0  0  0  0
   -2.4589   -3.7544   -8.0774 C   0  0  0  0  0  0  0  0  0  0  0  0
   -2.9400   -5.0076   -8.8129 C   0  0  0  0  0  0  0  0  0  0  0  0
   -4.3951   -2.0843   -7.8419 C   0  0  0  0  0  0  0  0  0  0  0  0
   -4.2009   -1.3283   -9.3698 Cl  0  0  0  0  0  0  0  0  0  0  0  0
   -5.4217   -1.7106   -6.9331 C   0  0  0  0  0  0  0  0  0  0  0  0
   -6.5012   -0.4187   -7.2518 Cl  0  0  0  0  0  0  0  0  0  0  0  0
   -7.6840   -2.4789   -4.7913 C   0  0  0  0  0  0  0  0  0  0  0  0
   -8.5918   -2.4379   -3.7032 C   0  0  0  0  0  0  0  0  0  0  0  0
   -8.1085   -2.2919   -2.3911 C   0  0  0  0  0  0  0  0  0  0  0  0
   -9.0008   -2.2853   -1.2435 C   0  0  0  0  0  0  0  0  0  0  0  0
  -10.1546   -3.5661   -1.0019 S   0  0  0  0  0  0  0  0  0  0  0  0
  -10.7080   -2.8964    0.4937 C   0  0  0  0  0  0  0  0  0  0  0  0
  -11.7428   -3.5824    1.3153 C   0  0  0  0  0  0  0  0  0  0  0  0
  -11.0986   -4.5717    2.2896 C   0  0  0  0  0  0  0  0  0  0  0  0
  -10.0262   -1.7516    0.7786 C   0  0  0  0  0  0  0  0  0  0  0  0
   -9.0637   -1.3972   -0.2046 C   0  0  0  0  0  0  0  0  0  0  0  0
   -8.1625    0.0575   -0.1084 Cl  0  0  0  0  0  0  0  0  0  0  0  0
  -10.2924   -0.8069    2.1850 Cl  0  0  0  0  0  0  0  0  0  0  0  0
   -6.7319   -2.1885   -2.2369 C   0  0  0  0  0  0  0  0  0  0  0  0
   -5.8930   -2.0530   -0.7214 S   0  0  0  0  0  0  0  0  0  0  0  0
   -9.9360   -2.5525   -4.1336 C   0  0  0  0  0  0  0  0  0  0  0  0
  -10.0630   -2.7146   -5.4814 C   0  0  0  0  0  0  0  0  0  0  0  0
   -8.5150   -2.7297   -6.2982 S   0  0  0  0  0  0  0  0  0  0  0  0
  -11.2632   -2.8493   -6.2388 C   0  0  0  0  0  0  0  0  0  0  0  0
  -11.3739   -3.0451   -7.5823 C   0  0  0  0  0  0  0  0  0  0  0  0
  -12.7142   -3.1415   -8.0321 C   0  0  0  0  0  0  0  0  0  0  0  0
  -13.1760   -3.3269   -9.3455 C   0  0  0  0  0  0  0  0  0  0  0  0
  -12.2471   -3.5515  -10.4400 C   0  0  0  0  0  0  0  0  0  0  0  0
  -12.2926   -2.5943  -11.8896 S   0  0  0  0  0  0  0  0  0  0  0  0
  -10.9680   -3.4561  -12.5927 C   0  0  0  0  0  0  0  0  0  0  0  0
  -10.4138   -3.0765  -13.9214 C   0  0  0  0  0  0  0  0  0  0  0  0
   -9.3023   -2.0344  -13.7733 C   0  0  0  0  0  0  0  0  0  0  0  0
  -10.5253   -4.4241  -11.7407 C   0  0  0  0  0  0  0  0  0  0  0  0
   -9.2261   -5.4876  -12.0948 Cl  0  0  0  0  0  0  0  0  0  0  0  0
  -11.2492   -4.4839  -10.5207 C   0  0  0  0  0  0  0  0  0  0  0  0
  -10.9385   -5.6700   -9.3190 Cl  0  0  0  0  0  0  0  0  0  0  0  0
  -14.5517   -3.3066   -9.5382 C   0  0  0  0  0  0  0  0  0  0  0  0
  -15.4754   -3.1335   -8.4807 C   0  0  0  0  0  0  0  0  0  0  0  0
  -15.0130   -2.9466   -7.1680 C   0  0  0  0  0  0  0  0  0  0  0  0
  -15.9344   -2.7009   -6.0704 C   0  0  0  0  0  0  0  0  0  0  0  0
  -15.8955   -3.6443   -4.6117 S   0  0  0  0  0  0  0  0  0  0  0  0
  -17.1897   -2.7414   -3.9017 C   0  0  0  0  0  0  0  0  0  0  0  0
  -17.7368   -3.0938   -2.5626 C   0  0  0  0  0  0  0  0  0  0  0  0
  -18.8437   -4.1441   -2.6833 C   0  0  0  0  0  0  0  0  0  0  0  0
  -17.6185   -1.7721   -4.7588 C   0  0  0  0  0  0  0  0  0  0  0  0
  -16.9063   -1.7425   -5.9873 C   0  0  0  0  0  0  0  0  0  0  0  0
  -17.1996   -0.5608   -7.1976 Cl  0  0  0  0  0  0  0  0  0  0  0  0
  -18.8871   -0.6726   -4.4023 Cl  0  0  0  0  0  0  0  0  0  0  0  0
  -13.6386   -2.9765   -6.9724 C   0  0  0  0  0  0  0  0  0  0  0  0
  -12.8253   -2.7531   -5.4487 S   0  0  0  0  0  0  0  0  0  0  0  0
  -16.8216   -3.2259   -8.9407 C   0  0  0  0  0  0  0  0  0  0  0  0
  -16.9067   -3.4372  -10.2697 C   0  0  0  0  0  0  0  0  0  0  0  0
  -15.3699   -3.5481  -11.0560 S   0  0  0  0  0  0  0  0  0  0  0  0
   13.7860   -0.6276   -1.2028 H   0  0  0  0  0  0  0  0  0  0  0  0
   14.9886    1.5285   -0.3807 H   0  0  0  0  0  0  0  0  0  0  0  0
   18.0933    6.7916    0.6656 H   0  0  0  0  0  0  0  0  0  0  0  0
   16.6763    7.4455    1.5090 H   0  0  0  0  0  0  0  0  0  0  0  0
   16.7191    6.4997   -1.3985 H   0  0  0  0  0  0  0  0  0  0  0  0
   16.7049    8.1821   -0.8620 H   0  0  0  0  0  0  0  0  0  0  0  0
   15.3080    7.1442   -0.5530 H   0  0  0  0  0  0  0  0  0  0  0  0
    7.7441   -3.0331    4.7519 H   0  0  0  0  0  0  0  0  0  0  0  0
    7.7065   -2.6275    3.0247 H   0  0  0  0  0  0  0  0  0  0  0  0
    5.7995   -1.5650    4.2122 H   0  0  0  0  0  0  0  0  0  0  0  0
    6.9200   -0.7366    5.2977 H   0  0  0  0  0  0  0  0  0  0  0  0
    6.9005   -0.3367    3.5773 H   0  0  0  0  0  0  0  0  0  0  0  0
   11.4888    1.5570    5.8438 H   0  0  0  0  0  0  0  0  0  0  0  0
   13.0333    4.9280    7.0211 H   0  0  0  0  0  0  0  0  0  0  0  0
   11.3932    3.7335   10.3495 H   0  0  0  0  0  0  0  0  0  0  0  0
   12.2275    5.1321    9.6475 H   0  0  0  0  0  0  0  0  0  0  0  0
   10.4886    3.2906    6.7199 H   0  0  0  0  0  0  0  0  0  0  0  0
   10.6551    5.0154    6.3682 H   0  0  0  0  0  0  0  0  0  0  0  0
   11.6573    6.6901    7.7291 H   0  0  0  0  0  0  0  0  0  0  0  0
   10.5495    7.8559    8.3647 H   0  0  0  0  0  0  0  0  0  0  0  0
    9.2077    3.6139    9.8620 H   0  0  0  0  0  0  0  0  0  0  0  0
    8.6251    3.9915    6.1096 H   0  0  0  0  0  0  0  0  0  0  0  0
   10.5987    4.3896    1.1428 H   0  0  0  0  0  0  0  0  0  0  0  0
   11.2511    3.2154    2.3003 H   0  0  0  0  0  0  0  0  0  0  0  0
   11.4275    2.3519   -0.0170 H   0  0  0  0  0  0  0  0  0  0  0  0
   10.3032    1.3540    0.9160 H   0  0  0  0  0  0  0  0  0  0  0  0
    9.6845    2.5388   -0.2372 H   0  0  0  0  0  0  0  0  0  0  0  0
    4.2192   -2.2484   11.4620 H   0  0  0  0  0  0  0  0  0  0  0  0
    2.6334   -1.5884   11.9064 H   0  0  0  0  0  0  0  0  0  0  0  0
    5.3357   -0.3295   12.5989 H   0  0  0  0  0  0  0  0  0  0  0  0
    4.3024   -1.2235   13.7212 H   0  0  0  0  0  0  0  0  0  0  0  0
    3.7578    0.3198   13.0558 H   0  0  0  0  0  0  0  0  0  0  0  0
    2.6592    0.1324    6.1708 H   0  0  0  0  0  0  0  0  0  0  0  0
    2.9276    0.0928    1.4158 H   0  0  0  0  0  0  0  0  0  0  0  0
    2.8262   -1.8875   -4.6640 H   0  0  0  0  0  0  0  0  0  0  0  0
    3.6628   -0.3281   -4.7997 H   0  0  0  0  0  0  0  0  0  0  0  0
    5.4192   -1.1353   -3.2261 H   0  0  0  0  0  0  0  0  0  0  0  0
    5.2936   -2.1983   -4.6312 H   0  0  0  0  0  0  0  0  0  0  0  0
    4.5882   -2.6878   -3.0864 H   0  0  0  0  0  0  0  0  0  0  0  0
   -5.9854   -0.8937    6.3700 H   0  0  0  0  0  0  0  0  0  0  0  0
   -5.9567    0.6201    5.4503 H   0  0  0  0  0  0  0  0  0  0  0  0
   -7.9318   -0.7413    4.8185 H   0  0  0  0  0  0  0  0  0  0  0  0
   -6.8363   -0.5669    3.4441 H   0  0  0  0  0  0  0  0  0  0  0  0
   -6.8790   -2.0807    4.3524 H   0  0  0  0  0  0  0  0  0  0  0  0
   -3.9726   -1.7656    1.2065 H   0  0  0  0  0  0  0  0  0  0  0  0
   -3.6432   -1.9820   -3.5684 H   0  0  0  0  0  0  0  0  0  0  0  0
   -1.6962   -4.0313   -7.3476 H   0  0  0  0  0  0  0  0  0  0  0  0
   -2.0231   -3.0550   -8.7933 H   0  0  0  0  0  0  0  0  0  0  0  0
   -2.1067   -5.4849   -9.3214 H   0  0  0  0  0  0  0  0  0  0  0  0
   -3.3723   -5.7152   -8.1094 H   0  0  0  0  0  0  0  0  0  0  0  0
   -3.6946   -4.7454   -9.5500 H   0  0  0  0  0  0  0  0  0  0  0  0
  -12.4324   -4.1142    0.6580 H   0  0  0  0  0  0  0  0  0  0  0  0
  -12.3009   -2.8302    1.8764 H   0  0  0  0  0  0  0  0  0  0  0  0
  -10.5409   -5.3293    1.7444 H   0  0  0  0  0  0  0  0  0  0  0  0
  -10.4170   -4.0515    2.9578 H   0  0  0  0  0  0  0  0  0  0  0  0
  -11.8645   -5.0618    2.8845 H   0  0  0  0  0  0  0  0  0  0  0  0
  -10.7844   -2.5126   -3.4747 H   0  0  0  0  0  0  0  0  0  0  0  0
  -10.5183   -3.1024   -8.2303 H   0  0  0  0  0  0  0  0  0  0  0  0
  -11.2131   -2.6715  -14.5437 H   0  0  0  0  0  0  0  0  0  0  0  0
  -10.0122   -3.9705  -14.4027 H   0  0  0  0  0  0  0  0  0  0  0  0
   -9.6879   -1.1357  -13.2981 H   0  0  0  0  0  0  0  0  0  0  0  0
   -8.9061   -1.7707  -14.7501 H   0  0  0  0  0  0  0  0  0  0  0  0
   -8.4935   -2.4299  -13.1643 H   0  0  0  0  0  0  0  0  0  0  0  0
  -16.9332   -3.4814   -1.9346 H   0  0  0  0  0  0  0  0  0  0  0  0
  -18.1404   -2.1911   -2.1001 H   0  0  0  0  0  0  0  0  0  0  0  0
  -19.2339   -4.3901   -1.6995 H   0  0  0  0  0  0  0  0  0  0  0  0
  -19.6574   -3.7645   -3.2958 H   0  0  0  0  0  0  0  0  0  0  0  0
  -18.4553   -5.0500   -3.1424 H   0  0  0  0  0  0  0  0  0  0  0  0
  -17.6756   -3.1507   -8.2936 H   0  0  0  0  0  0  0  0  0  0  0  0
  -17.7933   -3.5429  -10.8637 H   0  0  0  0  0  0  0  0  0  0  0  0
  1  2  2  0  0  0  0
  2  3  1  0  0  0  0
  3  4  2  0  0  0  0
  4  5  1  0  0  0  0
  5  6  1  0  0  0  0
  6  7  1  0  0  0  0
  7  8  1  0  0  0  0
  8  9  1  0  0  0  0
  7 10  2  0  0  0  0
 10 11  1  0  0  0  0
 10 12  1  0  0  0  0
 12 13  1  0  0  0  0
  4 14  1  0  0  0  0
 14 15  2  0  0  0  0
 15 16  1  0  0  0  0
 16 17  1  0  0  0  0
 17 18  1  0  0  0  0
 18 19  1  0  0  0  0
 19 20  1  0  0  0  0
 20 21  1  0  0  0  0
 19 22  2  0  0  0  0
 22 23  1  0  0  0  0
 23 24  1  0  0  0  0
 22 25  1  0  0  0  0
 16 26  2  0  0  0  0
 26 27  1  0  0  0  0
 15 28  1  0  0  0  0
 28 29  2  0  0  0  0
 29 30  1  0  0  0  0
 29 31  1  0  0  0  0
 31 32  1  0  0  0  0
 32 33  1  0  0  0  0
 33 34  1  0  0  0  0
 34 35  1  0  0  0  0
 34 36  1  0  0  0  0
 36 37  2  0  0  0  0
 36 38  1  0  0  0  0
 34 39  1  0  0  0  0
 39 40  1  0  0  0  0
 40 41  2  0  0  0  0
 41 42  1  0  0  0  0
 42 43  2  0  0  0  0
 43 44  1  0  0  0  0
 44 45  1  0  0  0  0
 45 46  1  0  0  0  0
 46 47  1  0  0  0  0
 47 48  1  0  0  0  0
 46 49  2  0  0  0  0
 49 50  1  0  0  0  0
 49 51  1  0  0  0  0
 51 52  1  0  0  0  0
 43 53  1  0  0  0  0
 53 54  2  0  0  0  0
 54 55  1  0  0  0  0
 55 56  1  0  0  0  0
 56 57  1  0  0  0  0
 57 58  1  0  0  0  0
 58 59  1  0  0  0  0
 59 60  1  0  0  0  0
 58 61  2  0  0  0  0
 61 62  1  0  0  0  0
 62 63  1  0  0  0  0
 61 64  1  0  0  0  0
 55 65  2  0  0  0  0
 65 66  1  0  0  0  0
 54 67  1  0  0  0  0
 67 68  2  0  0  0  0
 68 69  1  0  0  0  0
 68 70  1  0  0  0  0
 70 71  2  0  0  0  0
 71 72  1  0  0  0  0
 72 73  2  0  0  0  0
 73 74  1  0  0  0  0
 74 75  1  0  0  0  0
 75 76  1  0  0  0  0
 76 77  1  0  0  0  0
 77 78  1  0  0  0  0
 76 79  2  0  0  0  0
 79 80  1  0  0  0  0
 79 81  1  0  0  0  0
 81 82  1  0  0  0  0
 73 83  1  0  0  0  0
 83 84  2  0  0  0  0
 84 85  1  0  0  0  0
 85 86  1  0  0  0  0
 86 87  1  0  0  0  0
 87 88  1  0  0  0  0
 88 89  1  0  0  0  0
 89 90  1  0  0  0  0
 88 91  2  0  0  0  0
 91 92  1  0  0  0  0
 92 93  1  0  0  0  0
 91 94  1  0  0  0  0
 85 95  2  0  0  0  0
 95 96  1  0  0  0  0
 84 97  1  0  0  0  0
 97 98  2  0  0  0  0
 98 99  1  0  0  0  0
 98100  1  0  0  0  0
100101  2  0  0  0  0
101102  1  0  0  0  0
102103  2  0  0  0  0
103104  1  0  0  0  0
104105  1  0  0  0  0
105106  1  0  0  0  0
106107  1  0  0  0  0
107108  1  0  0  0  0
106109  2  0  0  0  0
109110  1  0  0  0  0
109111  1  0  0  0  0
111112  1  0  0  0  0
103113  1  0  0  0  0
113114  2  0  0  0  0
114115  1  0  0  0  0
115116  1  0  0  0  0
116117  1  0  0  0  0
117118  1  0  0  0  0
118119  1  0  0  0  0
119120  1  0  0  0  0
118121  2  0  0  0  0
121122  1  0  0  0  0
122123  1  0  0  0  0
121124  1  0  0  0  0
115125  2  0  0  0  0
125126  1  0  0  0  0
114127  1  0  0  0  0
127128  2  0  0  0  0
128129  1  0  0  0  0
128130  1  0  0  0  0
130131  2  0  0  0  0
131132  1  0  0  0  0
132133  2  0  0  0  0
133134  1  0  0  0  0
134135  1  0  0  0  0
135136  1  0  0  0  0
136137  1  0  0  0  0
137138  1  0  0  0  0
136139  2  0  0  0  0
139140  1  0  0  0  0
139141  1  0  0  0  0
141142  1  0  0  0  0
133143  1  0  0  0  0
143144  2  0  0  0  0
144145  1  0  0  0  0
145146  1  0  0  0  0
146147  1  0  0  0  0
147148  1  0  0  0  0
148149  1  0  0  0  0
149150  1  0  0  0  0
148151  2  0  0  0  0
151152  1  0  0  0  0
152153  1  0  0  0  0
151154  1  0  0  0  0
145155  2  0  0  0  0
155156  1  0  0  0  0
144157  1  0  0  0  0
157158  2  0  0  0  0
158159  1  0  0  0  0
 27  1  1  0  0  0  0
 35 31  1  0  0  0  0
 66 40  1  0  0  0  0
 96 70  1  0  0  0  0
126100  1  0  0  0  0
156130  1  0  0  0  0
 26  3  1  0  0  0  0
 65 42  1  0  0  0  0
 95 72  1  0  0  0  0
125102  1  0  0  0  0
155132  1  0  0  0  0
 12  5  2  0  0  0  0
 30 14  1  0  0  0  0
 51 44  2  0  0  0  0
 69 53  1  0  0  0  0
 81 74  2  0  0  0  0
 99 83  1  0  0  0  0
111104  2  0  0  0  0
129113  1  0  0  0  0
141134  2  0  0  0  0
159143  1  0  0  0  0
 23 17  2  0  0  0  0
 62 56  2  0  0  0  0
 92 86  2  0  0  0  0
122116  2  0  0  0  0
152146  2  0  0  0  0
  1160  1  0  0  0  0
  2161  1  0  0  0  0
  8162  1  0  0  0  0
  8163  1  0  0  0  0
  9164  1  0  0  0  0
  9165  1  0  0  0  0
  9166  1  0  0  0  0
 20167  1  0  0  0  0
 20168  1  0  0  0  0
 21169  1  0  0  0  0
 21170  1  0  0  0  0
 21171  1  0  0  0  0
 28172  1  0  0  0  0
 31173  1  0  0  0  0
 33174  1  0  0  0  0
 33175  1  0  0  0  0
 35176  1  0  0  0  0
 35177  1  0  0  0  0
 38178  1  0  0  0  0
 38179  1  0  0  0  0
 39180  1  0  0  0  0
 41181  1  0  0  0  0
 47182  1  0  0  0  0
 47183  1  0  0  0  0
 48184  1  0  0  0  0
 48185  1  0  0  0  0
 48186  1  0  0  0  0
 59187  1  0  0  0  0
 59188  1  0  0  0  0
 60189  1  0  0  0  0
 60190  1  0  0  0  0
 60191  1  0  0  0  0
 67192  1  0  0  0  0
 71193  1  0  0  0  0
 77194  1  0  0  0  0
 77195  1  0  0  0  0
 78196  1  0  0  0  0
 78197  1  0  0  0  0
 78198  1  0  0  0  0
 89199  1  0  0  0  0
 89200  1  0  0  0  0
 90201  1  0  0  0  0
 90202  1  0  0  0  0
 90203  1  0  0  0  0
 97204  1  0  0  0  0
101205  1  0  0  0  0
107206  1  0  0  0  0
107207  1  0  0  0  0
108208  1  0  0  0  0
108209  1  0  0  0  0
108210  1  0  0  0  0
119211  1  0  0  0  0
119212  1  0  0  0  0
120213  1  0  0  0  0
120214  1  0  0  0  0
120215  1  0  0  0  0
127216  1  0  0  0  0
131217  1  0  0  0  0
137218  1  0  0  0  0
137219  1  0  0  0  0
138220  1  0  0  0  0
138221  1  0  0  0  0
138222  1  0  0  0  0
149223  1  0  0  0  0
149224  1  0  0  0  0
150225  1  0  0  0  0
150226  1  0  0  0  0
150227  1  0  0  0  0
157228  1  0  0  0  0
158229  1  0  0  0  0
M  END
