238

C         -3.72400       -5.77120       14.76420
C         -4.05080       -4.53290       14.34180
C         -4.68030       -4.53300       13.06310
C         -5.09650       -3.43070       12.29980
C         -4.99690       -2.07110       12.80580
S         -4.17620       -0.83450       11.90150
C         -4.50990        0.37170       13.09900
C         -4.05240        1.77730       12.91710
C         -4.60870        2.38530       11.63000
C         -5.22040       -0.16840       14.12860
Cl        -5.74740        0.71420       15.50360
C         -5.49520       -1.55420       13.96810
Cl        -6.42940       -2.44920       15.09630
C         -5.59090       -3.69390       11.02940
C         -5.70850       -5.00390       10.50740
C         -5.30480       -6.10970       11.27430
C         -5.37160       -7.45320       10.72400
S         -4.64690       -7.80840        9.18180
C         -5.13910       -9.46660        9.24100
C         -4.85420      -10.38470        8.10400
C         -5.66260       -9.99630        6.86380
C         -5.81850       -9.71530       10.39550
C         -5.94640       -8.57950       11.24220
Cl        -6.81980       -8.62630       12.71510
Cl        -6.47290      -11.24530       10.81470
C         -4.80020       -5.84480       12.54210
S         -4.15170       -7.02050       13.64860
C         -6.25910       -5.00270        9.20290
C         -6.53130       -3.75580        8.72690
S         -6.15200       -2.50160        9.88950
C         -6.97570       -3.42620        7.41400
C         -7.12960       -2.18940        6.86350
C         -7.42070       -2.22150        5.47780
C         -7.58220       -1.13650        4.59730
C         -7.47830        0.24240        5.04040
S         -6.13460        0.77920        6.00830
C         -6.67380        2.42310        5.99460
C         -5.94260        3.47610        6.75130
C         -6.28730        3.41240        8.24120
C         -7.83220        2.53320        5.28600
Cl        -8.67180        4.01040        5.04660
C         -8.28890        1.30320        4.73980
Cl        -9.76430        1.18200        3.87720
C         -7.74460       -1.44360        3.25160
C         -7.79530       -2.76970        2.75470
C         -7.74440       -3.85360        3.65120
C         -7.89520       -5.22050        3.19150
S         -6.83470       -6.49270        3.72450
C         -7.68210       -7.69240        2.80930
C         -7.22910       -9.11040        2.79990
C         -6.02580       -9.29940        1.87380
C         -8.71830       -7.12510        2.12940
C         -8.84600       -5.72670        2.34580
Cl       -10.13330       -4.81090        1.67590
Cl        -9.79270       -7.99850        1.11580
C         -7.51420       -3.54720        4.98740
S         -7.25820       -4.71020        6.25600
C         -7.74180       -2.80540        1.33860
C         -7.65800       -1.57030        0.76770
S         -7.71420       -0.28470        1.95780
C         -7.35010       -1.22200       -0.57890
C         -7.10510        0.04120       -1.03190
C         -6.50110        0.07900       -2.30850
C         -5.93580        1.18740       -2.96170
C         -6.03220        2.53870       -2.43880
S         -5.68740        2.90480       -0.77230
C         -5.92720        4.60340       -1.00590
C         -5.82360        5.55140        0.13760
C         -6.93280        5.30480        1.16200
C         -6.25230        4.85590       -2.30440
Cl        -6.56330        6.42380       -2.92920
C         -6.30770        3.69320       -3.11980
Cl        -6.77310        3.75830       -4.76570
C         -5.15560        0.92340       -4.07990
C         -4.99560       -0.37390       -4.62330
C         -5.67220       -1.46740       -4.04630
C         -5.59510       -2.81190       -4.58910
S         -4.08340       -3.57210       -4.99530
C         -4.85520       -5.04500       -5.47490
C         -4.07150       -6.18520       -6.02460
C         -3.81200       -5.99830       -7.52150
C         -6.20590       -4.93530       -5.33490
C         -6.62820       -3.67780       -4.82620
Cl        -8.28380       -3.28420       -4.62380
Cl        -7.31190       -6.18830       -5.72360
C         -6.36420       -1.21680       -2.86670
S         -6.98240       -2.43810       -1.78350
C         -4.01500       -0.38260       -5.64350
C         -3.38780        0.82120       -5.81590
S         -4.07900        2.07700       -4.82020
C         -2.17300        1.08400       -6.53570
C         -1.43860        0.11730       -7.20660
C         -0.11950        0.34930       -7.57320
C          0.53370        1.54930       -7.32160
C         -0.25520        2.63220       -6.82800
C         -1.58040        2.36900       -6.40630
N         -2.28110        3.32710       -5.78800
C         -1.77960        4.52010       -5.61250
C         -2.63110        5.49430       -4.85960
C         -3.72750        6.05820       -5.76580
C         -0.50190        4.82390       -6.16910
C          0.05180        6.21780       -6.13690
C          1.27540        6.39990       -7.02560
N          0.21960        3.88700       -6.72930
C          1.96910        1.62420       -7.33890
C          2.73490        2.63970       -6.84900
C          4.08830        2.29230       -6.64420
C          5.06040        3.03260       -5.95220
C          4.73540        4.32570       -5.37030
S          5.68800        5.73950       -5.70830
C          4.69190        6.74540       -4.71510
C          4.94100        8.20810       -4.58840
C          4.06320        9.00020       -5.56030
C          3.68210        6.01390       -4.16460
Cl         2.48680        6.67050       -3.12390
C          3.70570        4.64070       -4.52560
Cl         2.58510        3.50630       -3.88280
C          6.29980        2.43440       -5.77950
C          6.60560        1.14000       -6.26860
C          5.62770        0.39590       -6.95650
C          5.88150       -0.95870       -7.41710
S          6.50800       -2.17740       -6.34430
C          6.43860       -3.40260       -7.56450
C          6.91610       -4.78580       -7.29030
C          8.44220       -4.86250       -7.37260
C          5.96820       -2.88030       -8.73170
C          5.64260       -1.49920       -8.65040
Cl         5.08820       -0.60710      -10.00390
Cl         5.77090       -3.78640      -10.17560
C          4.37860        0.98430       -7.10670
S          2.94590        0.20860       -7.71580
C          7.91260        0.73730       -5.90130
C          8.56570        1.64880       -5.12290
S          7.61590        3.09280       -4.85210
C          9.83340        1.48490       -4.48370
C         10.76540        0.51620       -4.71750
C         11.86390        0.56180       -3.82360
C         12.99890       -0.26640       -3.79510
C         13.18570       -1.34230       -4.75420
S         11.96460       -2.55370       -5.02120
C         12.94340       -3.40720       -6.16420
C         12.44470       -4.61950       -6.87100
C         11.98990       -4.27450       -8.29110
C         14.13710       -2.77100       -6.33020
Cl        15.37080       -3.32060       -7.38770
C         14.27930       -1.60350       -5.53390
Cl        15.65780       -0.59180       -5.63840
C         13.93580       -0.01760       -2.79690
C         13.79600        1.02570       -1.85060
C         12.67270        1.86460       -1.89150
C         12.48370        2.93430       -0.92300
S         13.66930        4.18730       -0.70730
C         12.72780        4.97830        0.51010
C         13.17910        6.25120        1.13700
C         12.66640        7.45950        0.34960
C         11.56340        4.30240        0.72030
C         11.42210        3.14190       -0.08710
Cl        10.08370        2.08080        0.05400
Cl        10.37320        4.78230        1.85920
C         11.73290        1.61350       -2.88280
S         10.28260        2.53100       -3.15620
C         14.85980        1.02300       -0.90200
C         15.74600        0.02900       -1.11400
S         15.36140       -0.96350       -2.47530
H         -3.24560       -6.04810       15.68330
H         -3.84520       -3.63910       14.90100
H         -2.95990        1.80090       12.88140
H         -4.37900        2.35970       13.78010
H         -4.26680        3.41120       11.52360
H         -5.69570        2.38050       11.64730
H         -4.27220        1.81260       10.76900
H         -5.10510      -11.40190        8.40850
H         -3.78920      -10.34660        7.86390
H         -6.72760      -10.04130        7.07830
H         -5.41320       -8.98460        6.55110
H         -5.44150      -10.68000        6.04830
H         -6.44200       -5.88960        8.62440
H         -7.00670       -1.28680        7.43350
H         -6.22080        4.45170        6.34960
H         -4.86770        3.33660        6.62250
H         -7.35280        3.56920        8.38790
H         -5.74390        4.18050        8.78440
H         -6.01890        2.44060        8.64830
H         -6.95550       -9.40760        3.81430
H         -8.05570       -9.73720        2.46140
H         -5.71050      -10.33930        1.87880
H         -6.28540       -9.01930        0.85620
H         -5.19580       -8.67960        2.20440
H         -7.69660       -3.71200        0.76270
H         -7.29580        0.91110       -0.43050
H         -4.85260        5.43050        0.62390
H         -5.89280        6.56940       -0.24920
H         -6.86360        4.29410        1.55810
H         -7.90900        5.43030        0.70040
H         -6.84530        6.00830        1.98560
H         -3.11890       -6.25990       -5.49710
H         -4.63540       -7.10560       -5.86370
H         -3.24900       -6.84200       -7.91150
H         -3.24240       -5.08830       -7.69490
H         -4.75320       -5.92800       -8.06080
H         -3.74140       -1.26860       -6.18540
H         -1.86220       -0.86000       -7.37660
H          0.44950       -0.46350       -8.00210
H         -3.10760        4.95540       -4.03840
H         -2.02450        6.30200       -4.45060
H         -4.36300        6.73610       -5.20230
H         -3.30020        6.59960       -6.60750
H         -4.33860        5.24520       -6.14840
H         -0.73520        6.91000       -6.44610
H          0.31240        6.46110       -5.10190
H          2.11970        5.83640       -6.64000
H          1.55320        7.45030       -7.06520
H          1.06550        6.05290       -8.03380
H          2.30990        3.59260       -6.60400
H          4.71710        8.51790       -3.56520
H          5.99260        8.41210       -4.79330
H          4.26520       10.06340       -5.46330
H          3.01280        8.82380       -5.34440
H          4.26600        8.69730       -6.58470
H          6.47370       -5.45990       -8.02560
H          6.59120       -5.09140       -6.29410
H          8.77660       -5.87630       -7.17010
H          8.89240       -4.19230       -6.64350
H          8.77730       -4.57700       -8.36630
H          8.33950       -0.21050       -6.16970
H         10.67220       -0.20760       -5.50500
H         13.24970       -5.35610       -6.92010
H         11.61260       -5.04720       -6.31050
H         11.20120       -3.52690       -8.26450
H         11.61300       -5.16420       -8.78780
H         12.82260       -3.88000       -8.86680
H         14.26940        6.27270        1.16980
H         12.79580        6.29380        2.15850
H         12.99950        8.38020        0.82090
H         13.04200        7.43270       -0.67040
H         11.57990        7.45550        0.32030
H         14.93900        1.73250       -0.09910
H         16.62880       -0.19810       -0.54890
