
  xtb     03012208033D
 energy: -461.167558920802 gnorm: 0.000186668980 xtb: 6.4.1 (unknown)
238264  0     0  0            999 V2000
   -3.7240   -5.7712   14.7642 C   0  0  0  0  0  0  0  0  0  0  0  0
   -4.0508   -4.5329   14.3418 C   0  0  0  0  0  0  0  0  0  0  0  0
   -4.6803   -4.5330   13.0631 C   0  0  0  0  0  0  0  0  0  0  0  0
   -5.0965   -3.4307   12.2998 C   0  0  0  0  0  0  0  0  0  0  0  0
   -4.9969   -2.0711   12.8058 C   0  0  0  0  0  0  0  0  0  0  0  0
   -4.1762   -0.8345   11.9015 S   0  0  0  0  0  0  0  0  0  0  0  0
   -4.5099    0.3717   13.0990 C   0  0  0  0  0  0  0  0  0  0  0  0
   -4.0524    1.7773   12.9171 C   0  0  0  0  0  0  0  0  0  0  0  0
   -4.6087    2.3853   11.6300 C   0  0  0  0  0  0  0  0  0  0  0  0
   -5.2204   -0.1684   14.1286 C   0  0  0  0  0  0  0  0  0  0  0  0
   -5.7474    0.7142   15.5036 Cl  0  0  0  0  0  0  0  0  0  0  0  0
   -5.4952   -1.5542   13.9681 C   0  0  0  0  0  0  0  0  0  0  0  0
   -6.4294   -2.4492   15.0963 Cl  0  0  0  0  0  0  0  0  0  0  0  0
   -5.5909   -3.6939   11.0294 C   0  0  0  0  0  0  0  0  0  0  0  0
   -5.7085   -5.0039   10.5074 C   0  0  0  0  0  0  0  0  0  0  0  0
   -5.3048   -6.1097   11.2743 C   0  0  0  0  0  0  0  0  0  0  0  0
   -5.3716   -7.4532   10.7240 C   0  0  0  0  0  0  0  0  0  0  0  0
   -4.6469   -7.8084    9.1818 S   0  0  0  0  0  0  0  0  0  0  0  0
   -5.1391   -9.4666    9.2410 C   0  0  0  0  0  0  0  0  0  0  0  0
   -4.8542  -10.3847    8.1040 C   0  0  0  0  0  0  0  0  0  0  0  0
   -5.6626   -9.9963    6.8638 C   0  0  0  0  0  0  0  0  0  0  0  0
   -5.8185   -9.7153   10.3955 C   0  0  0  0  0  0  0  0  0  0  0  0
   -5.9464   -8.5795   11.2422 C   0  0  0  0  0  0  0  0  0  0  0  0
   -6.8198   -8.6263   12.7151 Cl  0  0  0  0  0  0  0  0  0  0  0  0
   -6.4729  -11.2453   10.8147 Cl  0  0  0  0  0  0  0  0  0  0  0  0
   -4.8002   -5.8448   12.5421 C   0  0  0  0  0  0  0  0  0  0  0  0
   -4.1517   -7.0205   13.6486 S   0  0  0  0  0  0  0  0  0  0  0  0
   -6.2591   -5.0027    9.2029 C   0  0  0  0  0  0  0  0  0  0  0  0
   -6.5313   -3.7558    8.7269 C   0  0  0  0  0  0  0  0  0  0  0  0
   -6.1520   -2.5016    9.8895 S   0  0  0  0  0  0  0  0  0  0  0  0
   -6.9757   -3.4262    7.4140 C   0  0  0  0  0  0  0  0  0  0  0  0
   -7.1296   -2.1894    6.8635 C   0  0  0  0  0  0  0  0  0  0  0  0
   -7.4207   -2.2215    5.4778 C   0  0  0  0  0  0  0  0  0  0  0  0
   -7.5822   -1.1365    4.5973 C   0  0  0  0  0  0  0  0  0  0  0  0
   -7.4783    0.2424    5.0404 C   0  0  0  0  0  0  0  0  0  0  0  0
   -6.1346    0.7792    6.0083 S   0  0  0  0  0  0  0  0  0  0  0  0
   -6.6738    2.4231    5.9946 C   0  0  0  0  0  0  0  0  0  0  0  0
   -5.9426    3.4761    6.7513 C   0  0  0  0  0  0  0  0  0  0  0  0
   -6.2873    3.4124    8.2412 C   0  0  0  0  0  0  0  0  0  0  0  0
   -7.8322    2.5332    5.2860 C   0  0  0  0  0  0  0  0  0  0  0  0
   -8.6718    4.0104    5.0466 Cl  0  0  0  0  0  0  0  0  0  0  0  0
   -8.2889    1.3032    4.7398 C   0  0  0  0  0  0  0  0  0  0  0  0
   -9.7643    1.1820    3.8772 Cl  0  0  0  0  0  0  0  0  0  0  0  0
   -7.7446   -1.4436    3.2516 C   0  0  0  0  0  0  0  0  0  0  0  0
   -7.7953   -2.7697    2.7547 C   0  0  0  0  0  0  0  0  0  0  0  0
   -7.7444   -3.8536    3.6512 C   0  0  0  0  0  0  0  0  0  0  0  0
   -7.8952   -5.2205    3.1915 C   0  0  0  0  0  0  0  0  0  0  0  0
   -6.8347   -6.4927    3.7245 S   0  0  0  0  0  0  0  0  0  0  0  0
   -7.6821   -7.6924    2.8093 C   0  0  0  0  0  0  0  0  0  0  0  0
   -7.2291   -9.1104    2.7999 C   0  0  0  0  0  0  0  0  0  0  0  0
   -6.0258   -9.2994    1.8738 C   0  0  0  0  0  0  0  0  0  0  0  0
   -8.7183   -7.1251    2.1294 C   0  0  0  0  0  0  0  0  0  0  0  0
   -8.8460   -5.7267    2.3458 C   0  0  0  0  0  0  0  0  0  0  0  0
  -10.1333   -4.8109    1.6759 Cl  0  0  0  0  0  0  0  0  0  0  0  0
   -9.7927   -7.9985    1.1158 Cl  0  0  0  0  0  0  0  0  0  0  0  0
   -7.5142   -3.5472    4.9874 C   0  0  0  0  0  0  0  0  0  0  0  0
   -7.2582   -4.7102    6.2560 S   0  0  0  0  0  0  0  0  0  0  0  0
   -7.7418   -2.8054    1.3386 C   0  0  0  0  0  0  0  0  0  0  0  0
   -7.6580   -1.5703    0.7677 C   0  0  0  0  0  0  0  0  0  0  0  0
   -7.7142   -0.2847    1.9578 S   0  0  0  0  0  0  0  0  0  0  0  0
   -7.3501   -1.2220   -0.5789 C   0  0  0  0  0  0  0  0  0  0  0  0
   -7.1051    0.0412   -1.0319 C   0  0  0  0  0  0  0  0  0  0  0  0
   -6.5011    0.0790   -2.3085 C   0  0  0  0  0  0  0  0  0  0  0  0
   -5.9358    1.1874   -2.9617 C   0  0  0  0  0  0  0  0  0  0  0  0
   -6.0322    2.5387   -2.4388 C   0  0  0  0  0  0  0  0  0  0  0  0
   -5.6874    2.9048   -0.7723 S   0  0  0  0  0  0  0  0  0  0  0  0
   -5.9272    4.6034   -1.0059 C   0  0  0  0  0  0  0  0  0  0  0  0
   -5.8236    5.5514    0.1376 C   0  0  0  0  0  0  0  0  0  0  0  0
   -6.9328    5.3048    1.1620 C   0  0  0  0  0  0  0  0  0  0  0  0
   -6.2523    4.8559   -2.3044 C   0  0  0  0  0  0  0  0  0  0  0  0
   -6.5633    6.4238   -2.9292 Cl  0  0  0  0  0  0  0  0  0  0  0  0
   -6.3077    3.6932   -3.1198 C   0  0  0  0  0  0  0  0  0  0  0  0
   -6.7731    3.7583   -4.7657 Cl  0  0  0  0  0  0  0  0  0  0  0  0
   -5.1556    0.9234   -4.0799 C   0  0  0  0  0  0  0  0  0  0  0  0
   -4.9956   -0.3739   -4.6233 C   0  0  0  0  0  0  0  0  0  0  0  0
   -5.6722   -1.4674   -4.0463 C   0  0  0  0  0  0  0  0  0  0  0  0
   -5.5951   -2.8119   -4.5891 C   0  0  0  0  0  0  0  0  0  0  0  0
   -4.0834   -3.5721   -4.9953 S   0  0  0  0  0  0  0  0  0  0  0  0
   -4.8552   -5.0450   -5.4749 C   0  0  0  0  0  0  0  0  0  0  0  0
   -4.0715   -6.1852   -6.0246 C   0  0  0  0  0  0  0  0  0  0  0  0
   -3.8120   -5.9983   -7.5215 C   0  0  0  0  0  0  0  0  0  0  0  0
   -6.2059   -4.9353   -5.3349 C   0  0  0  0  0  0  0  0  0  0  0  0
   -6.6282   -3.6778   -4.8262 C   0  0  0  0  0  0  0  0  0  0  0  0
   -8.2838   -3.2842   -4.6238 Cl  0  0  0  0  0  0  0  0  0  0  0  0
   -7.3119   -6.1883   -5.7236 Cl  0  0  0  0  0  0  0  0  0  0  0  0
   -6.3642   -1.2168   -2.8667 C   0  0  0  0  0  0  0  0  0  0  0  0
   -6.9824   -2.4381   -1.7835 S   0  0  0  0  0  0  0  0  0  0  0  0
   -4.0150   -0.3826   -5.6435 C   0  0  0  0  0  0  0  0  0  0  0  0
   -3.3878    0.8212   -5.8159 C   0  0  0  0  0  0  0  0  0  0  0  0
   -4.0790    2.0770   -4.8202 S   0  0  0  0  0  0  0  0  0  0  0  0
   -2.1730    1.0840   -6.5357 C   0  0  0  0  0  0  0  0  0  0  0  0
   -1.4386    0.1173   -7.2066 C   0  0  0  0  0  0  0  0  0  0  0  0
   -0.1195    0.3493   -7.5732 C   0  0  0  0  0  0  0  0  0  0  0  0
    0.5337    1.5493   -7.3216 C   0  0  0  0  0  0  0  0  0  0  0  0
   -0.2552    2.6322   -6.8280 C   0  0  0  0  0  0  0  0  0  0  0  0
   -1.5804    2.3690   -6.4063 C   0  0  0  0  0  0  0  0  0  0  0  0
   -2.2811    3.3271   -5.7880 N   0  0  0  0  0  0  0  0  0  0  0  0
   -1.7796    4.5201   -5.6125 C   0  0  0  0  0  0  0  0  0  0  0  0
   -2.6311    5.4943   -4.8596 C   0  0  0  0  0  0  0  0  0  0  0  0
   -3.7275    6.0582   -5.7658 C   0  0  0  0  0  0  0  0  0  0  0  0
   -0.5019    4.8239   -6.1691 C   0  0  0  0  0  0  0  0  0  0  0  0
    0.0518    6.2178   -6.1369 C   0  0  0  0  0  0  0  0  0  0  0  0
    1.2754    6.3999   -7.0256 C   0  0  0  0  0  0  0  0  0  0  0  0
    0.2196    3.8870   -6.7293 N   0  0  0  0  0  0  0  0  0  0  0  0
    1.9691    1.6242   -7.3389 C   0  0  0  0  0  0  0  0  0  0  0  0
    2.7349    2.6397   -6.8490 C   0  0  0  0  0  0  0  0  0  0  0  0
    4.0883    2.2923   -6.6442 C   0  0  0  0  0  0  0  0  0  0  0  0
    5.0604    3.0326   -5.9522 C   0  0  0  0  0  0  0  0  0  0  0  0
    4.7354    4.3257   -5.3703 C   0  0  0  0  0  0  0  0  0  0  0  0
    5.6880    5.7395   -5.7083 S   0  0  0  0  0  0  0  0  0  0  0  0
    4.6919    6.7454   -4.7151 C   0  0  0  0  0  0  0  0  0  0  0  0
    4.9410    8.2081   -4.5884 C   0  0  0  0  0  0  0  0  0  0  0  0
    4.0632    9.0002   -5.5603 C   0  0  0  0  0  0  0  0  0  0  0  0
    3.6821    6.0139   -4.1646 C   0  0  0  0  0  0  0  0  0  0  0  0
    2.4868    6.6705   -3.1239 Cl  0  0  0  0  0  0  0  0  0  0  0  0
    3.7057    4.6407   -4.5256 C   0  0  0  0  0  0  0  0  0  0  0  0
    2.5851    3.5063   -3.8828 Cl  0  0  0  0  0  0  0  0  0  0  0  0
    6.2998    2.4344   -5.7795 C   0  0  0  0  0  0  0  0  0  0  0  0
    6.6056    1.1400   -6.2686 C   0  0  0  0  0  0  0  0  0  0  0  0
    5.6277    0.3959   -6.9565 C   0  0  0  0  0  0  0  0  0  0  0  0
    5.8815   -0.9587   -7.4171 C   0  0  0  0  0  0  0  0  0  0  0  0
    6.5080   -2.1774   -6.3443 S   0  0  0  0  0  0  0  0  0  0  0  0
    6.4386   -3.4026   -7.5645 C   0  0  0  0  0  0  0  0  0  0  0  0
    6.9161   -4.7858   -7.2903 C   0  0  0  0  0  0  0  0  0  0  0  0
    8.4422   -4.8625   -7.3726 C   0  0  0  0  0  0  0  0  0  0  0  0
    5.9682   -2.8803   -8.7317 C   0  0  0  0  0  0  0  0  0  0  0  0
    5.6426   -1.4992   -8.6504 C   0  0  0  0  0  0  0  0  0  0  0  0
    5.0882   -0.6071  -10.0039 Cl  0  0  0  0  0  0  0  0  0  0  0  0
    5.7709   -3.7864  -10.1756 Cl  0  0  0  0  0  0  0  0  0  0  0  0
    4.3786    0.9843   -7.1067 C   0  0  0  0  0  0  0  0  0  0  0  0
    2.9459    0.2086   -7.7158 S   0  0  0  0  0  0  0  0  0  0  0  0
    7.9126    0.7373   -5.9013 C   0  0  0  0  0  0  0  0  0  0  0  0
    8.5657    1.6488   -5.1229 C   0  0  0  0  0  0  0  0  0  0  0  0
    7.6159    3.0928   -4.8521 S   0  0  0  0  0  0  0  0  0  0  0  0
    9.8334    1.4849   -4.4837 C   0  0  0  0  0  0  0  0  0  0  0  0
   10.7654    0.5162   -4.7175 C   0  0  0  0  0  0  0  0  0  0  0  0
   11.8639    0.5618   -3.8236 C   0  0  0  0  0  0  0  0  0  0  0  0
   12.9989   -0.2664   -3.7951 C   0  0  0  0  0  0  0  0  0  0  0  0
   13.1857   -1.3423   -4.7542 C   0  0  0  0  0  0  0  0  0  0  0  0
   11.9646   -2.5537   -5.0212 S   0  0  0  0  0  0  0  0  0  0  0  0
   12.9434   -3.4072   -6.1642 C   0  0  0  0  0  0  0  0  0  0  0  0
   12.4447   -4.6195   -6.8710 C   0  0  0  0  0  0  0  0  0  0  0  0
   11.9899   -4.2745   -8.2911 C   0  0  0  0  0  0  0  0  0  0  0  0
   14.1371   -2.7710   -6.3302 C   0  0  0  0  0  0  0  0  0  0  0  0
   15.3708   -3.3206   -7.3877 Cl  0  0  0  0  0  0  0  0  0  0  0  0
   14.2793   -1.6035   -5.5339 C   0  0  0  0  0  0  0  0  0  0  0  0
   15.6578   -0.5918   -5.6384 Cl  0  0  0  0  0  0  0  0  0  0  0  0
   13.9358   -0.0176   -2.7969 C   0  0  0  0  0  0  0  0  0  0  0  0
   13.7960    1.0257   -1.8506 C   0  0  0  0  0  0  0  0  0  0  0  0
   12.6727    1.8646   -1.8915 C   0  0  0  0  0  0  0  0  0  0  0  0
   12.4837    2.9343   -0.9230 C   0  0  0  0  0  0  0  0  0  0  0  0
   13.6693    4.1873   -0.7073 S   0  0  0  0  0  0  0  0  0  0  0  0
   12.7278    4.9783    0.5101 C   0  0  0  0  0  0  0  0  0  0  0  0
   13.1791    6.2512    1.1370 C   0  0  0  0  0  0  0  0  0  0  0  0
   12.6664    7.4595    0.3496 C   0  0  0  0  0  0  0  0  0  0  0  0
   11.5634    4.3024    0.7203 C   0  0  0  0  0  0  0  0  0  0  0  0
   11.4221    3.1419   -0.0871 C   0  0  0  0  0  0  0  0  0  0  0  0
   10.0837    2.0808    0.0540 Cl  0  0  0  0  0  0  0  0  0  0  0  0
   10.3732    4.7823    1.8592 Cl  0  0  0  0  0  0  0  0  0  0  0  0
   11.7329    1.6135   -2.8828 C   0  0  0  0  0  0  0  0  0  0  0  0
   10.2826    2.5310   -3.1562 S   0  0  0  0  0  0  0  0  0  0  0  0
   14.8598    1.0230   -0.9020 C   0  0  0  0  0  0  0  0  0  0  0  0
   15.7460    0.0290   -1.1140 C   0  0  0  0  0  0  0  0  0  0  0  0
   15.3614   -0.9635   -2.4753 S   0  0  0  0  0  0  0  0  0  0  0  0
   -3.2456   -6.0481   15.6833 H   0  0  0  0  0  0  0  0  0  0  0  0
   -3.8452   -3.6391   14.9010 H   0  0  0  0  0  0  0  0  0  0  0  0
   -2.9599    1.8009   12.8814 H   0  0  0  0  0  0  0  0  0  0  0  0
   -4.3790    2.3597   13.7801 H   0  0  0  0  0  0  0  0  0  0  0  0
   -4.2668    3.4112   11.5236 H   0  0  0  0  0  0  0  0  0  0  0  0
   -5.6957    2.3805   11.6473 H   0  0  0  0  0  0  0  0  0  0  0  0
   -4.2722    1.8126   10.7690 H   0  0  0  0  0  0  0  0  0  0  0  0
   -5.1051  -11.4019    8.4085 H   0  0  0  0  0  0  0  0  0  0  0  0
   -3.7892  -10.3466    7.8639 H   0  0  0  0  0  0  0  0  0  0  0  0
   -6.7276  -10.0413    7.0783 H   0  0  0  0  0  0  0  0  0  0  0  0
   -5.4132   -8.9846    6.5511 H   0  0  0  0  0  0  0  0  0  0  0  0
   -5.4415  -10.6800    6.0483 H   0  0  0  0  0  0  0  0  0  0  0  0
   -6.4420   -5.8896    8.6244 H   0  0  0  0  0  0  0  0  0  0  0  0
   -7.0067   -1.2868    7.4335 H   0  0  0  0  0  0  0  0  0  0  0  0
   -6.2208    4.4517    6.3496 H   0  0  0  0  0  0  0  0  0  0  0  0
   -4.8677    3.3366    6.6225 H   0  0  0  0  0  0  0  0  0  0  0  0
   -7.3528    3.5692    8.3879 H   0  0  0  0  0  0  0  0  0  0  0  0
   -5.7439    4.1805    8.7844 H   0  0  0  0  0  0  0  0  0  0  0  0
   -6.0189    2.4406    8.6483 H   0  0  0  0  0  0  0  0  0  0  0  0
   -6.9555   -9.4076    3.8143 H   0  0  0  0  0  0  0  0  0  0  0  0
   -8.0557   -9.7372    2.4614 H   0  0  0  0  0  0  0  0  0  0  0  0
   -5.7105  -10.3393    1.8788 H   0  0  0  0  0  0  0  0  0  0  0  0
   -6.2854   -9.0193    0.8562 H   0  0  0  0  0  0  0  0  0  0  0  0
   -5.1958   -8.6796    2.2044 H   0  0  0  0  0  0  0  0  0  0  0  0
   -7.6966   -3.7120    0.7627 H   0  0  0  0  0  0  0  0  0  0  0  0
   -7.2958    0.9111   -0.4305 H   0  0  0  0  0  0  0  0  0  0  0  0
   -4.8526    5.4305    0.6239 H   0  0  0  0  0  0  0  0  0  0  0  0
   -5.8928    6.5694   -0.2492 H   0  0  0  0  0  0  0  0  0  0  0  0
   -6.8636    4.2941    1.5581 H   0  0  0  0  0  0  0  0  0  0  0  0
   -7.9090    5.4303    0.7004 H   0  0  0  0  0  0  0  0  0  0  0  0
   -6.8453    6.0083    1.9856 H   0  0  0  0  0  0  0  0  0  0  0  0
   -3.1189   -6.2599   -5.4971 H   0  0  0  0  0  0  0  0  0  0  0  0
   -4.6354   -7.1056   -5.8637 H   0  0  0  0  0  0  0  0  0  0  0  0
   -3.2490   -6.8420   -7.9115 H   0  0  0  0  0  0  0  0  0  0  0  0
   -3.2424   -5.0883   -7.6949 H   0  0  0  0  0  0  0  0  0  0  0  0
   -4.7532   -5.9280   -8.0608 H   0  0  0  0  0  0  0  0  0  0  0  0
   -3.7414   -1.2686   -6.1854 H   0  0  0  0  0  0  0  0  0  0  0  0
   -1.8622   -0.8600   -7.3766 H   0  0  0  0  0  0  0  0  0  0  0  0
    0.4495   -0.4635   -8.0021 H   0  0  0  0  0  0  0  0  0  0  0  0
   -3.1076    4.9554   -4.0384 H   0  0  0  0  0  0  0  0  0  0  0  0
   -2.0245    6.3020   -4.4506 H   0  0  0  0  0  0  0  0  0  0  0  0
   -4.3630    6.7361   -5.2023 H   0  0  0  0  0  0  0  0  0  0  0  0
   -3.3002    6.5996   -6.6075 H   0  0  0  0  0  0  0  0  0  0  0  0
   -4.3386    5.2452   -6.1484 H   0  0  0  0  0  0  0  0  0  0  0  0
   -0.7352    6.9100   -6.4461 H   0  0  0  0  0  0  0  0  0  0  0  0
    0.3124    6.4611   -5.1019 H   0  0  0  0  0  0  0  0  0  0  0  0
    2.1197    5.8364   -6.6400 H   0  0  0  0  0  0  0  0  0  0  0  0
    1.5532    7.4503   -7.0652 H   0  0  0  0  0  0  0  0  0  0  0  0
    1.0655    6.0529   -8.0338 H   0  0  0  0  0  0  0  0  0  0  0  0
    2.3099    3.5926   -6.6040 H   0  0  0  0  0  0  0  0  0  0  0  0
    4.7171    8.5179   -3.5652 H   0  0  0  0  0  0  0  0  0  0  0  0
    5.9926    8.4121   -4.7933 H   0  0  0  0  0  0  0  0  0  0  0  0
    4.2652   10.0634   -5.4633 H   0  0  0  0  0  0  0  0  0  0  0  0
    3.0128    8.8238   -5.3444 H   0  0  0  0  0  0  0  0  0  0  0  0
    4.2660    8.6973   -6.5847 H   0  0  0  0  0  0  0  0  0  0  0  0
    6.4737   -5.4599   -8.0256 H   0  0  0  0  0  0  0  0  0  0  0  0
    6.5912   -5.0914   -6.2941 H   0  0  0  0  0  0  0  0  0  0  0  0
    8.7766   -5.8763   -7.1701 H   0  0  0  0  0  0  0  0  0  0  0  0
    8.8924   -4.1923   -6.6435 H   0  0  0  0  0  0  0  0  0  0  0  0
    8.7773   -4.5770   -8.3663 H   0  0  0  0  0  0  0  0  0  0  0  0
    8.3395   -0.2105   -6.1697 H   0  0  0  0  0  0  0  0  0  0  0  0
   10.6722   -0.2076   -5.5050 H   0  0  0  0  0  0  0  0  0  0  0  0
   13.2497   -5.3561   -6.9201 H   0  0  0  0  0  0  0  0  0  0  0  0
   11.6126   -5.0472   -6.3105 H   0  0  0  0  0  0  0  0  0  0  0  0
   11.2012   -3.5269   -8.2645 H   0  0  0  0  0  0  0  0  0  0  0  0
   11.6130   -5.1642   -8.7878 H   0  0  0  0  0  0  0  0  0  0  0  0
   12.8226   -3.8800   -8.8668 H   0  0  0  0  0  0  0  0  0  0  0  0
   14.2694    6.2727    1.1698 H   0  0  0  0  0  0  0  0  0  0  0  0
   12.7958    6.2938    2.1585 H   0  0  0  0  0  0  0  0  0  0  0  0
   12.9995    8.3802    0.8209 H   0  0  0  0  0  0  0  0  0  0  0  0
   13.0420    7.4327   -0.6704 H   0  0  0  0  0  0  0  0  0  0  0  0
   11.5799    7.4555    0.3203 H   0  0  0  0  0  0  0  0  0  0  0  0
   14.9390    1.7325   -0.0991 H   0  0  0  0  0  0  0  0  0  0  0  0
   16.6288   -0.1981   -0.5489 H   0  0  0  0  0  0  0  0  0  0  0  0
  1  2  2  0  0  0  0
  2  3  1  0  0  0  0
  3  4  2  0  0  0  0
  4  5  1  0  0  0  0
  5  6  1  0  0  0  0
  6  7  1  0  0  0  0
  7  8  1  0  0  0  0
  8  9  1  0  0  0  0
  7 10  2  0  0  0  0
 10 11  1  0  0  0  0
 10 12  1  0  0  0  0
 12 13  1  0  0  0  0
  4 14  1  0  0  0  0
 14 15  2  0  0  0  0
 15 16  1  0  0  0  0
 16 17  1  0  0  0  0
 17 18  1  0  0  0  0
 18 19  1  0  0  0  0
 19 20  1  0  0  0  0
 20 21  1  0  0  0  0
 19 22  2  0  0  0  0
 22 23  1  0  0  0  0
 23 24  1  0  0  0  0
 22 25  1  0  0  0  0
 16 26  2  0  0  0  0
 26 27  1  0  0  0  0
 15 28  1  0  0  0  0
 28 29  2  0  0  0  0
 29 30  1  0  0  0  0
 29 31  1  0  0  0  0
 31 32  2  0  0  0  0
 32 33  1  0  0  0  0
 33 34  2  0  0  0  0
 34 35  1  0  0  0  0
 35 36  1  0  0  0  0
 36 37  1  0  0  0  0
 37 38  1  0  0  0  0
 38 39  1  0  0  0  0
 37 40  2  0  0  0  0
 40 41  1  0  0  0  0
 40 42  1  0  0  0  0
 42 43  1  0  0  0  0
 34 44  1  0  0  0  0
 44 45  2  0  0  0  0
 45 46  1  0  0  0  0
 46 47  1  0  0  0  0
 47 48  1  0  0  0  0
 48 49  1  0  0  0  0
 49 50  1  0  0  0  0
 50 51  1  0  0  0  0
 49 52  2  0  0  0  0
 52 53  1  0  0  0  0
 53 54  1  0  0  0  0
 52 55  1  0  0  0  0
 46 56  2  0  0  0  0
 56 57  1  0  0  0  0
 45 58  1  0  0  0  0
 58 59  2  0  0  0  0
 59 60  1  0  0  0  0
 59 61  1  0  0  0  0
 61 62  2  0  0  0  0
 62 63  1  0  0  0  0
 63 64  2  0  0  0  0
 64 65  1  0  0  0  0
 65 66  1  0  0  0  0
 66 67  1  0  0  0  0
 67 68  1  0  0  0  0
 68 69  1  0  0  0  0
 67 70  2  0  0  0  0
 70 71  1  0  0  0  0
 70 72  1  0  0  0  0
 72 73  1  0  0  0  0
 64 74  1  0  0  0  0
 74 75  2  0  0  0  0
 75 76  1  0  0  0  0
 76 77  1  0  0  0  0
 77 78  1  0  0  0  0
 78 79  1  0  0  0  0
 79 80  1  0  0  0  0
 80 81  1  0  0  0  0
 79 82  2  0  0  0  0
 82 83  1  0  0  0  0
 83 84  1  0  0  0  0
 82 85  1  0  0  0  0
 76 86  2  0  0  0  0
 86 87  1  0  0  0  0
 75 88  1  0  0  0  0
 88 89  2  0  0  0  0
 89 90  1  0  0  0  0
 89 91  1  0  0  0  0
 91 92  2  0  0  0  0
 92 93  1  0  0  0  0
 93 94  2  0  0  0  0
 94 95  1  0  0  0  0
 95 96  2  0  0  0  0
 96 97  1  0  0  0  0
 97 98  2  0  0  0  0
 98 99  1  0  0  0  0
 99100  1  0  0  0  0
 98101  1  0  0  0  0
101102  1  0  0  0  0
102103  1  0  0  0  0
101104  2  0  0  0  0
 94105  1  0  0  0  0
105106  2  0  0  0  0
106107  1  0  0  0  0
107108  2  0  0  0  0
108109  1  0  0  0  0
109110  1  0  0  0  0
110111  1  0  0  0  0
111112  1  0  0  0  0
112113  1  0  0  0  0
111114  2  0  0  0  0
114115  1  0  0  0  0
114116  1  0  0  0  0
116117  1  0  0  0  0
108118  1  0  0  0  0
118119  2  0  0  0  0
119120  1  0  0  0  0
120121  1  0  0  0  0
121122  1  0  0  0  0
122123  1  0  0  0  0
123124  1  0  0  0  0
124125  1  0  0  0  0
123126  2  0  0  0  0
126127  1  0  0  0  0
127128  1  0  0  0  0
126129  1  0  0  0  0
120130  2  0  0  0  0
130131  1  0  0  0  0
119132  1  0  0  0  0
132133  2  0  0  0  0
133134  1  0  0  0  0
133135  1  0  0  0  0
135136  2  0  0  0  0
136137  1  0  0  0  0
137138  2  0  0  0  0
138139  1  0  0  0  0
139140  1  0  0  0  0
140141  1  0  0  0  0
141142  1  0  0  0  0
142143  1  0  0  0  0
141144  2  0  0  0  0
144145  1  0  0  0  0
144146  1  0  0  0  0
146147  1  0  0  0  0
138148  1  0  0  0  0
148149  2  0  0  0  0
149150  1  0  0  0  0
150151  1  0  0  0  0
151152  1  0  0  0  0
152153  1  0  0  0  0
153154  1  0  0  0  0
154155  1  0  0  0  0
153156  2  0  0  0  0
156157  1  0  0  0  0
157158  1  0  0  0  0
156159  1  0  0  0  0
150160  2  0  0  0  0
160161  1  0  0  0  0
149162  1  0  0  0  0
162163  2  0  0  0  0
163164  1  0  0  0  0
 27  1  1  0  0  0  0
 57 31  1  0  0  0  0
 87 61  1  0  0  0  0
 96 91  1  0  0  0  0
131105  1  0  0  0  0
161135  1  0  0  0  0
 26  3  1  0  0  0  0
 56 33  1  0  0  0  0
 86 63  1  0  0  0  0
104 95  1  0  0  0  0
130107  1  0  0  0  0
160137  1  0  0  0  0
 12  5  2  0  0  0  0
 30 14  1  0  0  0  0
 42 35  2  0  0  0  0
 60 44  1  0  0  0  0
 72 65  2  0  0  0  0
 90 74  1  0  0  0  0
116109  2  0  0  0  0
134118  1  0  0  0  0
146139  2  0  0  0  0
164148  1  0  0  0  0
 23 17  2  0  0  0  0
 53 47  2  0  0  0  0
 83 77  2  0  0  0  0
127121  2  0  0  0  0
157151  2  0  0  0  0
  1165  1  0  0  0  0
  2166  1  0  0  0  0
  8167  1  0  0  0  0
  8168  1  0  0  0  0
  9169  1  0  0  0  0
  9170  1  0  0  0  0
  9171  1  0  0  0  0
 20172  1  0  0  0  0
 20173  1  0  0  0  0
 21174  1  0  0  0  0
 21175  1  0  0  0  0
 21176  1  0  0  0  0
 28177  1  0  0  0  0
 32178  1  0  0  0  0
 38179  1  0  0  0  0
 38180  1  0  0  0  0
 39181  1  0  0  0  0
 39182  1  0  0  0  0
 39183  1  0  0  0  0
 50184  1  0  0  0  0
 50185  1  0  0  0  0
 51186  1  0  0  0  0
 51187  1  0  0  0  0
 51188  1  0  0  0  0
 58189  1  0  0  0  0
 62190  1  0  0  0  0
 68191  1  0  0  0  0
 68192  1  0  0  0  0
 69193  1  0  0  0  0
 69194  1  0  0  0  0
 69195  1  0  0  0  0
 80196  1  0  0  0  0
 80197  1  0  0  0  0
 81198  1  0  0  0  0
 81199  1  0  0  0  0
 81200  1  0  0  0  0
 88201  1  0  0  0  0
 92202  1  0  0  0  0
 93203  1  0  0  0  0
 99204  1  0  0  0  0
 99205  1  0  0  0  0
100206  1  0  0  0  0
100207  1  0  0  0  0
100208  1  0  0  0  0
102209  1  0  0  0  0
102210  1  0  0  0  0
103211  1  0  0  0  0
103212  1  0  0  0  0
103213  1  0  0  0  0
106214  1  0  0  0  0
112215  1  0  0  0  0
112216  1  0  0  0  0
113217  1  0  0  0  0
113218  1  0  0  0  0
113219  1  0  0  0  0
124220  1  0  0  0  0
124221  1  0  0  0  0
125222  1  0  0  0  0
125223  1  0  0  0  0
125224  1  0  0  0  0
132225  1  0  0  0  0
136226  1  0  0  0  0
142227  1  0  0  0  0
142228  1  0  0  0  0
143229  1  0  0  0  0
143230  1  0  0  0  0
143231  1  0  0  0  0
154232  1  0  0  0  0
154233  1  0  0  0  0
155234  1  0  0  0  0
155235  1  0  0  0  0
155236  1  0  0  0  0
162237  1  0  0  0  0
163238  1  0  0  0  0
M  END
