234

C          1.89070        6.64160       -4.41560
C          1.99030        7.83380       -3.79510
C          1.95260        7.72330       -2.37260
C          2.04860        8.73380       -1.40460
C          2.31410       10.10870       -1.79080
S          1.33750       11.43200       -1.23260
C          2.27730       12.59350       -2.10590
C          1.92150       14.03890       -2.09420
C          0.84290       14.34820       -3.13500
C          3.28290       11.97540       -2.78750
Cl         4.42620       12.80530       -3.76580
C          3.31230       10.56710       -2.60630
Cl         4.54280        9.56770       -3.27700
C          1.91470        8.35110       -0.07520
C          1.74940        7.00570        0.33810
C          1.65950        5.99550       -0.63140
C          1.45880        4.57870       -0.34560
S          0.09600        3.72570       -1.01040
C          0.67470        2.19440       -0.45500
C         -0.06190        0.92490       -0.71480
C         -1.40050        1.15080       -1.40080
C          1.85580        2.35350        0.20750
C          2.29130        3.70240        0.28580
Cl         3.74200        4.17260        1.06640
Cl         2.77120        1.04780        0.84420
C          1.76610        6.38610       -1.96150
S          1.72700        5.30730       -3.32760
C          1.68070        6.89870        1.75690
C          1.77240        8.09040        2.40040
S          1.94750        9.43320        1.28410
C          1.75160        8.35240        3.82420
C          2.68170        7.92360        4.75170
C          2.30590        8.30820        6.06060
C          1.11120        9.04910        6.09400
S          0.43070        9.26340        4.52420
C          0.88320        9.38770        7.43290
C          1.92810        8.85620        8.15700
N          2.79560        8.19600        7.33500
C          4.03370        7.57450        7.73100
C          5.23960        8.40740        7.30430
C          1.93660        9.11770        9.62230
C          0.52660        9.63330        9.94470
S         -0.27820       10.26530        8.40390
C          3.86160        7.22050        4.29020
C          4.61830        7.60300        3.22990
C          5.49960        6.59650        2.75780
C          6.24730        6.59470        1.56350
C          6.53280        7.78900        0.79560
S          5.39720        9.07510        0.50990
C          6.57530       10.06510       -0.27920
C          6.26350       11.44250       -0.75040
C          5.20610       12.12360        0.11100
C          7.76630        9.40550       -0.34910
Cl         9.18020       10.06800       -1.06210
C          7.74810        8.12030        0.25100
Cl         9.16390        7.16250        0.37700
C          6.67910        5.34350        1.12580
C          6.62500        4.19120        1.94040
C          6.07190        4.24630        3.23610
C          6.01970        3.04510        4.04140
S          4.55220        2.49420        4.79570
C          5.30130        1.04950        5.38090
C          4.52180        0.02170        6.12430
C          3.94480       -1.02440        5.16720
C          6.61230        1.00790        5.00700
C          7.02230        2.13320        4.24700
Cl         8.63840        2.34470        3.70980
Cl         7.68040       -0.27100        5.41290
C          5.42240        5.42970        3.55720
S          4.29890        5.62770        4.87250
C          6.79920        3.00530        1.19250
C          6.86370        3.22040       -0.15410
S          6.97730        4.92130       -0.54330
C          6.42590        2.20830       -1.06950
C          6.46790        0.86580       -0.83560
C          5.45440        0.14860       -1.51360
C          5.05530       -1.17540       -1.28650
C          5.73020       -2.05380       -0.34090
S          6.25480       -3.63940       -0.82270
C          6.76970       -4.04410        0.77970
C          7.29670       -5.40120        1.08950
C          6.16970       -6.43650        1.06980
C          6.54310       -3.00080        1.62590
Cl         6.91830       -3.01980        3.30070
C          5.95500       -1.87050        0.99460
Cl         5.49980       -0.47110        1.87710
C          3.88070       -1.58650       -1.89930
C          3.09670       -0.75230       -2.73230
C          3.54750        0.54840       -3.03450
C          2.83580        1.42540       -3.94710
S          1.11700        1.66290       -3.86310
C          1.10940        2.76680       -5.19210
C         -0.16070        3.37920       -5.66780
C         -1.14790        2.31810       -6.15360
C          2.37470        2.92760       -5.67010
C          3.35510        2.17550       -4.96850
Cl         4.99990        2.15860       -5.44910
Cl         2.77890        3.94200       -6.99340
C          4.69370        0.98010       -2.37500
S          5.25280        2.62770       -2.30520
C          1.86240       -1.36850       -3.06660
C          1.70500       -2.60330       -2.51340
S          3.10880       -3.11420       -1.59910
C          0.53670       -3.42250       -2.45120
C          0.48380       -4.74890       -2.14720
C         -0.83100       -5.23080       -1.93880
C         -1.23580       -6.53160       -1.59230
C         -0.26030       -7.57730       -1.33420
S         -0.37420       -9.13130       -2.10550
C          1.05270       -9.71450       -1.31920
C          1.52840      -11.11020       -1.52360
C          0.76910      -12.08160       -0.61660
C          1.56690       -8.75510       -0.49910
Cl         2.97940       -8.96290        0.45300
C          0.82780       -7.54150       -0.50500
Cl         1.23820       -6.21820        0.51020
C         -2.60200       -6.75650       -1.48430
C         -3.56550       -5.73040       -1.64110
C         -3.15690       -4.42130       -1.94370
C         -4.11160       -3.32780       -2.03180
S         -5.45320       -3.35590       -3.13440
C         -6.00800       -1.79780       -2.61950
C         -7.25390       -1.20730       -3.18070
C         -8.49190       -1.91120       -2.62050
C         -5.19410       -1.30260       -1.64520
C         -4.11740       -2.16750       -1.31000
Cl        -3.00850       -1.82110       -0.04940
Cl        -5.41740        0.21840       -0.88230
C         -1.79630       -4.20760       -2.10890
S         -1.05380       -2.69600       -2.54810
C         -4.87970       -6.19450       -1.39270
C         -4.93680       -7.51780       -1.07400
S         -3.35290       -8.26820       -1.05780
C         -6.09860       -8.28660       -0.77420
C         -6.17060       -9.62510       -0.53340
C         -7.48810      -10.08540       -0.28630
C         -7.90840      -11.39240        0.01210
C         -6.95670      -12.48920        0.07060
S         -5.86950      -12.80380       -1.25060
C         -5.14060      -14.14640       -0.43710
C         -4.00140      -14.88270       -1.05040
C         -2.72030      -14.04680       -0.99880
C         -5.71590      -14.32660        0.78470
Cl        -5.25420      -15.55380        1.89150
C         -6.75030      -13.39470        1.07370
Cl        -7.57280      -13.37450        2.57640
C         -9.26890      -11.58290        0.22560
C        -10.21050      -10.52610        0.18270
C         -9.78240       -9.21220       -0.06520
C        -10.70560       -8.09040       -0.02970
S        -10.78830       -6.93200       -1.32290
C        -11.99750       -5.99650       -0.51240
C        -12.51080       -4.72790       -1.09840
C        -11.58610       -3.55890       -0.74980
C        -12.30120       -6.55580        0.69290
C        -11.57500       -7.74550        0.96840
Cl       -11.72750       -8.59640        2.45130
Cl       -13.44880       -5.90300        1.78920
C         -8.43030       -9.02980       -0.32530
S         -7.66610       -7.50790       -0.68660
C        -11.54230      -11.00330        0.35510
C        -11.60060      -12.33970        0.52650
S        -10.05460      -13.11180        0.49470
H          1.90010        6.44150       -5.46910
H          2.07080        8.76950       -4.31660
H          2.81770       14.62260       -2.31270
H          1.55740       14.31220       -1.10250
H          1.19750       14.09800       -4.13170
H          0.59190       15.40500       -3.10990
H         -0.05490       13.77030       -2.92960
H          0.56660        0.27990       -1.33770
H         -0.21120        0.40360        0.23550
H         -2.06180        1.73430       -0.76520
H         -1.25870        1.68600       -2.33650
H         -1.87250        0.19700       -1.61630
H          1.55790        5.96190        2.27040
H          4.09170        6.57920        7.28000
H          4.01990        7.46380        8.81750
H          5.19590        9.39770        7.75150
H          6.15670        7.91860        7.62090
H          5.25900        8.51650        6.22270
H          2.15080        8.22090       10.20790
H          2.69080        9.87290        9.86970
H         -0.11030        8.82970       10.31440
H          0.52970       10.44580       10.66720
H          4.50490        8.56380        2.76490
H          5.92090       11.40210       -1.78710
H          7.19060       12.02080       -0.73940
H          4.98720       13.11390       -0.27910
H          4.28620       11.54260        0.11860
H          5.55660       12.22200        1.13560
H          3.70940        0.50890        6.66610
H          5.18080       -0.46920        6.84360
H          3.30490       -0.54840        4.42760
H          4.74670       -1.54350        4.64960
H          3.35820       -1.75380        5.71960
H          6.68090        2.02520        1.61430
H          7.15840        0.41230       -0.14980
H          8.05290       -5.67700        0.35140
H          7.76390       -5.37950        2.07550
H          5.41410       -6.18790        1.81100
H          5.69760       -6.46090        0.09030
H          6.56420       -7.42430        1.29260
H          0.07300        4.07070       -6.47860
H         -0.61240        3.94610       -4.84960
H         -2.06480        2.79000       -6.49550
H         -1.38930        1.62960       -5.34700
H         -0.72040        1.75150       -6.97730
H          1.10200       -0.91020       -3.67260
H          1.36640       -5.35770       -2.07980
H          2.59520      -11.15370       -1.29730
H          1.37850      -11.39570       -2.56610
H          1.12100      -13.09660       -0.77910
H          0.92520      -11.82180        0.42730
H         -0.29620      -12.04160       -0.83000
H         -7.24550       -1.30350       -4.26830
H         -7.28240       -0.14720       -2.92410
H         -8.52330       -1.81400       -1.53800
H         -8.47080       -2.96830       -2.87630
H         -9.39310       -1.46890       -3.03580
H         -5.75540       -5.57320       -1.44580
H         -5.30160      -10.25740       -0.53420
H         -4.23660      -15.11740       -2.09060
H         -3.85680      -15.81690       -0.50580
H         -2.85820      -13.11450       -1.54220
H         -1.89780      -14.59600       -1.44880
H         -2.46230      -13.81550        0.03180
H        -13.50970       -4.53620       -0.70290
H        -12.57520       -4.82890       -2.18300
H        -11.96410       -2.63950       -1.18820
H        -10.58540       -3.74390       -1.13240
H        -11.52900       -3.43320        0.32830
H        -12.40750      -10.36730        0.32940
H        -12.47250      -12.94670        0.67380
