226

C          1.09920       -0.26750        9.54340
C          1.70780        0.79410        8.97850
C          2.03470        0.58220        7.60580
C          2.62400        1.48340        6.70690
C          2.74430        2.91350        7.00420
C          3.85610        3.66420        6.62950
C          3.85750        5.03970        6.74750
C          2.74830        5.71720        7.24120
S          2.63880        7.47590        7.34020
C          3.50100        7.99930        5.81370
C          2.83780        7.45320        4.56500
C          1.66970        4.95150        7.68120
F          0.58720        5.56360        8.19910
C          1.65200        3.57910        7.56380
C          2.94170        0.98320        5.44990
C          2.56120       -0.30970        5.01270
C          1.84060       -1.15650        5.87020
C          1.16940       -2.37070        5.39080
C          0.36050       -2.29140        4.25740
C         -0.41220       -3.36270        3.86160
C         -0.40100       -4.55370        4.57750
S         -1.41070       -5.94380        4.16200
C         -2.98880       -5.14200        3.69600
C         -3.56610       -4.31030        4.82360
C          0.44880       -4.63940        5.67740
C          1.21750       -3.57240        6.09340
F          0.50740       -5.78470        6.38080
C          1.66220       -0.71210        7.17430
S          0.87270       -1.59390        8.45600
C          2.96660       -0.55640        3.67330
C          3.61110        0.49640        3.09820
S          3.72910        1.87060        4.17420
C          4.15720        0.58030        1.77780
S          4.32500        2.11760        0.99000
C          4.92850        1.37720       -0.46290
C          5.03220       -0.00580       -0.31080
C          4.57520       -0.43330        0.96100
C          5.51970       -0.94950       -1.32590
O          6.19880       -0.62000       -2.27690
C          5.13730       -2.39400       -1.10740
C          4.97050        2.21710       -1.62160
S          3.97020        3.64770       -1.54930
C          4.14650        3.93970       -3.25120
C          5.03960        3.03530       -3.81470
C          5.50290        2.07930       -2.87660
C          5.44360        3.06460       -5.22970
O          4.87250        3.74250       -6.05790
C          6.62310        2.19540       -5.58510
C          3.12980        4.80140       -3.77610
C          2.30410        4.56540       -4.83980
C          0.97660        5.02580       -4.62420
C         -0.17870        4.61440       -5.31110
C         -0.16260        3.86360       -6.57650
C          0.49090        2.64200       -6.69660
C          0.40660        1.90300       -7.86090
C         -0.33800        2.35740       -8.94320
S         -0.52870        1.49770      -10.46930
C         -0.20260       -0.24520      -10.02630
C         -1.24630       -0.80220       -9.07790
C         -0.96970        3.59530       -8.81530
F         -1.68540        4.07800       -9.84860
C         -0.90130        4.33770       -7.65760
C         -1.37950        4.74820       -4.63080
C         -1.49130        5.35020       -3.35490
C         -0.36260        5.92420       -2.74570
C         -0.44870        6.47730       -1.38400
C         -1.28530        7.55080       -1.09940
C         -1.37380        8.06820        0.17990
C         -0.62800        7.52460        1.21890
S         -0.65980        8.07100        2.89590
C         -1.35000        9.75690        2.80570
C         -0.40750       10.72530        2.11750
C          0.18640        6.43070        0.92320
C          0.28180        5.90440       -0.34430
F          0.90500        5.86540        1.91410
C          0.84540        5.70480       -3.38190
S          2.39870        5.91200       -2.61700
C         -2.64800        4.91360       -2.66220
C         -3.35110        3.95130       -3.33020
S         -2.79970        3.78740       -5.00000
C         -3.97920        2.82980       -2.70110
C         -4.43920        1.67910       -3.27260
C         -4.32350        0.53760       -2.43250
C         -4.49980       -0.81630       -2.76380
C         -5.00940       -1.27510       -4.06340
C         -6.03890       -2.21360       -4.11950
C         -6.46260       -2.71990       -5.32800
C         -5.88540       -2.31300       -6.53090
S         -6.54450       -3.03520       -8.00260
C         -5.13280       -3.14050       -9.16290
C         -3.99160       -3.96500       -8.60260
C         -4.88260       -1.35090       -6.46070
F         -4.29090       -0.87490       -7.57960
C         -4.43470       -0.84840       -5.25490
C         -4.05160       -1.75000       -1.83830
C         -3.42270       -1.39830       -0.62070
C         -3.30810       -0.05040       -0.25530
C         -2.54380        0.35510        0.93520
C         -2.89130       -0.04580        2.22180
C         -2.15400        0.37990        3.30830
C         -1.03030        1.18990        3.15220
S         -0.15340        1.68890        4.60530
C          0.25670        3.44300        4.27460
C         -0.98550        4.29240        4.11190
C         -0.65130        1.51580        1.85300
C         -1.40330        1.13290        0.76260
F          0.48350        2.20470        1.60950
C         -3.77660        0.87710       -1.16740
S         -3.57320        2.59790       -0.99930
C         -2.80580       -2.50960        0.00370
C         -2.94800       -3.67220       -0.69100
S         -3.93680       -3.46990       -2.12760
C         -2.30760       -4.91800       -0.42440
C         -2.48660       -6.11200       -1.05130
C         -1.61380       -7.13250       -0.59080
C         -1.52860       -8.46070       -1.03620
C         -2.41830       -8.93590       -2.10290
C         -1.90430       -9.53080       -3.25350
C         -2.73450       -9.85600       -4.30520
C         -4.10530       -9.61680       -4.24670
S         -5.08440      -10.03780       -5.66060
C         -6.17920       -8.58060       -5.85530
C         -5.39370       -7.29930       -6.05500
C         -4.61450       -9.09230       -3.06280
F         -5.94240       -8.89720       -2.90830
C         -3.79330       -8.73970       -2.01180
C         -0.54380       -9.24690       -0.45580
C          0.34050       -8.77260        0.54510
C          0.26080       -7.44320        0.98710
C          1.17600       -6.89780        1.99810
C          1.39030       -7.54180        3.21680
C          2.25230       -7.01010        4.14810
C          2.94570       -5.81770        3.91690
S          4.04590       -5.32280        5.20160
C          4.47960       -3.57450        4.85410
C          5.08680       -2.95720        6.09810
C          2.71870       -5.18810        2.69880
C          1.85050       -5.70650        1.75870
F          3.35420       -4.03380        2.36040
C         -0.71810       -6.65760        0.39730
S         -1.01750       -4.98150        0.76230
C          1.26490       -9.78290        0.94580
C          1.07050      -10.95540        0.30940
S         -0.23340      -10.92250       -0.82760
H          0.76150       -0.37350       10.55580
H          1.94860        1.69640        9.51100
H          4.73580        3.16850        6.24960
H          4.73070        5.59360        6.44170
H          4.54930        7.71130        5.88290
H          3.43590        9.08670        5.85060
H          3.32840        7.85480        3.68090
H          1.78730        7.73250        4.53570
H          2.90210        6.36770        4.52750
H          0.76430        3.03960        7.85520
H          0.30560       -1.36350        3.70900
H         -1.04060       -3.26780        2.99120
H         -3.63700       -5.98460        3.45620
H         -2.83430       -4.55230        2.79340
H         -3.69080       -4.91830        5.71650
H         -4.53750       -3.91640        4.53070
H         -2.90970       -3.47540        5.06230
H          1.84560       -3.69360        6.96140
H          2.77900       -1.47660        3.15060
H          4.56600       -1.45880        1.28080
H          5.70520       -2.79800       -0.27140
H          4.07810       -2.48810       -0.88350
H          5.38150       -2.96480       -1.99990
H          6.16870        1.27430       -3.12280
H          7.47200        2.43180       -4.94810
H          6.88820        2.35830       -6.62650
H          6.36790        1.14790       -5.43830
H          2.60170        3.96860       -5.68110
H          1.04700        2.24690       -5.85990
H          0.92900        0.96160       -7.91850
H         -0.23670       -0.75820      -10.98740
H          0.80800       -0.32580       -9.62780
H         -2.23920       -0.70670       -9.50960
H         -1.04840       -1.85520       -8.88550
H         -1.23810       -0.26890       -8.12980
H         -1.42210        5.28100       -7.60390
H         -1.86960        7.99360       -1.89220
H         -2.03750        8.89830        0.36090
H         -1.49250       10.02840        3.85170
H         -2.32600        9.71000        2.32440
H         -0.22210       10.42600        1.08780
H         -0.83960       11.72400        2.11700
H          0.54490       10.75840        2.64150
H          0.91250        5.04450       -0.50200
H         -2.83580        5.16400       -1.63240
H         -4.76290        1.63540       -4.29680
H         -6.50810       -2.54620       -3.20640
H         -7.25480       -3.45130       -5.36520
H         -4.81930       -2.13490       -9.43300
H         -5.57100       -3.62150      -10.03750
H         -3.21560       -4.07370       -9.35770
H         -4.34130       -4.95410       -8.31470
H         -3.55590       -3.48540       -7.72850
H         -3.62130       -0.13910       -5.26300
H         -3.76210       -0.66620        2.37120
H         -2.43950        0.09420        4.30880
H          0.91010        3.50420        3.40820
H          0.82010        3.73780        5.15930
H         -1.55380        3.98860        3.23380
H         -0.69290        5.33290        3.99070
H         -1.62550        4.20880        4.98770
H         -1.07110        1.42180       -0.22250
H         -2.22700       -2.42850        0.90670
H         -3.21150       -6.24790       -1.83370
H         -0.84220       -9.70030       -3.33890
H         -2.32980      -10.28910       -5.20650
H         -6.76290       -8.82460       -6.74270
H         -6.84600       -8.52070       -4.99840
H         -6.07750       -6.47750       -6.25940
H         -4.81660       -7.05220       -5.16530
H         -4.70710       -7.40210       -6.89300
H         -4.23860       -8.33520       -1.11580
H          0.84910       -8.44600        3.44630
H          2.40230       -7.50660        5.09380
H          3.56000       -3.06220        4.58450
H          5.18220       -3.55240        4.02210
H          4.38520       -2.99770        6.92730
H          5.99440       -3.48280        6.38720
H          5.33080       -1.91450        5.90320
H          1.73690       -5.17740        0.82510
H          2.04080       -9.61860        1.67080
H          1.62210      -11.86780        0.42620
