227

C          0.94320       -5.97560       12.21970
C          0.92010       -5.72260       10.89570
C         -0.16810       -6.35910       10.23010
C         -0.47470       -6.35480        8.86070
C          0.27400       -5.53870        7.91880
S          0.97400       -6.21590        6.47980
C          1.59820       -4.68480        5.96980
C          2.31730       -4.54030        4.67430
C          1.32520       -4.39480        3.51790
C          1.26510       -3.71410        6.86670
Cl         1.69780       -2.06200        6.69490
C          0.52010       -4.19500        7.97640
Cl        -0.07100       -3.16060        9.21240
C         -1.53170       -7.15440        8.44720
C         -2.32230       -7.91600        9.34200
C         -2.04260       -7.88470       10.71850
C         -2.83330       -8.64110       11.67560
S         -3.05680      -10.35830       11.50900
C         -3.98450      -10.46030       12.96780
C         -4.56700      -11.75290       13.42290
C         -5.85890      -12.07020       12.66660
C         -4.11580       -9.22650       13.52990
C         -3.45960       -8.19460       12.80530
Cl        -3.53310       -6.54950       13.27940
Cl        -4.98140       -8.92210       14.97980
C         -0.96030       -7.11310       11.12750
S         -0.34670       -6.99700       12.75260
C         -3.36360       -8.60510        8.67200
C         -3.37500       -8.39880        7.32210
S         -2.09260       -7.32030        6.80990
C         -4.27250       -8.93260        6.35150
S         -3.96250       -8.63600        4.64640
C         -5.38690       -9.50840        4.22420
C         -6.04220      -10.00360        5.36530
C         -5.40930       -9.67960        6.57120
N         -7.14500      -10.67490        4.93950
C         -7.22640      -10.58380        3.56780
C         -6.12670       -9.87310        3.09990
C         -8.28200      -11.22250        2.83140
C         -8.70080      -10.85420        1.60950
C         -8.27710       -9.63640        0.94960
C         -7.75610       -9.47290       -0.29280
C         -7.37370       -8.13350       -0.58010
C         -6.73640       -7.64090       -1.73030
C         -6.45350       -8.50350       -2.86720
S         -7.72680       -9.40010       -3.64350
C         -6.64710      -10.07370       -4.81660
C         -7.14190      -10.96660       -5.90030
C         -7.65000      -10.15120       -7.09180
C         -5.38060       -9.61690       -4.60840
Cl        -4.03270      -10.06410       -5.57130
C         -5.26480       -8.73100       -3.50260
Cl        -3.75530       -8.09860       -2.99280
C         -6.38810       -6.29540       -1.73140
C         -6.67180       -5.42760       -0.64830
C         -7.32520       -5.91570        0.49540
C         -7.63970       -5.03800        1.61130
S         -8.55800       -3.58020        1.36380
C         -8.51150       -3.16940        3.04450
C         -9.20630       -1.95890        3.56250
C        -10.69820       -2.23010        3.76960
C         -7.82670       -4.11810        3.74210
C         -7.32700       -5.17620        2.93470
Cl        -6.35770       -6.43340        3.57840
Cl        -7.56360       -4.05990        5.43690
C         -7.64820       -7.26600        0.50570
S         -8.41670       -8.11440        1.81170
C         -6.16070       -4.12570       -0.86560
C         -5.52230       -3.98530       -2.06190
S         -5.55750       -5.45640       -3.01010
C         -4.76810       -2.85990       -2.50370
C         -3.93680       -2.78360       -3.58080
C         -3.18270       -1.58530       -3.62910
C         -2.18710       -1.22400       -4.55380
C         -1.77070       -2.12960       -5.61110
S         -1.70280       -1.60940       -7.26790
C         -1.13380       -3.15130       -7.80990
C         -0.80200       -3.38460       -9.24200
C          0.52970       -2.72420       -9.60600
C         -0.99810       -4.00400       -6.75540
Cl        -0.44910       -5.62410       -6.89330
C         -1.36130       -3.43060       -5.50690
Cl        -1.20450       -4.28370       -4.02490
C         -1.58180        0.01310       -4.37690
C         -1.92320        0.88750       -3.31720
C         -2.93490        0.53870       -2.40400
C         -3.31520        1.44690       -1.33670
S         -3.41680        0.91630        0.31600
C         -3.85420        2.49390        0.87920
C         -4.14930        2.73920        2.31750
C         -5.49620        2.12920        2.71170
C         -3.92450        3.36610       -0.16550
C         -3.61690        2.77920       -1.42200
Cl        -3.71180        3.66420       -2.89170
Cl        -4.33610        5.02500       -0.00800
C         -3.51810       -0.70950       -2.56620
S         -4.72720       -1.40510       -1.52630
C         -1.07820        2.01890       -3.27510
C         -0.14180        2.04050       -4.26830
S         -0.25650        0.64490       -5.31560
C          0.86290        3.04330       -4.42110
C          0.87230        4.24870       -3.78160
C          2.05000        4.99920       -3.99850
C          2.37570        6.26050       -3.46500
C          1.45510        6.95960       -2.58460
S          0.74020        6.15900       -1.21340
C         -0.15980        7.56090       -0.75560
C         -1.08480        7.56680        0.41370
C         -1.03290        6.27390        1.21500
C          0.09580        8.58480       -1.61960
Cl        -0.62750       10.13490       -1.48280
C          1.01010        8.25180       -2.65390
Cl         1.41790        9.35140       -3.90260
C          3.62310        6.77390       -3.79600
C          4.52800        6.09260       -4.64880
C          4.16880        4.86810       -5.24260
C          5.05900        4.21250       -6.18300
S          5.46930        2.52950       -6.02970
C          6.51340        2.57710       -7.40900
C          7.20630        1.35180       -7.89320
C          6.27170        0.50580       -8.76110
C          6.52000        3.82560       -7.95630
C          5.69890        4.75600       -7.26500
Cl         5.48620        6.36950       -7.81480
Cl         7.44060        4.26370       -9.33710
C          2.94400        4.33090       -4.87110
S          2.29730        2.79930       -5.39190
C          5.76990        6.76110       -4.74040
C          5.82160        7.92040       -4.02130
S          4.32620        8.23860       -3.17410
C          6.92300        8.82660       -3.95930
C          8.12830        8.67740       -4.58210
C          9.00330        9.77240       -4.39130
C         10.30790        9.93050       -4.88950
C         10.87580        8.95610       -5.80420
S         12.44270        8.25360       -5.52880
C         12.33790        7.26790       -6.94670
C         13.41680        6.30540       -7.30180
C         13.18990        4.95270       -6.62230
C         11.15170        7.47910       -7.58460
Cl        10.68110        6.67240       -9.02460
C         10.32330        8.43990       -6.94570
Cl         8.82260        8.94160       -7.61480
C         11.00700       11.05470       -4.46750
C         10.44670       12.03470       -3.61400
C          9.12470       11.90220       -3.16060
C          8.50650       12.89640       -2.29740
S          9.23030       13.35710       -0.78460
C          7.93790       14.44400       -0.40600
C          7.90400       15.18550        0.88450
C          7.24970       14.34040        1.98040
C          7.00660       14.43510       -1.40050
C          7.32530       13.56110       -2.47500
Cl         6.34850       13.43310       -3.87730
Cl         5.58130       15.38990       -1.38340
C          8.43170       10.76560       -3.55870
S          6.81970       10.32910       -3.07090
C         11.36100       13.10120       -3.36990
C         12.54150       12.93290       -3.99900
S         12.62980       11.48010       -4.93380
H          1.64940       -5.62350       12.94590
H          1.65310       -5.12120       10.39060
H          2.94350       -5.41830        4.50680
H          2.95680       -3.65700        4.72330
H          0.70460       -3.51390        3.66200
H          0.68010       -5.26840        3.46300
H          1.85970       -4.29410        2.57710
H         -3.84490      -12.55460       13.25810
H         -4.77550      -11.68310       14.49180
H         -6.59370      -11.28600       12.83070
H         -5.66120      -12.14590       11.59980
H         -6.27260      -13.01350       13.01290
H         -4.07400       -9.23290        9.17640
H         -5.75730       -9.95490        7.54940
H         -7.83480      -11.11480        5.52490
H         -5.88380       -9.67630        2.07600
H         -8.73070      -12.08750        3.30380
H         -9.41330      -11.46830        1.07540
H         -7.59060      -10.29270       -0.96830
H         -7.95080      -11.59030       -5.51560
H         -6.32290      -11.61240       -6.22220
H         -8.46500       -9.50060       -6.78360
H         -6.84920       -9.53760       -7.49650
H         -8.00920      -10.81580       -7.87290
H         -9.08200       -1.13770        2.85420
H         -8.75000       -1.67520        4.51250
H        -11.16500       -2.50830        2.82770
H        -10.83840       -3.04080        4.48000
H        -11.18970       -1.34050        4.15410
H         -6.22420       -3.32830       -0.14740
H         -3.85630       -3.57400       -4.30430
H         -0.74170       -4.46020       -9.41550
H         -1.59340       -2.97250       -9.87130
H          0.75930       -2.89840      -10.65360
H          1.33270       -3.13580       -8.99960
H          0.47800       -1.65210       -9.43170
H         -4.16440        3.81630        2.49130
H         -3.36110        2.29780        2.93070
H         -5.69590        2.31390        3.76370
H         -5.48700        1.05550        2.54000
H         -6.29700        2.56880        2.12220
H         -1.12680        2.76280       -2.50330
H          0.05500        4.59080       -3.17680
H         -2.10370        7.73290        0.04880
H         -0.83200        8.41770        1.05320
H         -0.02950        6.10000        1.59620
H         -1.72060        6.32670        2.05480
H         -1.31500        5.42840        0.59180
H          8.07890        1.65080       -8.47660
H          7.54050        0.76130       -7.03830
H          6.78770       -0.38620       -9.10570
H          5.94370        1.07540       -9.62690
H          5.39620        0.20620       -8.19010
H          6.60160        6.38410       -5.30370
H          8.39190        7.80460       -5.14780
H         13.42440        6.17180       -8.38520
H         14.38030        6.71210       -6.99100
H         13.98350        4.26140       -6.89270
H         12.23810        4.53010       -6.93400
H         13.18160        5.07030       -5.54130
H          7.33440       16.10610        0.74450
H          8.92160       15.44340        1.18240
H          6.23260       14.08110        1.69820
H          7.22220       14.89580        2.91390
H          7.81210       13.42270        2.13540
H         11.12980       13.94990       -2.75310
H         13.39490       13.58210       -3.98200
