
  xtb     03072216433D
 energy: -429.306355045786 gnorm: 0.000628147899 xtb: 6.4.1 (unknown)
252277  0     0  0            999 V2000
    1.0709    1.7693    8.6559 C   0  0  0  0  0  0  0  0  0  0  0  0
    0.5763    2.5348    7.6628 C   0  0  0  0  0  0  0  0  0  0  0  0
    0.1993    1.7816    6.5108 C   0  0  0  0  0  0  0  0  0  0  0  0
   -0.3574    2.2526    5.3101 C   0  0  0  0  0  0  0  0  0  0  0  0
   -0.6054    3.6832    5.0910 C   0  0  0  0  0  0  0  0  0  0  0  0
    0.3785    4.6339    5.3486 C   0  0  0  0  0  0  0  0  0  0  0  0
    0.1266    5.9843    5.2110 C   0  0  0  0  0  0  0  0  0  0  0  0
   -1.1289    6.4373    4.8213 C   0  0  0  0  0  0  0  0  0  0  0  0
   -1.5825    8.1299    4.6968 S   0  0  0  0  0  0  0  0  0  0  0  0
   -0.2985    8.9667    5.7042 C   0  0  0  0  0  0  0  0  0  0  0  0
   -0.7242   10.4031    5.9394 C   0  0  0  0  0  0  0  0  0  0  0  0
   -2.0926    5.4739    4.5168 C   0  0  0  0  0  0  0  0  0  0  0  0
   -3.3167    5.8711    4.1214 F   0  0  0  0  0  0  0  0  0  0  0  0
   -1.8499    4.1246    4.6437 C   0  0  0  0  0  0  0  0  0  0  0  0
   -0.6778    1.2898    4.3631 C   0  0  0  0  0  0  0  0  0  0  0  0
   -0.4777   -0.0978    4.5701 C   0  0  0  0  0  0  0  0  0  0  0  0
    0.0442   -0.5720    5.7856 C   0  0  0  0  0  0  0  0  0  0  0  0
    0.0797   -2.0105    6.0812 C   0  0  0  0  0  0  0  0  0  0  0  0
   -0.5308   -2.4883    7.2414 C   0  0  0  0  0  0  0  0  0  0  0  0
   -0.6344   -3.8407    7.4812 C   0  0  0  0  0  0  0  0  0  0  0  0
   -0.1466   -4.7823    6.5761 C   0  0  0  0  0  0  0  0  0  0  0  0
   -0.5111   -6.4791    6.9137 S   0  0  0  0  0  0  0  0  0  0  0  0
    1.0286   -7.3848    6.4821 C   0  0  0  0  0  0  0  0  0  0  0  0
    0.8396   -8.8530    6.8048 C   0  0  0  0  0  0  0  0  0  0  0  0
    0.4809   -4.2925    5.4364 C   0  0  0  0  0  0  0  0  0  0  0  0
    0.6109   -2.9396    5.1930 C   0  0  0  0  0  0  0  0  0  0  0  0
    0.9655   -5.1326    4.4913 F   0  0  0  0  0  0  0  0  0  0  0  0
    0.3901    0.3941    6.7182 C   0  0  0  0  0  0  0  0  0  0  0  0
    1.1004    0.0807    8.2804 S   0  0  0  0  0  0  0  0  0  0  0  0
   -0.8866   -0.8582    3.4496 C   0  0  0  0  0  0  0  0  0  0  0  0
   -1.3439   -0.1065    2.4069 C   0  0  0  0  0  0  0  0  0  0  0  0
   -1.3529    1.5997    2.7837 S   0  0  0  0  0  0  0  0  0  0  0  0
   -1.7806   -0.6193    1.1482 C   0  0  0  0  0  0  0  0  0  0  0  0
   -1.8483   -1.9394    0.8107 C   0  0  0  0  0  0  0  0  0  0  0  0
   -2.3614   -2.1722   -0.4849 C   0  0  0  0  0  0  0  0  0  0  0  0
   -2.5304   -3.4198   -1.1125 C   0  0  0  0  0  0  0  0  0  0  0  0
   -1.9298   -4.6357   -0.5556 C   0  0  0  0  0  0  0  0  0  0  0  0
   -2.6013   -5.8569   -0.5479 C   0  0  0  0  0  0  0  0  0  0  0  0
   -1.9857   -6.9954   -0.0672 C   0  0  0  0  0  0  0  0  0  0  0  0
   -0.6915   -6.9522    0.4332 C   0  0  0  0  0  0  0  0  0  0  0  0
    0.0634   -8.4310    1.0709 S   0  0  0  0  0  0  0  0  0  0  0  0
    0.1139   -7.9667    2.8432 C   0  0  0  0  0  0  0  0  0  0  0  0
   -1.2797   -7.8328    3.4233 C   0  0  0  0  0  0  0  0  0  0  0  0
   -0.0254   -5.7324    0.4176 C   0  0  0  0  0  0  0  0  0  0  0  0
    1.2362   -5.6406    0.8862 F   0  0  0  0  0  0  0  0  0  0  0  0
   -0.6233   -4.5886   -0.0677 C   0  0  0  0  0  0  0  0  0  0  0  0
   -3.2079   -3.4079   -2.3200 C   0  0  0  0  0  0  0  0  0  0  0  0
   -3.5853   -2.2105   -2.9824 C   0  0  0  0  0  0  0  0  0  0  0  0
   -3.2691   -0.9543   -2.4234 C   0  0  0  0  0  0  0  0  0  0  0  0
   -3.3977    0.2825   -3.2007 C   0  0  0  0  0  0  0  0  0  0  0  0
   -3.7871    1.4920   -2.6234 C   0  0  0  0  0  0  0  0  0  0  0  0
   -3.8104    2.6543   -3.3620 C   0  0  0  0  0  0  0  0  0  0  0  0
   -3.4724    2.6719   -4.7156 C   0  0  0  0  0  0  0  0  0  0  0  0
   -3.4574    4.2498   -5.5053 S   0  0  0  0  0  0  0  0  0  0  0  0
   -3.8709    3.9375   -7.2604 C   0  0  0  0  0  0  0  0  0  0  0  0
   -5.2322    3.2926   -7.4221 C   0  0  0  0  0  0  0  0  0  0  0  0
   -3.1101    1.4571   -5.2873 C   0  0  0  0  0  0  0  0  0  0  0  0
   -3.0553    0.2917   -4.5524 C   0  0  0  0  0  0  0  0  0  0  0  0
   -2.7872    1.3631   -6.5958 F   0  0  0  0  0  0  0  0  0  0  0  0
   -2.7239   -0.9718   -1.1422 C   0  0  0  0  0  0  0  0  0  0  0  0
   -2.3258    0.4133   -0.1531 S   0  0  0  0  0  0  0  0  0  0  0  0
   -4.1975   -2.4813   -4.2310 C   0  0  0  0  0  0  0  0  0  0  0  0
   -4.2261   -3.8058   -4.5611 C   0  0  0  0  0  0  0  0  0  0  0  0
   -3.5843   -4.8127   -3.2818 S   0  0  0  0  0  0  0  0  0  0  0  0
   -4.5238   -4.3800   -5.8243 C   0  0  0  0  0  0  0  0  0  0  0  0
   -4.9267   -3.3310   -7.1712 S   0  0  0  0  0  0  0  0  0  0  0  0
   -4.6814   -4.6352   -8.2551 C   0  0  0  0  0  0  0  0  0  0  0  0
   -4.3809   -5.8295   -7.6092 C   0  0  0  0  0  0  0  0  0  0  0  0
   -4.3019   -5.6836   -6.2277 C   0  0  0  0  0  0  0  0  0  0  0  0
   -4.0535   -6.9088   -8.6190 C   0  0  0  0  0  0  0  0  0  0  0  0
   -5.1346   -7.9939   -8.6404 C   0  0  0  0  0  0  0  0  0  0  0  0
   -2.6772   -7.5215   -8.3536 C   0  0  0  0  0  0  0  0  0  0  0  0
   -4.0648   -6.0988   -9.8980 C   0  0  0  0  0  0  0  0  0  0  0  0
   -4.4841   -4.7996   -9.6473 C   0  0  0  0  0  0  0  0  0  0  0  0
   -4.3722   -3.7857  -11.0241 S   0  0  0  0  0  0  0  0  0  0  0  0
   -3.6614   -5.1046  -11.9367 C   0  0  0  0  0  0  0  0  0  0  0  0
   -3.6260   -6.2738  -11.2149 C   0  0  0  0  0  0  0  0  0  0  0  0
   -3.1017   -4.8195  -13.2415 C   0  0  0  0  0  0  0  0  0  0  0  0
   -2.2514   -3.7999  -13.4533 C   0  0  0  0  0  0  0  0  0  0  0  0
   -1.6989   -2.9931  -12.3936 C   0  0  0  0  0  0  0  0  0  0  0  0
   -1.5377   -1.2596  -12.5883 S   0  0  0  0  0  0  0  0  0  0  0  0
   -1.0205   -1.1160  -10.9569 C   0  0  0  0  0  0  0  0  0  0  0  0
   -0.9248   -2.3469  -10.3174 C   0  0  0  0  0  0  0  0  0  0  0  0
   -1.3065   -3.4059  -11.1366 C   0  0  0  0  0  0  0  0  0  0  0  0
   -0.5013   -2.1738   -8.8763 C   0  0  0  0  0  0  0  0  0  0  0  0
    0.8585   -2.8235   -8.6072 C   0  0  0  0  0  0  0  0  0  0  0  0
   -1.5616   -2.7223   -7.9190 C   0  0  0  0  0  0  0  0  0  0  0  0
   -0.4261   -0.6659   -8.7920 C   0  0  0  0  0  0  0  0  0  0  0  0
   -0.7205   -0.0909  -10.0268 C   0  0  0  0  0  0  0  0  0  0  0  0
   -0.7044    1.6165   -9.9641 S   0  0  0  0  0  0  0  0  0  0  0  0
   -0.3264    1.5733   -8.2396 C   0  0  0  0  0  0  0  0  0  0  0  0
   -0.1998    0.2710   -7.7910 C   0  0  0  0  0  0  0  0  0  0  0  0
   -0.2838    2.8519   -7.6221 C   0  0  0  0  0  0  0  0  0  0  0  0
   -0.2015    3.3020   -6.3456 C   0  0  0  0  0  0  0  0  0  0  0  0
   -0.0462    2.7239   -5.0521 C   0  0  0  0  0  0  0  0  0  0  0  0
   -0.0553    3.5008   -3.9226 C   0  0  0  0  0  0  0  0  0  0  0  0
    0.2243    2.8084   -2.7254 C   0  0  0  0  0  0  0  0  0  0  0  0
    0.4158    3.3483   -1.4482 C   0  0  0  0  0  0  0  0  0  0  0  0
    0.3480    4.7783   -1.1264 C   0  0  0  0  0  0  0  0  0  0  0  0
    1.0826    5.7251   -1.8368 C   0  0  0  0  0  0  0  0  0  0  0  0
    1.1488    7.0307   -1.3978 C   0  0  0  0  0  0  0  0  0  0  0  0
    0.4837    7.4422   -0.2453 C   0  0  0  0  0  0  0  0  0  0  0  0
    0.6873    9.1216    0.2698 S   0  0  0  0  0  0  0  0  0  0  0  0
    0.8962    8.9839    2.0846 C   0  0  0  0  0  0  0  0  0  0  0  0
    2.0263    8.0456    2.4618 C   0  0  0  0  0  0  0  0  0  0  0  0
   -0.3056    6.5033    0.4124 C   0  0  0  0  0  0  0  0  0  0  0  0
   -1.0241    6.8458    1.4999 F   0  0  0  0  0  0  0  0  0  0  0  0
   -0.3680    5.1906   -0.0056 C   0  0  0  0  0  0  0  0  0  0  0  0
    0.8035    2.4628   -0.4579 C   0  0  0  0  0  0  0  0  0  0  0  0
    0.9658    1.0676   -0.6419 C   0  0  0  0  0  0  0  0  0  0  0  0
    0.7375    0.5195   -1.9231 C   0  0  0  0  0  0  0  0  0  0  0  0
    0.8913   -0.9117   -2.2040 C   0  0  0  0  0  0  0  0  0  0  0  0
    1.9541   -1.6678   -1.7050 C   0  0  0  0  0  0  0  0  0  0  0  0
    2.0492   -3.0148   -1.9753 C   0  0  0  0  0  0  0  0  0  0  0  0
    1.1161   -3.6776   -2.7780 C   0  0  0  0  0  0  0  0  0  0  0  0
    1.4076   -5.4010   -3.0205 S   0  0  0  0  0  0  0  0  0  0  0  0
   -0.1829   -6.1528   -3.5258 C   0  0  0  0  0  0  0  0  0  0  0  0
   -0.3230   -6.2951   -5.0285 C   0  0  0  0  0  0  0  0  0  0  0  0
    0.0998   -2.8986   -3.3182 C   0  0  0  0  0  0  0  0  0  0  0  0
   -0.0269   -1.5568   -3.0257 C   0  0  0  0  0  0  0  0  0  0  0  0
   -0.8098   -3.4157   -4.1786 F   0  0  0  0  0  0  0  0  0  0  0  0
    0.3928    1.4161   -2.9307 C   0  0  0  0  0  0  0  0  0  0  0  0
    0.2413    1.0438   -4.6325 S   0  0  0  0  0  0  0  0  0  0  0  0
    1.4135    0.4420    0.5563 C   0  0  0  0  0  0  0  0  0  0  0  0
    1.6681    1.3231    1.5684 C   0  0  0  0  0  0  0  0  0  0  0  0
    1.2821    2.9713    1.1299 S   0  0  0  0  0  0  0  0  0  0  0  0
    2.2412    1.1494    2.8674 C   0  0  0  0  0  0  0  0  0  0  0  0
    2.6171    0.0384    3.5606 C   0  0  0  0  0  0  0  0  0  0  0  0
    3.2389    0.3271    4.8086 C   0  0  0  0  0  0  0  0  0  0  0  0
    3.7473   -0.5628    5.7711 C   0  0  0  0  0  0  0  0  0  0  0  0
    3.7898   -2.0096    5.5473 C   0  0  0  0  0  0  0  0  0  0  0  0
    4.2235   -2.5325    4.3301 C   0  0  0  0  0  0  0  0  0  0  0  0
    4.2961   -3.8944    4.1178 C   0  0  0  0  0  0  0  0  0  0  0  0
    3.9563   -4.7929    5.1234 C   0  0  0  0  0  0  0  0  0  0  0  0
    4.0287   -6.5446    4.9671 S   0  0  0  0  0  0  0  0  0  0  0  0
    3.9420   -6.8297    3.1624 C   0  0  0  0  0  0  0  0  0  0  0  0
    5.3087   -6.9378    2.5128 C   0  0  0  0  0  0  0  0  0  0  0  0
    3.5480   -4.2549    6.3446 C   0  0  0  0  0  0  0  0  0  0  0  0
    3.2182   -5.0872    7.3551 F   0  0  0  0  0  0  0  0  0  0  0  0
    3.4448   -2.9005    6.5621 C   0  0  0  0  0  0  0  0  0  0  0  0
    4.2652    0.0025    6.9325 C   0  0  0  0  0  0  0  0  0  0  0  0
    4.3265    1.3977    7.1657 C   0  0  0  0  0  0  0  0  0  0  0  0
    3.8375    2.2875    6.2008 C   0  0  0  0  0  0  0  0  0  0  0  0
    3.8385    3.7463    6.3694 C   0  0  0  0  0  0  0  0  0  0  0  0
    4.2488    4.5813    5.3293 C   0  0  0  0  0  0  0  0  0  0  0  0
    4.1102    5.9493    5.4242 C   0  0  0  0  0  0  0  0  0  0  0  0
    3.5554    6.5412    6.5554 C   0  0  0  0  0  0  0  0  0  0  0  0
    3.2697    8.2919    6.5175 S   0  0  0  0  0  0  0  0  0  0  0  0
    3.8956    8.8603    8.1385 C   0  0  0  0  0  0  0  0  0  0  0  0
    5.3618    8.5253    8.3213 C   0  0  0  0  0  0  0  0  0  0  0  0
    3.1877    5.7032    7.6027 C   0  0  0  0  0  0  0  0  0  0  0  0
    3.3411    4.3333    7.5299 C   0  0  0  0  0  0  0  0  0  0  0  0
    2.6341    6.2085    8.7280 F   0  0  0  0  0  0  0  0  0  0  0  0
    3.3069    1.7217    5.0491 C   0  0  0  0  0  0  0  0  0  0  0  0
    2.6192    2.6229    3.7325 S   0  0  0  0  0  0  0  0  0  0  0  0
    4.9763    1.7012    8.3983 C   0  0  0  0  0  0  0  0  0  0  0  0
    5.3768    0.5996    9.0643 C   0  0  0  0  0  0  0  0  0  0  0  0
    4.9977   -0.8767    8.2508 S   0  0  0  0  0  0  0  0  0  0  0  0
    1.4165    2.0791    9.6233 H   0  0  0  0  0  0  0  0  0  0  0  0
    0.4534    3.5999    7.7336 H   0  0  0  0  0  0  0  0  0  0  0  0
    1.3656    4.3148    5.6416 H   0  0  0  0  0  0  0  0  0  0  0  0
    0.9182    6.6864    5.4146 H   0  0  0  0  0  0  0  0  0  0  0  0
   -0.2128    8.4229    6.6445 H   0  0  0  0  0  0  0  0  0  0  0  0
    0.6489    8.9311    5.1676 H   0  0  0  0  0  0  0  0  0  0  0  0
   -0.8418   10.9245    4.9923 H   0  0  0  0  0  0  0  0  0  0  0  0
   -1.6718   10.4390    6.4715 H   0  0  0  0  0  0  0  0  0  0  0  0
    0.0305   10.9177    6.5303 H   0  0  0  0  0  0  0  0  0  0  0  0
   -2.6478    3.4303    4.4314 H   0  0  0  0  0  0  0  0  0  0  0  0
   -0.9561   -1.7916    7.9468 H   0  0  0  0  0  0  0  0  0  0  0  0
   -1.1241   -4.1989    8.3731 H   0  0  0  0  0  0  0  0  0  0  0  0
    1.8289   -6.9543    7.0788 H   0  0  0  0  0  0  0  0  0  0  0  0
    1.2325   -7.2425    5.4245 H   0  0  0  0  0  0  0  0  0  0  0  0
    0.6114   -8.9869    7.8597 H   0  0  0  0  0  0  0  0  0  0  0  0
    0.0260   -9.2775    6.2198 H   0  0  0  0  0  0  0  0  0  0  0  0
    1.7562   -9.3917    6.5754 H   0  0  0  0  0  0  0  0  0  0  0  0
    1.1290   -2.6272    4.3002 H   0  0  0  0  0  0  0  0  0  0  0  0
   -0.8501   -1.9302    3.4245 H   0  0  0  0  0  0  0  0  0  0  0  0
   -1.5880   -2.7338    1.4849 H   0  0  0  0  0  0  0  0  0  0  0  0
   -3.6209   -5.9113   -0.8956 H   0  0  0  0  0  0  0  0  0  0  0  0
   -2.5094   -7.9386   -0.0618 H   0  0  0  0  0  0  0  0  0  0  0  0
    0.6664   -8.7763    3.3192 H   0  0  0  0  0  0  0  0  0  0  0  0
    0.6795   -7.0412    2.9280 H   0  0  0  0  0  0  0  0  0  0  0  0
   -1.2230   -7.5785    4.4794 H   0  0  0  0  0  0  0  0  0  0  0  0
   -1.8277   -8.7667    3.3184 H   0  0  0  0  0  0  0  0  0  0  0  0
   -1.8347   -7.0466    2.9132 H   0  0  0  0  0  0  0  0  0  0  0  0
   -0.0539   -3.6721   -0.0957 H   0  0  0  0  0  0  0  0  0  0  0  0
   -4.1000    1.5221   -1.5921 H   0  0  0  0  0  0  0  0  0  0  0  0
   -4.0988    3.5846   -2.8982 H   0  0  0  0  0  0  0  0  0  0  0  0
   -3.8574    4.9374   -7.6949 H   0  0  0  0  0  0  0  0  0  0  0  0
   -3.0781    3.3445   -7.7108 H   0  0  0  0  0  0  0  0  0  0  0  0
   -5.2444    2.2953   -6.9878 H   0  0  0  0  0  0  0  0  0  0  0  0
   -5.9993    3.8920   -6.9361 H   0  0  0  0  0  0  0  0  0  0  0  0
   -5.4713    3.2069   -8.4800 H   0  0  0  0  0  0  0  0  0  0  0  0
   -2.7022   -0.5963   -5.0537 H   0  0  0  0  0  0  0  0  0  0  0  0
   -4.6017   -1.7260   -4.8801 H   0  0  0  0  0  0  0  0  0  0  0  0
   -4.0417   -6.4605   -5.5307 H   0  0  0  0  0  0  0  0  0  0  0  0
   -6.1092   -7.5506   -8.8318 H   0  0  0  0  0  0  0  0  0  0  0  0
   -5.1668   -8.5086   -7.6830 H   0  0  0  0  0  0  0  0  0  0  0  0
   -4.9210   -8.7183   -9.4228 H   0  0  0  0  0  0  0  0  0  0  0  0
   -2.4196   -8.2215   -9.1446 H   0  0  0  0  0  0  0  0  0  0  0  0
   -1.9168   -6.7444   -8.3132 H   0  0  0  0  0  0  0  0  0  0  0  0
   -2.6803   -8.0530   -7.4051 H   0  0  0  0  0  0  0  0  0  0  0  0
   -3.2248   -7.1879  -11.6154 H   0  0  0  0  0  0  0  0  0  0  0  0
   -3.3984   -5.4581  -14.0628 H   0  0  0  0  0  0  0  0  0  0  0  0
   -1.9524   -3.5496  -14.4623 H   0  0  0  0  0  0  0  0  0  0  0  0
   -1.3051   -4.4411  -10.8446 H   0  0  0  0  0  0  0  0  0  0  0  0
    1.1738   -2.6176   -7.5869 H   0  0  0  0  0  0  0  0  0  0  0  0
    0.7915   -3.9005   -8.7443 H   0  0  0  0  0  0  0  0  0  0  0  0
    1.6086   -2.4308   -9.2901 H   0  0  0  0  0  0  0  0  0  0  0  0
   -1.2539   -2.5715   -6.8871 H   0  0  0  0  0  0  0  0  0  0  0  0
   -1.7089   -3.7874   -8.0868 H   0  0  0  0  0  0  0  0  0  0  0  0
   -2.5071   -2.2103   -8.0810 H   0  0  0  0  0  0  0  0  0  0  0  0
    0.0391    0.0206   -6.7765 H   0  0  0  0  0  0  0  0  0  0  0  0
   -0.3944    3.6454   -8.3550 H   0  0  0  0  0  0  0  0  0  0  0  0
   -0.2712    4.3815   -6.2565 H   0  0  0  0  0  0  0  0  0  0  0  0
   -0.2494    4.5579   -3.9502 H   0  0  0  0  0  0  0  0  0  0  0  0
    1.6482    5.4225   -2.7049 H   0  0  0  0  0  0  0  0  0  0  0  0
    1.7445    7.7562   -1.9299 H   0  0  0  0  0  0  0  0  0  0  0  0
   -0.0525    8.6837    2.5243 H   0  0  0  0  0  0  0  0  0  0  0  0
    1.1210   10.0082    2.3828 H   0  0  0  0  0  0  0  0  0  0  0  0
    1.7672    7.0110    2.2427 H   0  0  0  0  0  0  0  0  0  0  0  0
    2.2357    8.1263    3.5275 H   0  0  0  0  0  0  0  0  0  0  0  0
    2.9315    8.3008    1.9137 H   0  0  0  0  0  0  0  0  0  0  0  0
   -0.9887    4.5009    0.5458 H   0  0  0  0  0  0  0  0  0  0  0  0
    2.7272   -1.1894   -1.1243 H   0  0  0  0  0  0  0  0  0  0  0  0
    2.8650   -3.5947   -1.5713 H   0  0  0  0  0  0  0  0  0  0  0  0
   -0.9861   -5.5642   -3.0905 H   0  0  0  0  0  0  0  0  0  0  0  0
   -0.1687   -7.1310   -3.0433 H   0  0  0  0  0  0  0  0  0  0  0  0
   -1.2645   -6.7904   -5.2562 H   0  0  0  0  0  0  0  0  0  0  0  0
   -0.3225   -5.3237   -5.5147 H   0  0  0  0  0  0  0  0  0  0  0  0
    0.4939   -6.8893   -5.4320 H   0  0  0  0  0  0  0  0  0  0  0  0
   -0.8596   -1.0222   -3.4511 H   0  0  0  0  0  0  0  0  0  0  0  0
    1.5481   -0.6188    0.6653 H   0  0  0  0  0  0  0  0  0  0  0  0
    2.4435   -0.9572    3.1967 H   0  0  0  0  0  0  0  0  0  0  0  0
    4.5427   -1.8626    3.5460 H   0  0  0  0  0  0  0  0  0  0  0  0
    4.6325   -4.2557    3.1600 H   0  0  0  0  0  0  0  0  0  0  0  0
    3.3326   -6.0386    2.7300 H   0  0  0  0  0  0  0  0  0  0  0  0
    3.4054   -7.7740    3.0684 H   0  0  0  0  0  0  0  0  0  0  0  0
    5.1884   -7.1164    1.4460 H   0  0  0  0  0  0  0  0  0  0  0  0
    5.8655   -7.7666    2.9438 H   0  0  0  0  0  0  0  0  0  0  0  0
    5.8928   -6.0301    2.6510 H   0  0  0  0  0  0  0  0  0  0  0  0
    3.0687   -2.5539    7.5114 H   0  0  0  0  0  0  0  0  0  0  0  0
    4.6884    4.1556    4.4415 H   0  0  0  0  0  0  0  0  0  0  0  0
    4.4157    6.5850    4.6082 H   0  0  0  0  0  0  0  0  0  0  0  0
    3.7366    9.9381    8.1089 H   0  0  0  0  0  0  0  0  0  0  0  0
    3.2768    8.4310    8.9235 H   0  0  0  0  0  0  0  0  0  0  0  0
    5.7160    8.9343    9.2653 H   0  0  0  0  0  0  0  0  0  0  0  0
    5.9546    8.9483    7.5126 H   0  0  0  0  0  0  0  0  0  0  0  0
    5.5143    7.4471    8.3339 H   0  0  0  0  0  0  0  0  0  0  0  0
    3.0082    3.7301    8.3589 H   0  0  0  0  0  0  0  0  0  0  0  0
    5.1493    2.7035    8.7456 H   0  0  0  0  0  0  0  0  0  0  0  0
    5.8840    0.5480   10.0080 H   0  0  0  0  0  0  0  0  0  0  0  0
  1  2  2  0  0  0  0
  2  3  1  0  0  0  0
  3  4  2  0  0  0  0
  4  5  1  0  0  0  0
  5  6  2  0  0  0  0
  6  7  1  0  0  0  0
  7  8  2  0  0  0  0
  8  9  1  0  0  0  0
  9 10  1  0  0  0  0
 10 11  1  0  0  0  0
  8 12  1  0  0  0  0
 12 13  1  0  0  0  0
 12 14  2  0  0  0  0
  4 15  1  0  0  0  0
 15 16  2  0  0  0  0
 16 17  1  0  0  0  0
 17 18  1  0  0  0  0
 18 19  2  0  0  0  0
 19 20  1  0  0  0  0
 20 21  2  0  0  0  0
 21 22  1  0  0  0  0
 22 23  1  0  0  0  0
 23 24  1  0  0  0  0
 21 25  1  0  0  0  0
 25 26  2  0  0  0  0
 25 27  1  0  0  0  0
 17 28  2  0  0  0  0
 28 29  1  0  0  0  0
 16 30  1  0  0  0  0
 30 31  2  0  0  0  0
 31 32  1  0  0  0  0
 31 33  1  0  0  0  0
 33 34  2  0  0  0  0
 34 35  1  0  0  0  0
 35 36  2  0  0  0  0
 36 37  1  0  0  0  0
 37 38  2  0  0  0  0
 38 39  1  0  0  0  0
 39 40  2  0  0  0  0
 40 41  1  0  0  0  0
 41 42  1  0  0  0  0
 42 43  1  0  0  0  0
 40 44  1  0  0  0  0
 44 45  1  0  0  0  0
 44 46  2  0  0  0  0
 36 47  1  0  0  0  0
 47 48  2  0  0  0  0
 48 49  1  0  0  0  0
 49 50  1  0  0  0  0
 50 51  2  0  0  0  0
 51 52  1  0  0  0  0
 52 53  2  0  0  0  0
 53 54  1  0  0  0  0
 54 55  1  0  0  0  0
 55 56  1  0  0  0  0
 53 57  1  0  0  0  0
 57 58  2  0  0  0  0
 57 59  1  0  0  0  0
 49 60  2  0  0  0  0
 60 61  1  0  0  0  0
 48 62  1  0  0  0  0
 62 63  2  0  0  0  0
 63 64  1  0  0  0  0
 63 65  1  0  0  0  0
 65 66  1  0  0  0  0
 66 67  1  0  0  0  0
 67 68  2  0  0  0  0
 68 69  1  0  0  0  0
 68 70  1  0  0  0  0
 70 71  1  0  0  0  0
 70 72  1  0  0  0  0
 70 73  1  0  0  0  0
 73 74  2  0  0  0  0
 74 75  1  0  0  0  0
 75 76  1  0  0  0  0
 76 77  2  0  0  0  0
 76 78  1  0  0  0  0
 78 79  2  0  0  0  0
 79 80  1  0  0  0  0
 80 81  1  0  0  0  0
 81 82  1  0  0  0  0
 82 83  2  0  0  0  0
 83 84  1  0  0  0  0
 83 85  1  0  0  0  0
 85 86  1  0  0  0  0
 85 87  1  0  0  0  0
 85 88  1  0  0  0  0
 88 89  2  0  0  0  0
 89 90  1  0  0  0  0
 90 91  1  0  0  0  0
 91 92  2  0  0  0  0
 91 93  1  0  0  0  0
 93 94  2  0  0  0  0
 94 95  1  0  0  0  0
 95 96  2  0  0  0  0
 96 97  1  0  0  0  0
 97 98  2  0  0  0  0
 98 99  1  0  0  0  0
 99100  2  0  0  0  0
100101  1  0  0  0  0
101102  2  0  0  0  0
102103  1  0  0  0  0
103104  1  0  0  0  0
104105  1  0  0  0  0
102106  1  0  0  0  0
106107  1  0  0  0  0
106108  2  0  0  0  0
 98109  1  0  0  0  0
109110  2  0  0  0  0
110111  1  0  0  0  0
111112  1  0  0  0  0
112113  2  0  0  0  0
113114  1  0  0  0  0
114115  2  0  0  0  0
115116  1  0  0  0  0
116117  1  0  0  0  0
117118  1  0  0  0  0
115119  1  0  0  0  0
119120  2  0  0  0  0
119121  1  0  0  0  0
111122  2  0  0  0  0
122123  1  0  0  0  0
110124  1  0  0  0  0
124125  2  0  0  0  0
125126  1  0  0  0  0
125127  1  0  0  0  0
127128  2  0  0  0  0
128129  1  0  0  0  0
129130  2  0  0  0  0
130131  1  0  0  0  0
131132  2  0  0  0  0
132133  1  0  0  0  0
133134  2  0  0  0  0
134135  1  0  0  0  0
135136  1  0  0  0  0
136137  1  0  0  0  0
134138  1  0  0  0  0
138139  1  0  0  0  0
138140  2  0  0  0  0
130141  1  0  0  0  0
141142  2  0  0  0  0
142143  1  0  0  0  0
143144  1  0  0  0  0
144145  2  0  0  0  0
145146  1  0  0  0  0
146147  2  0  0  0  0
147148  1  0  0  0  0
148149  1  0  0  0  0
149150  1  0  0  0  0
147151  1  0  0  0  0
151152  2  0  0  0  0
151153  1  0  0  0  0
143154  2  0  0  0  0
154155  1  0  0  0  0
142156  1  0  0  0  0
156157  2  0  0  0  0
157158  1  0  0  0  0
 29  1  1  0  0  0  0
 61 33  1  0  0  0  0
 69 65  2  0  0  0  0
 77 73  1  0  0  0  0
 84 80  2  0  0  0  0
 92 88  1  0  0  0  0
123 95  1  0  0  0  0
155127  1  0  0  0  0
 28  3  1  0  0  0  0
 60 35  1  0  0  0  0
 74 67  1  0  0  0  0
 89 82  1  0  0  0  0
122 97  1  0  0  0  0
154129  1  0  0  0  0
 14  5  1  0  0  0  0
 32 15  1  0  0  0  0
 46 37  1  0  0  0  0
 64 47  1  0  0  0  0
108 99  1  0  0  0  0
126109  1  0  0  0  0
140131  1  0  0  0  0
158141  1  0  0  0  0
 26 18  1  0  0  0  0
 58 50  1  0  0  0  0
120112  1  0  0  0  0
152144  1  0  0  0  0
  1159  1  0  0  0  0
  2160  1  0  0  0  0
  6161  1  0  0  0  0
  7162  1  0  0  0  0
 10163  1  0  0  0  0
 10164  1  0  0  0  0
 11165  1  0  0  0  0
 11166  1  0  0  0  0
 11167  1  0  0  0  0
 14168  1  0  0  0  0
 19169  1  0  0  0  0
 20170  1  0  0  0  0
 23171  1  0  0  0  0
 23172  1  0  0  0  0
 24173  1  0  0  0  0
 24174  1  0  0  0  0
 24175  1  0  0  0  0
 26176  1  0  0  0  0
 30177  1  0  0  0  0
 34178  1  0  0  0  0
 38179  1  0  0  0  0
 39180  1  0  0  0  0
 42181  1  0  0  0  0
 42182  1  0  0  0  0
 43183  1  0  0  0  0
 43184  1  0  0  0  0
 43185  1  0  0  0  0
 46186  1  0  0  0  0
 51187  1  0  0  0  0
 52188  1  0  0  0  0
 55189  1  0  0  0  0
 55190  1  0  0  0  0
 56191  1  0  0  0  0
 56192  1  0  0  0  0
 56193  1  0  0  0  0
 58194  1  0  0  0  0
 62195  1  0  0  0  0
 69196  1  0  0  0  0
 71197  1  0  0  0  0
 71198  1  0  0  0  0
 71199  1  0  0  0  0
 72200  1  0  0  0  0
 72201  1  0  0  0  0
 72202  1  0  0  0  0
 77203  1  0  0  0  0
 78204  1  0  0  0  0
 79205  1  0  0  0  0
 84206  1  0  0  0  0
 86207  1  0  0  0  0
 86208  1  0  0  0  0
 86209  1  0  0  0  0
 87210  1  0  0  0  0
 87211  1  0  0  0  0
 87212  1  0  0  0  0
 92213  1  0  0  0  0
 93214  1  0  0  0  0
 94215  1  0  0  0  0
 96216  1  0  0  0  0
100217  1  0  0  0  0
101218  1  0  0  0  0
104219  1  0  0  0  0
104220  1  0  0  0  0
105221  1  0  0  0  0
105222  1  0  0  0  0
105223  1  0  0  0  0
108224  1  0  0  0  0
113225  1  0  0  0  0
114226  1  0  0  0  0
117227  1  0  0  0  0
117228  1  0  0  0  0
118229  1  0  0  0  0
118230  1  0  0  0  0
118231  1  0  0  0  0
120232  1  0  0  0  0
124233  1  0  0  0  0
128234  1  0  0  0  0
132235  1  0  0  0  0
133236  1  0  0  0  0
136237  1  0  0  0  0
136238  1  0  0  0  0
137239  1  0  0  0  0
137240  1  0  0  0  0
137241  1  0  0  0  0
140242  1  0  0  0  0
145243  1  0  0  0  0
146244  1  0  0  0  0
149245  1  0  0  0  0
149246  1  0  0  0  0
150247  1  0  0  0  0
150248  1  0  0  0  0
150249  1  0  0  0  0
152250  1  0  0  0  0
156251  1  0  0  0  0
157252  1  0  0  0  0
M  END
