
  xtb     02282217503D
 energy: -374.640162427341 gnorm: 0.000185290148 xtb: 6.4.1 (unknown)
226253  0     0  0            999 V2000
    6.9586   -6.9423   10.9287 C   0  0  0  0  0  0  0  0  0  0  0  0
    6.3803   -5.7726   11.2656 C   0  0  0  0  0  0  0  0  0  0  0  0
    5.0243   -5.6760   10.8321 C   0  0  0  0  0  0  0  0  0  0  0  0
    4.1475   -4.5863   10.9671 C   0  0  0  0  0  0  0  0  0  0  0  0
    4.5404   -3.3872   11.6825 C   0  0  0  0  0  0  0  0  0  0  0  0
    5.1682   -3.2894   12.8914 C   0  0  0  0  0  0  0  0  0  0  0  0
    5.4012   -1.9579   13.2906 C   0  0  0  0  0  0  0  0  0  0  0  0
    4.9670   -1.0388   12.3858 C   0  0  0  0  0  0  0  0  0  0  0  0
    5.0186    0.4477   12.4714 C   0  0  0  0  0  0  0  0  0  0  0  0
    3.6236    1.0380   12.6861 C   0  0  0  0  0  0  0  0  0  0  0  0
    4.2371   -1.8091   11.0157 S   0  0  0  0  0  0  0  0  0  0  0  0
    2.8958   -4.7162   10.3733 C   0  0  0  0  0  0  0  0  0  0  0  0
    2.4900   -5.8771    9.6681 C   0  0  0  0  0  0  0  0  0  0  0  0
    3.3696   -6.9691    9.5297 C   0  0  0  0  0  0  0  0  0  0  0  0
    3.0352   -8.1549    8.7678 C   0  0  0  0  0  0  0  0  0  0  0  0
    3.3401   -9.4562    9.0535 C   0  0  0  0  0  0  0  0  0  0  0  0
    2.9220  -10.3601    8.0572 C   0  0  0  0  0  0  0  0  0  0  0  0
    2.3157   -9.7586    6.9977 C   0  0  0  0  0  0  0  0  0  0  0  0
    1.7341  -10.3860    5.7779 C   0  0  0  0  0  0  0  0  0  0  0  0
    0.2066  -10.3004    5.7794 C   0  0  0  0  0  0  0  0  0  0  0  0
    2.2300   -8.0433    7.2261 S   0  0  0  0  0  0  0  0  0  0  0  0
    4.6164   -6.8366   10.1346 C   0  0  0  0  0  0  0  0  0  0  0  0
    5.9053   -8.0108   10.0681 S   0  0  0  0  0  0  0  0  0  0  0  0
    1.1589   -5.7606    9.1979 C   0  0  0  0  0  0  0  0  0  0  0  0
    0.5816   -4.5665    9.5156 C   0  0  0  0  0  0  0  0  0  0  0  0
    1.6299   -3.5158   10.4210 S   0  0  0  0  0  0  0  0  0  0  0  0
   -0.7076   -4.1031    9.1166 C   0  0  0  0  0  0  0  0  0  0  0  0
   -1.4905   -4.9142    8.3428 O   0  0  0  0  0  0  0  0  0  0  0  0
   -2.5702   -4.1538    8.0435 C   0  0  0  0  0  0  0  0  0  0  0  0
   -2.3987   -2.8938    8.6838 C   0  0  0  0  0  0  0  0  0  0  0  0
   -1.2038   -2.9306    9.3539 N   0  0  0  0  0  0  0  0  0  0  0  0
   -3.3048   -1.8581    8.5251 C   0  0  0  0  0  0  0  0  0  0  0  0
   -4.3579   -2.1357    7.6687 C   0  0  0  0  0  0  0  0  0  0  0  0
   -4.5049   -3.4057    7.0417 C   0  0  0  0  0  0  0  0  0  0  0  0
   -3.6320   -4.4609    7.2164 C   0  0  0  0  0  0  0  0  0  0  0  0
   -5.5675   -3.3258    6.2084 O   0  0  0  0  0  0  0  0  0  0  0  0
   -5.9957   -2.0335    6.3216 C   0  0  0  0  0  0  0  0  0  0  0  0
   -5.3406   -1.3141    7.1796 N   0  0  0  0  0  0  0  0  0  0  0  0
   -6.9411   -1.5453    5.3723 C   0  0  0  0  0  0  0  0  0  0  0  0
   -7.2672   -0.2393    5.1517 C   0  0  0  0  0  0  0  0  0  0  0  0
   -7.9109   -0.0285    3.9085 C   0  0  0  0  0  0  0  0  0  0  0  0
   -8.2189    1.2156    3.3136 C   0  0  0  0  0  0  0  0  0  0  0  0
   -8.2050    2.4443    4.0752 C   0  0  0  0  0  0  0  0  0  0  0  0
   -7.8139    3.6985    3.6942 C   0  0  0  0  0  0  0  0  0  0  0  0
   -7.9951    4.6679    4.6985 C   0  0  0  0  0  0  0  0  0  0  0  0
   -8.5339    4.1703    5.8458 C   0  0  0  0  0  0  0  0  0  0  0  0
   -8.9018    4.8998    7.0914 C   0  0  0  0  0  0  0  0  0  0  0  0
  -10.4181    5.0711    7.2062 C   0  0  0  0  0  0  0  0  0  0  0  0
   -8.8242    2.4696    5.7062 S   0  0  0  0  0  0  0  0  0  0  0  0
   -8.4846    1.1812    1.9483 C   0  0  0  0  0  0  0  0  0  0  0  0
   -8.6230   -0.0264    1.2213 C   0  0  0  0  0  0  0  0  0  0  0  0
   -8.5087   -1.2774    1.8637 C   0  0  0  0  0  0  0  0  0  0  0  0
   -8.7587   -2.5123    1.1523 C   0  0  0  0  0  0  0  0  0  0  0  0
   -8.1175   -3.7163    1.2463 C   0  0  0  0  0  0  0  0  0  0  0  0
   -8.6404   -4.6987    0.3829 C   0  0  0  0  0  0  0  0  0  0  0  0
   -9.6931   -4.2652   -0.3631 C   0  0  0  0  0  0  0  0  0  0  0  0
  -10.4550   -4.9954   -1.4147 C   0  0  0  0  0  0  0  0  0  0  0  0
  -10.1221   -4.4591   -2.8093 C   0  0  0  0  0  0  0  0  0  0  0  0
  -10.0596   -2.6106   -0.0078 S   0  0  0  0  0  0  0  0  0  0  0  0
   -8.0684   -1.2371    3.1838 C   0  0  0  0  0  0  0  0  0  0  0  0
   -7.5117   -2.6059    4.1100 S   0  0  0  0  0  0  0  0  0  0  0  0
   -8.6859    0.2017   -0.1728 C   0  0  0  0  0  0  0  0  0  0  0  0
   -8.5802    1.5174   -0.5234 C   0  0  0  0  0  0  0  0  0  0  0  0
   -8.5501    2.5609    0.8810 S   0  0  0  0  0  0  0  0  0  0  0  0
   -8.2043    1.9991   -1.8141 C   0  0  0  0  0  0  0  0  0  0  0  0
   -7.9929    1.2325   -2.9248 C   0  0  0  0  0  0  0  0  0  0  0  0
   -7.1930    1.8623   -3.9079 C   0  0  0  0  0  0  0  0  0  0  0  0
   -6.5777    1.2333   -5.0133 C   0  0  0  0  0  0  0  0  0  0  0  0
   -7.0309   -0.0673   -5.4502 C   0  0  0  0  0  0  0  0  0  0  0  0
   -8.3231   -0.5196   -5.4824 C   0  0  0  0  0  0  0  0  0  0  0  0
   -8.4411   -1.8446   -5.9422 C   0  0  0  0  0  0  0  0  0  0  0  0
   -7.2457   -2.4154   -6.2561 C   0  0  0  0  0  0  0  0  0  0  0  0
   -6.9810   -3.7793   -6.7937 C   0  0  0  0  0  0  0  0  0  0  0  0
   -6.5704   -3.7240   -8.2665 C   0  0  0  0  0  0  0  0  0  0  0  0
   -5.9388   -1.3047   -6.0036 S   0  0  0  0  0  0  0  0  0  0  0  0
   -5.4858    1.9016   -5.5535 C   0  0  0  0  0  0  0  0  0  0  0  0
   -5.0998    3.2091   -5.1604 C   0  0  0  0  0  0  0  0  0  0  0  0
   -5.8225    3.9027   -4.1668 C   0  0  0  0  0  0  0  0  0  0  0  0
   -5.4989    5.2395   -3.7160 C   0  0  0  0  0  0  0  0  0  0  0  0
   -6.3749    6.1799   -3.2438 C   0  0  0  0  0  0  0  0  0  0  0  0
   -5.7505    7.3681   -2.8199 C   0  0  0  0  0  0  0  0  0  0  0  0
   -4.3948    7.3450   -2.9479 C   0  0  0  0  0  0  0  0  0  0  0  0
   -3.4130    8.4256   -2.6426 C   0  0  0  0  0  0  0  0  0  0  0  0
   -2.1045    7.8855   -2.0719 C   0  0  0  0  0  0  0  0  0  0  0  0
   -3.8660    5.8381   -3.6131 S   0  0  0  0  0  0  0  0  0  0  0  0
   -6.8219    3.1721   -3.5277 C   0  0  0  0  0  0  0  0  0  0  0  0
   -7.5702    3.6201   -2.0144 S   0  0  0  0  0  0  0  0  0  0  0  0
   -3.8786    3.5910   -5.7626 C   0  0  0  0  0  0  0  0  0  0  0  0
   -3.2979    2.6097   -6.5106 C   0  0  0  0  0  0  0  0  0  0  0  0
   -4.3340    1.2062   -6.6665 S   0  0  0  0  0  0  0  0  0  0  0  0
   -1.9193    2.5531   -6.8673 C   0  0  0  0  0  0  0  0  0  0  0  0
   -1.2059    1.4758   -7.3024 C   0  0  0  0  0  0  0  0  0  0  0  0
    0.1971    1.6347   -7.1734 C   0  0  0  0  0  0  0  0  0  0  0  0
    1.2053    0.6828   -7.4174 C   0  0  0  0  0  0  0  0  0  0  0  0
    0.8984   -0.6471   -7.9083 C   0  0  0  0  0  0  0  0  0  0  0  0
   -0.0890   -1.4998   -7.5043 C   0  0  0  0  0  0  0  0  0  0  0  0
   -0.0789   -2.7291   -8.1937 C   0  0  0  0  0  0  0  0  0  0  0  0
    0.9104   -2.8217   -9.1230 C   0  0  0  0  0  0  0  0  0  0  0  0
    1.2071   -3.9449  -10.0558 C   0  0  0  0  0  0  0  0  0  0  0  0
    0.8558   -3.5795  -11.4993 C   0  0  0  0  0  0  0  0  0  0  0  0
    1.8633   -1.3746   -9.1622 S   0  0  0  0  0  0  0  0  0  0  0  0
    2.5038    1.0596   -7.0936 C   0  0  0  0  0  0  0  0  0  0  0  0
    2.8399    2.3252   -6.5560 C   0  0  0  0  0  0  0  0  0  0  0  0
    1.8409    3.3044   -6.3764 C   0  0  0  0  0  0  0  0  0  0  0  0
    2.1649    4.6254   -5.8789 C   0  0  0  0  0  0  0  0  0  0  0  0
    3.2459    5.4011   -6.1942 C   0  0  0  0  0  0  0  0  0  0  0  0
    3.2578    6.6421   -5.5272 C   0  0  0  0  0  0  0  0  0  0  0  0
    2.1924    6.8219   -4.6998 C   0  0  0  0  0  0  0  0  0  0  0  0
    1.8779    7.9852   -3.8231 C   0  0  0  0  0  0  0  0  0  0  0  0
    1.9855    7.6179   -2.3422 C   0  0  0  0  0  0  0  0  0  0  0  0
    1.1396    5.4456   -4.7341 S   0  0  0  0  0  0  0  0  0  0  0  0
    0.5393    2.9115   -6.6630 C   0  0  0  0  0  0  0  0  0  0  0  0
   -0.8804    3.8809   -6.3847 S   0  0  0  0  0  0  0  0  0  0  0  0
    4.1941    2.3800   -6.1454 C   0  0  0  0  0  0  0  0  0  0  0  0
    4.8800    1.2193   -6.3598 C   0  0  0  0  0  0  0  0  0  0  0  0
    3.8898    0.0037   -7.1353 S   0  0  0  0  0  0  0  0  0  0  0  0
    6.2197    0.9158   -5.9682 C   0  0  0  0  0  0  0  0  0  0  0  0
    7.0784    1.7043   -5.2599 C   0  0  0  0  0  0  0  0  0  0  0  0
    8.3141    1.0767   -4.9623 C   0  0  0  0  0  0  0  0  0  0  0  0
    9.4033    1.6090   -4.2475 C   0  0  0  0  0  0  0  0  0  0  0  0
    9.3904    2.9791   -3.7746 C   0  0  0  0  0  0  0  0  0  0  0  0
    8.9934    4.1010   -4.4454 C   0  0  0  0  0  0  0  0  0  0  0  0
    9.1063    5.2781   -3.6786 C   0  0  0  0  0  0  0  0  0  0  0  0
    9.5758    5.0610   -2.4201 C   0  0  0  0  0  0  0  0  0  0  0  0
    9.8471    6.0543   -1.3433 C   0  0  0  0  0  0  0  0  0  0  0  0
   11.3495    6.2246   -1.1115 C   0  0  0  0  0  0  0  0  0  0  0  0
    9.9080    3.3798   -2.1615 S   0  0  0  0  0  0  0  0  0  0  0  0
   10.4769    0.7527   -4.0285 C   0  0  0  0  0  0  0  0  0  0  0  0
   10.5286   -0.5739   -4.5169 C   0  0  0  0  0  0  0  0  0  0  0  0
    9.4525   -1.0976   -5.2559 C   0  0  0  0  0  0  0  0  0  0  0  0
    9.4493   -2.4442   -5.7947 C   0  0  0  0  0  0  0  0  0  0  0  0
    8.4096   -3.3299   -5.8293 C   0  0  0  0  0  0  0  0  0  0  0  0
    8.7314   -4.5466   -6.4626 C   0  0  0  0  0  0  0  0  0  0  0  0
   10.0099   -4.5974   -6.9241 C   0  0  0  0  0  0  0  0  0  0  0  0
   10.6871   -5.6947   -7.6702 C   0  0  0  0  0  0  0  0  0  0  0  0
   10.8707   -5.3327   -9.1454 C   0  0  0  0  0  0  0  0  0  0  0  0
   10.8516   -3.1232   -6.5748 S   0  0  0  0  0  0  0  0  0  0  0  0
    8.3636   -0.2519   -5.4473 C   0  0  0  0  0  0  0  0  0  0  0  0
    6.9042   -0.6587   -6.3093 S   0  0  0  0  0  0  0  0  0  0  0  0
   11.7404   -1.2222   -4.1349 C   0  0  0  0  0  0  0  0  0  0  0  0
   12.5643   -0.4251   -3.4261 C   0  0  0  0  0  0  0  0  0  0  0  0
   11.9333    1.1621   -3.1611 S   0  0  0  0  0  0  0  0  0  0  0  0
    7.9610   -7.2658   11.1309 H   0  0  0  0  0  0  0  0  0  0  0  0
    6.8909   -4.9825   11.7842 H   0  0  0  0  0  0  0  0  0  0  0  0
    5.4188   -4.1441   13.4946 H   0  0  0  0  0  0  0  0  0  0  0  0
    5.8776   -1.6931   14.2182 H   0  0  0  0  0  0  0  0  0  0  0  0
    5.6719    0.7304   13.2996 H   0  0  0  0  0  0  0  0  0  0  0  0
    5.4400    0.8543   11.5485 H   0  0  0  0  0  0  0  0  0  0  0  0
    2.9699    0.7666   11.8604 H   0  0  0  0  0  0  0  0  0  0  0  0
    3.1899    0.6574   13.6081 H   0  0  0  0  0  0  0  0  0  0  0  0
    3.6776    2.1220   12.7475 H   0  0  0  0  0  0  0  0  0  0  0  0
    3.8194   -9.7624    9.9657 H   0  0  0  0  0  0  0  0  0  0  0  0
    3.0733  -11.4230    8.1230 H   0  0  0  0  0  0  0  0  0  0  0  0
    2.1187   -9.8827    4.8869 H   0  0  0  0  0  0  0  0  0  0  0  0
    2.0455  -11.4321    5.7405 H   0  0  0  0  0  0  0  0  0  0  0  0
   -0.1114   -9.2604    5.8007 H   0  0  0  0  0  0  0  0  0  0  0  0
   -0.1984  -10.7698    4.8864 H   0  0  0  0  0  0  0  0  0  0  0  0
   -0.1999  -10.8046    6.6532 H   0  0  0  0  0  0  0  0  0  0  0  0
    0.6378   -6.5223    8.6482 H   0  0  0  0  0  0  0  0  0  0  0  0
   -3.1734   -0.8979    8.9904 H   0  0  0  0  0  0  0  0  0  0  0  0
   -3.7443   -5.4101    6.7220 H   0  0  0  0  0  0  0  0  0  0  0  0
   -6.9642    0.5384    5.8269 H   0  0  0  0  0  0  0  0  0  0  0  0
   -7.3733    3.9184    2.7391 H   0  0  0  0  0  0  0  0  0  0  0  0
   -7.7300    5.7030    4.5738 H   0  0  0  0  0  0  0  0  0  0  0  0
   -8.4206    5.8801    7.0794 H   0  0  0  0  0  0  0  0  0  0  0  0
   -8.5374    4.3487    7.9617 H   0  0  0  0  0  0  0  0  0  0  0  0
  -10.8013    5.6279    6.3540 H   0  0  0  0  0  0  0  0  0  0  0  0
  -10.6691    5.6101    8.1163 H   0  0  0  0  0  0  0  0  0  0  0  0
  -10.9053    4.0990    7.2312 H   0  0  0  0  0  0  0  0  0  0  0  0
   -7.2679   -3.8866    1.8813 H   0  0  0  0  0  0  0  0  0  0  0  0
   -8.2447   -5.6969    0.3174 H   0  0  0  0  0  0  0  0  0  0  0  0
  -10.2036   -6.0565   -1.3577 H   0  0  0  0  0  0  0  0  0  0  0  0
  -11.5280   -4.8870   -1.2374 H   0  0  0  0  0  0  0  0  0  0  0  0
   -9.0575   -4.5578   -3.0106 H   0  0  0  0  0  0  0  0  0  0  0  0
  -10.3900   -3.4072   -2.8812 H   0  0  0  0  0  0  0  0  0  0  0  0
  -10.6728   -5.0111   -3.5670 H   0  0  0  0  0  0  0  0  0  0  0  0
   -8.6947   -0.5900   -0.8974 H   0  0  0  0  0  0  0  0  0  0  0  0
   -8.2989    0.2055   -2.9942 H   0  0  0  0  0  0  0  0  0  0  0  0
   -9.1654    0.0956   -5.2199 H   0  0  0  0  0  0  0  0  0  0  0  0
   -9.3821   -2.3582   -6.0342 H   0  0  0  0  0  0  0  0  0  0  0  0
   -7.8854   -4.3818   -6.6845 H   0  0  0  0  0  0  0  0  0  0  0  0
   -6.1817   -4.2528   -6.2178 H   0  0  0  0  0  0  0  0  0  0  0  0
   -7.3588   -3.2689   -8.8618 H   0  0  0  0  0  0  0  0  0  0  0  0
   -6.3826   -4.7259   -8.6446 H   0  0  0  0  0  0  0  0  0  0  0  0
   -5.6657   -3.1315   -8.3815 H   0  0  0  0  0  0  0  0  0  0  0  0
   -7.4409    6.0390   -3.2319 H   0  0  0  0  0  0  0  0  0  0  0  0
   -6.2918    8.2128   -2.4316 H   0  0  0  0  0  0  0  0  0  0  0  0
   -3.8725    9.1231   -1.9379 H   0  0  0  0  0  0  0  0  0  0  0  0
   -3.1975    8.9810   -3.5624 H   0  0  0  0  0  0  0  0  0  0  0  0
   -1.4247    8.7036   -1.8463 H   0  0  0  0  0  0  0  0  0  0  0  0
   -2.2908    7.3267   -1.1576 H   0  0  0  0  0  0  0  0  0  0  0  0
   -1.6244    7.2217   -2.7882 H   0  0  0  0  0  0  0  0  0  0  0  0
   -3.3851    4.5290   -5.5918 H   0  0  0  0  0  0  0  0  0  0  0  0
   -1.6779    0.5796   -7.6613 H   0  0  0  0  0  0  0  0  0  0  0  0
   -0.7745   -1.2747   -6.7068 H   0  0  0  0  0  0  0  0  0  0  0  0
   -0.7811   -3.5206   -7.9987 H   0  0  0  0  0  0  0  0  0  0  0  0
    2.2691   -4.1970   -9.9995 H   0  0  0  0  0  0  0  0  0  0  0  0
    0.6306   -4.8192   -9.7456 H   0  0  0  0  0  0  0  0  0  0  0  0
    1.0733   -4.4121  -12.1636 H   0  0  0  0  0  0  0  0  0  0  0  0
    1.4358   -2.7170  -11.8193 H   0  0  0  0  0  0  0  0  0  0  0  0
   -0.2009   -3.3349  -11.5811 H   0  0  0  0  0  0  0  0  0  0  0  0
    3.9875    5.1084   -6.9161 H   0  0  0  0  0  0  0  0  0  0  0  0
    4.0295    7.3794   -5.6644 H   0  0  0  0  0  0  0  0  0  0  0  0
    0.8628    8.3340   -4.0305 H   0  0  0  0  0  0  0  0  0  0  0  0
    2.5717    8.7962   -4.0550 H   0  0  0  0  0  0  0  0  0  0  0  0
    2.9910    7.2750   -2.1093 H   0  0  0  0  0  0  0  0  0  0  0  0
    1.2843    6.8226   -2.1005 H   0  0  0  0  0  0  0  0  0  0  0  0
    1.7603    8.4814   -1.7211 H   0  0  0  0  0  0  0  0  0  0  0  0
    4.6262    3.2339   -5.6582 H   0  0  0  0  0  0  0  0  0  0  0  0
    6.8280    2.6935   -4.9252 H   0  0  0  0  0  0  0  0  0  0  0  0
    8.6712    4.0878   -5.4717 H   0  0  0  0  0  0  0  0  0  0  0  0
    8.8455    6.2536   -4.0503 H   0  0  0  0  0  0  0  0  0  0  0  0
    9.4059    7.0118   -1.6289 H   0  0  0  0  0  0  0  0  0  0  0  0
    9.3774    5.7251   -0.4128 H   0  0  0  0  0  0  0  0  0  0  0  0
   11.8364    6.5662   -2.0221 H   0  0  0  0  0  0  0  0  0  0  0  0
   11.5305    6.9528   -0.3248 H   0  0  0  0  0  0  0  0  0  0  0  0
   11.7935    5.2760   -0.8183 H   0  0  0  0  0  0  0  0  0  0  0  0
    7.4514   -3.1325   -5.3837 H   0  0  0  0  0  0  0  0  0  0  0  0
    8.0347   -5.3595   -6.5677 H   0  0  0  0  0  0  0  0  0  0  0  0
   10.0824   -6.6003   -7.5855 H   0  0  0  0  0  0  0  0  0  0  0  0
   11.6659   -5.8936   -7.2262 H   0  0  0  0  0  0  0  0  0  0  0  0
   11.3569   -6.1471   -9.6766 H   0  0  0  0  0  0  0  0  0  0  0  0
   11.4842   -4.4395   -9.2395 H   0  0  0  0  0  0  0  0  0  0  0  0
    9.9061   -5.1396   -9.6095 H   0  0  0  0  0  0  0  0  0  0  0  0
   11.9721   -2.2428   -4.3766 H   0  0  0  0  0  0  0  0  0  0  0  0
   13.5272   -0.6673   -3.0208 H   0  0  0  0  0  0  0  0  0  0  0  0
  1  2  2  0  0  0  0
  2  3  1  0  0  0  0
  3  4  2  0  0  0  0
  4  5  1  0  0  0  0
  5  6  2  0  0  0  0
  6  7  1  0  0  0  0
  7  8  2  0  0  0  0
  8  9  1  0  0  0  0
  9 10  1  0  0  0  0
  8 11  1  0  0  0  0
  4 12  1  0  0  0  0
 12 13  2  0  0  0  0
 13 14  1  0  0  0  0
 14 15  1  0  0  0  0
 15 16  2  0  0  0  0
 16 17  1  0  0  0  0
 17 18  2  0  0  0  0
 18 19  1  0  0  0  0
 19 20  1  0  0  0  0
 18 21  1  0  0  0  0
 14 22  2  0  0  0  0
 22 23  1  0  0  0  0
 13 24  1  0  0  0  0
 24 25  2  0  0  0  0
 25 26  1  0  0  0  0
 25 27  1  0  0  0  0
 27 28  1  0  0  0  0
 28 29  1  0  0  0  0
 29 30  2  0  0  0  0
 30 31  1  0  0  0  0
 30 32  1  0  0  0  0
 32 33  2  0  0  0  0
 33 34  1  0  0  0  0
 34 35  2  0  0  0  0
 34 36  1  0  0  0  0
 36 37  1  0  0  0  0
 37 38  2  0  0  0  0
 37 39  1  0  0  0  0
 39 40  2  0  0  0  0
 40 41  1  0  0  0  0
 41 42  2  0  0  0  0
 42 43  1  0  0  0  0
 43 44  2  0  0  0  0
 44 45  1  0  0  0  0
 45 46  2  0  0  0  0
 46 47  1  0  0  0  0
 47 48  1  0  0  0  0
 46 49  1  0  0  0  0
 42 50  1  0  0  0  0
 50 51  2  0  0  0  0
 51 52  1  0  0  0  0
 52 53  1  0  0  0  0
 53 54  2  0  0  0  0
 54 55  1  0  0  0  0
 55 56  2  0  0  0  0
 56 57  1  0  0  0  0
 57 58  1  0  0  0  0
 56 59  1  0  0  0  0
 52 60  2  0  0  0  0
 60 61  1  0  0  0  0
 51 62  1  0  0  0  0
 62 63  2  0  0  0  0
 63 64  1  0  0  0  0
 63 65  1  0  0  0  0
 65 66  2  0  0  0  0
 66 67  1  0  0  0  0
 67 68  2  0  0  0  0
 68 69  1  0  0  0  0
 69 70  2  0  0  0  0
 70 71  1  0  0  0  0
 71 72  2  0  0  0  0
 72 73  1  0  0  0  0
 73 74  1  0  0  0  0
 72 75  1  0  0  0  0
 68 76  1  0  0  0  0
 76 77  2  0  0  0  0
 77 78  1  0  0  0  0
 78 79  1  0  0  0  0
 79 80  2  0  0  0  0
 80 81  1  0  0  0  0
 81 82  2  0  0  0  0
 82 83  1  0  0  0  0
 83 84  1  0  0  0  0
 82 85  1  0  0  0  0
 78 86  2  0  0  0  0
 86 87  1  0  0  0  0
 77 88  1  0  0  0  0
 88 89  2  0  0  0  0
 89 90  1  0  0  0  0
 89 91  1  0  0  0  0
 91 92  2  0  0  0  0
 92 93  1  0  0  0  0
 93 94  2  0  0  0  0
 94 95  1  0  0  0  0
 95 96  2  0  0  0  0
 96 97  1  0  0  0  0
 97 98  2  0  0  0  0
 98 99  1  0  0  0  0
 99100  1  0  0  0  0
 98101  1  0  0  0  0
 94102  1  0  0  0  0
102103  2  0  0  0  0
103104  1  0  0  0  0
104105  1  0  0  0  0
105106  2  0  0  0  0
106107  1  0  0  0  0
107108  2  0  0  0  0
108109  1  0  0  0  0
109110  1  0  0  0  0
108111  1  0  0  0  0
104112  2  0  0  0  0
112113  1  0  0  0  0
103114  1  0  0  0  0
114115  2  0  0  0  0
115116  1  0  0  0  0
115117  1  0  0  0  0
117118  2  0  0  0  0
118119  1  0  0  0  0
119120  2  0  0  0  0
120121  1  0  0  0  0
121122  2  0  0  0  0
122123  1  0  0  0  0
123124  2  0  0  0  0
124125  1  0  0  0  0
125126  1  0  0  0  0
124127  1  0  0  0  0
120128  1  0  0  0  0
128129  2  0  0  0  0
129130  1  0  0  0  0
130131  1  0  0  0  0
131132  2  0  0  0  0
132133  1  0  0  0  0
133134  2  0  0  0  0
134135  1  0  0  0  0
135136  1  0  0  0  0
134137  1  0  0  0  0
130138  2  0  0  0  0
138139  1  0  0  0  0
129140  1  0  0  0  0
140141  2  0  0  0  0
141142  1  0  0  0  0
 23  1  1  0  0  0  0
 31 27  2  0  0  0  0
 38 33  1  0  0  0  0
 61 39  1  0  0  0  0
 87 65  1  0  0  0  0
113 91  1  0  0  0  0
139117  1  0  0  0  0
 22  3  1  0  0  0  0
 35 29  1  0  0  0  0
 60 41  1  0  0  0  0
 86 67  1  0  0  0  0
112 93  1  0  0  0  0
138119  1  0  0  0  0
 11  5  1  0  0  0  0
 26 12  1  0  0  0  0
 49 43  1  0  0  0  0
 64 50  1  0  0  0  0
 75 69  1  0  0  0  0
 90 76  1  0  0  0  0
101 95  1  0  0  0  0
116102  1  0  0  0  0
127121  1  0  0  0  0
142128  1  0  0  0  0
 21 15  1  0  0  0  0
 59 53  1  0  0  0  0
 85 79  1  0  0  0  0
111105  1  0  0  0  0
137131  1  0  0  0  0
  1143  1  0  0  0  0
  2144  1  0  0  0  0
  6145  1  0  0  0  0
  7146  1  0  0  0  0
  9147  1  0  0  0  0
  9148  1  0  0  0  0
 10149  1  0  0  0  0
 10150  1  0  0  0  0
 10151  1  0  0  0  0
 16152  1  0  0  0  0
 17153  1  0  0  0  0
 19154  1  0  0  0  0
 19155  1  0  0  0  0
 20156  1  0  0  0  0
 20157  1  0  0  0  0
 20158  1  0  0  0  0
 24159  1  0  0  0  0
 32160  1  0  0  0  0
 35161  1  0  0  0  0
 40162  1  0  0  0  0
 44163  1  0  0  0  0
 45164  1  0  0  0  0
 47165  1  0  0  0  0
 47166  1  0  0  0  0
 48167  1  0  0  0  0
 48168  1  0  0  0  0
 48169  1  0  0  0  0
 54170  1  0  0  0  0
 55171  1  0  0  0  0
 57172  1  0  0  0  0
 57173  1  0  0  0  0
 58174  1  0  0  0  0
 58175  1  0  0  0  0
 58176  1  0  0  0  0
 62177  1  0  0  0  0
 66178  1  0  0  0  0
 70179  1  0  0  0  0
 71180  1  0  0  0  0
 73181  1  0  0  0  0
 73182  1  0  0  0  0
 74183  1  0  0  0  0
 74184  1  0  0  0  0
 74185  1  0  0  0  0
 80186  1  0  0  0  0
 81187  1  0  0  0  0
 83188  1  0  0  0  0
 83189  1  0  0  0  0
 84190  1  0  0  0  0
 84191  1  0  0  0  0
 84192  1  0  0  0  0
 88193  1  0  0  0  0
 92194  1  0  0  0  0
 96195  1  0  0  0  0
 97196  1  0  0  0  0
 99197  1  0  0  0  0
 99198  1  0  0  0  0
100199  1  0  0  0  0
100200  1  0  0  0  0
100201  1  0  0  0  0
106202  1  0  0  0  0
107203  1  0  0  0  0
109204  1  0  0  0  0
109205  1  0  0  0  0
110206  1  0  0  0  0
110207  1  0  0  0  0
110208  1  0  0  0  0
114209  1  0  0  0  0
118210  1  0  0  0  0
122211  1  0  0  0  0
123212  1  0  0  0  0
125213  1  0  0  0  0
125214  1  0  0  0  0
126215  1  0  0  0  0
126216  1  0  0  0  0
126217  1  0  0  0  0
132218  1  0  0  0  0
133219  1  0  0  0  0
135220  1  0  0  0  0
135221  1  0  0  0  0
136222  1  0  0  0  0
136223  1  0  0  0  0
136224  1  0  0  0  0
140225  1  0  0  0  0
141226  1  0  0  0  0
M  END
