191

C          6.04180       -4.16340        2.06970
C          6.11060       -2.85880        2.41310
C          4.87750       -2.35630        2.92620
C          4.60140       -1.07280        3.42860
C          5.54660        0.03420        3.25640
C          6.11470        0.27750        2.00480
C          6.94490        1.35570        1.80860
C          7.26730        2.23240        2.84820
S          8.35430        3.55110        2.40980
C          8.17350        4.85850        3.67670
C          6.78800        5.47130        3.69710
C          6.72860        1.95020        4.09960
F          7.02900        2.70610        5.17870
C          5.86810        0.88890        4.30300
C          3.36450       -0.89660        4.03250
C          2.37420       -1.90930        4.06060
C          2.62060       -3.16460        3.48610
C          1.57370       -4.19340        3.45000
C          0.92730       -4.60710        4.61350
C         -0.10150       -5.52230        4.55440
C         -0.52790       -6.05640        3.33960
S         -1.86710       -7.21090        3.38140
C         -2.90010       -6.72770        1.94860
C         -3.36000       -5.28690        2.03720
C          0.16150       -5.67170        2.19310
C          1.19030       -4.75200        2.23580
F         -0.16340       -6.18260        0.98710
C          3.88390       -3.36380        2.95210
S          4.48130       -4.86870        2.30710
C          1.16720       -1.45610        4.64300
C          1.21670       -0.16220        5.07110
S          2.77760        0.57640        4.77480
C          0.12000        0.56800        5.60350
S         -1.41170       -0.23800        5.83660
C         -2.24950        1.27240        6.11950
C         -1.34440        2.29770        6.18290
C         -0.01180        1.90660        5.88250
S          1.18260        3.16800        5.86980
C          0.07520        4.47440        6.28560
S          0.58530        6.00180        6.48700
S         -1.60700        3.99910        6.45940
C         -3.69640        1.28830        6.15200
C         -4.43680        0.78010        5.14910
C         -3.91760        0.34480        3.88600
S         -2.42680        0.97520        3.23280
C         -2.54920        0.04610        1.77250
C         -3.71470       -0.70150        1.80730
C         -4.48280       -0.52480        2.97690
S         -5.90090       -1.52090        3.12950
C         -5.67480       -2.38790        1.62450
S         -6.66170       -3.58340        1.13390
S         -4.28600       -1.88390        0.66920
C         -1.53180       -0.09670        0.79660
C         -0.26520        0.37510        0.72980
C          0.48750        1.34780        1.45930
S          2.22700        1.10550        1.38680
C          2.58030        2.68910        2.01260
C          1.41050        3.31190        2.34910
C          0.23140        2.57370        2.03940
S         -1.25640        3.45900        2.23370
C         -0.53890        4.95870        2.81470
S         -1.44600        6.23400        3.24330
S          1.20870        4.95110        2.91020
C          3.92060        3.25930        1.97300
C          4.59500        3.35530        0.82270
C          3.93980        2.88950       -0.39930
C          4.07520        1.69640       -1.02420
C          2.94220        1.33280       -1.81320
C          2.65430        0.07720       -2.37060
C          3.63760       -1.01430       -2.34760
C          4.22400       -1.43280       -1.15580
C          5.20160       -2.40750       -1.15500
C          5.62680       -2.99180       -2.34310
S          6.91220       -4.19920       -2.43330
C          8.08110       -3.61280       -1.15380
C          8.60200       -2.21940       -1.44570
C          4.98190       -2.61250       -3.51940
F          5.33820       -3.18460       -4.68290
C          4.00270       -1.64210       -3.53450
C          1.37260       -0.10670       -2.87060
C          0.40800        0.92650       -2.87770
C          0.71740        2.21080       -2.40400
C         -0.32770        3.24230       -2.41290
C         -1.03580        3.52190       -3.57940
C         -2.10340        4.39840       -3.57720
C         -2.50620        5.02550       -2.40280
S         -3.91600        6.06960       -2.23290
C         -4.23600        6.65920       -3.93010
C         -3.13240        7.56750       -4.43590
C         -1.76700        4.76130       -1.24930
C         -0.69600        3.89680       -1.24150
F         -2.12840        5.35440       -0.09460
C          1.96910        2.36340       -1.83280
S          2.49780        3.74970       -0.91730
C         -0.87750        0.44260       -3.21770
C         -0.92050       -0.89880       -3.45010
S          0.66640       -1.63390       -3.35760
C         -2.16570       -1.59230       -3.62410
C         -3.30250       -1.18160       -2.99530
C         -4.47110       -1.87310       -3.39850
C         -5.79820       -1.62130       -3.00580
C         -6.07490       -0.53440       -2.06080
C         -5.43140        0.69850       -2.18030
C         -5.48080        1.64140       -1.17310
C         -6.20540        1.39550       -0.01120
S         -6.20280        2.41740        1.42010
C         -4.84970        3.60720        1.09210
C         -4.59320        4.40980        2.35130
C         -6.97310        0.22920        0.02360
F         -7.75810        0.00340        1.09780
C         -6.91150       -0.72910       -0.96260
C         -6.76260       -2.46910       -3.53370
C         -6.45770       -3.50840       -4.44860
C         -5.13630       -3.72980       -4.86620
C         -4.79240       -4.76560       -5.84780
C         -3.78080       -5.68470       -5.58700
C         -3.43750       -6.65240       -6.51090
C         -4.08450       -6.72550       -7.73910
S         -3.75620       -7.90890       -9.00120
C         -2.15050       -8.63690       -8.52610
C         -1.00210       -7.66010       -8.69280
C         -5.10010       -5.79890       -7.98520
C         -5.45930       -4.83650       -7.06930
F         -5.75330       -5.84100       -9.16430
C         -4.16610       -2.90440       -4.31730
S         -2.45760       -2.93840       -4.69970
C         -7.62760       -4.23240       -4.82730
C         -8.75090       -3.75030       -4.25930
S         -8.47630       -2.39510       -3.22130
H          6.82660       -4.79060        1.69200
H          7.00700       -2.26770        2.34830
H          5.87350       -0.36980        1.17600
H          7.36970        1.54820        0.83510
H          8.45880        4.45500        4.64540
H          8.91840        5.59180        3.36540
H          6.49740        5.80350        2.70250
H          6.78160        6.32900        4.36610
H          6.05100        4.75830        4.05820
H          5.48460        0.72470        5.29790
H          1.24070       -4.21110        5.56760
H         -0.60620       -5.83700        5.45450
H         -3.74640       -7.41140        2.01070
H         -2.35070       -6.92510        1.03100
H         -3.87510       -5.10750        2.97910
H         -2.51660       -4.60110        1.96530
H         -4.04750       -5.07620        1.22010
H          1.67570       -4.47070        1.31380
H          0.27990       -2.05850        4.72080
H         -4.17520        1.71570        7.02130
H         -5.51160        0.71700        5.25180
H         -1.80790       -0.80400        0.02130
H          0.34250       -0.08590       -0.04120
H          4.32010        3.64060        2.90110
H          5.58830        3.77470        0.77930
H          4.91030        1.04330       -0.85230
H          3.89240       -1.00490       -0.22000
H          5.63790       -2.71920       -0.21900
H          8.88530       -4.34700       -1.19050
H          7.59810       -3.66760       -0.18000
H          9.34050       -1.93670       -0.69790
H          7.79220       -1.49220       -1.42530
H          9.06970       -2.18800       -2.42680
H          3.55370       -1.36020       -4.47400
H         -0.74600        3.04410       -4.50330
H         -2.63590        4.57420       -4.49800
H         -4.39890        5.79820       -4.57730
H         -5.17560        7.20330       -3.83480
H         -3.38380        7.93660       -5.42820
H         -3.01070        8.41780       -3.76890
H         -2.18370        7.03710       -4.49220
H         -0.16920        3.71490       -0.32060
H         -1.75030        1.06780       -3.24780
H         -3.29470       -0.42120       -2.23660
H         -4.88130        0.92460       -3.08140
H         -4.94110        2.56770       -1.29040
H         -3.96660        3.03440        0.80520
H         -5.15500        4.26080        0.27500
H         -5.49130        4.94160        2.65520
H         -3.80700        5.13660        2.16280
H         -4.28310        3.75970        3.16760
H         -7.47250       -1.64170       -0.83970
H         -3.26820       -5.65950       -4.63760
H         -2.66180       -7.35670       -6.25900
H         -2.04430       -9.48010       -9.20860
H         -2.22760       -9.02240       -7.51020
H         -1.13090       -6.78980       -8.05290
H         -0.94560       -7.32140       -9.72460
H         -0.06310       -8.14580       -8.43380
H         -6.23550       -4.13140       -7.32290
H         -7.60900       -5.08270       -5.48420
H         -9.75450       -4.11080       -4.37340
