108

C          2.14140       -0.55800        0.38650
O          2.22500        0.26600        1.44570
C          2.37820        1.52290        0.98750
C          2.37830        1.50790       -0.39740
C          2.23390        0.15620       -0.78110
O          2.20050       -0.40420       -2.01810
C          2.40850        0.47290       -3.09800
C          2.55900        2.67040        1.82340
C          2.75000        2.78010        3.16050
C          2.79720        1.78000        4.16730
O          2.52660        0.47770        3.93680
C          2.67510       -0.20750        5.08680
C          3.05430        0.65890        6.10080
C          3.12670        1.93400        5.51790
O          3.44840        3.13000        6.06950
C          3.75540        3.11110        7.44390
C          2.41290       -1.60870        5.07450
C          1.95740       -2.18260        3.93690
C          1.61340       -3.53170        3.69670
O          1.10890       -3.80530        2.46710
C          0.79660       -5.10970        2.40100
C          1.12510       -5.72270        3.60230
C          1.64220       -4.71650        4.43610
O          2.09610       -4.79090        5.70900
C          2.07130       -6.07030        6.29880
C          0.24510       -5.65520        1.20680
C         -0.15700       -4.96970        0.10750
C         -0.32740       -3.56540       -0.07300
S         -0.82810       -2.52510        1.21640
C         -1.25240       -1.22670        0.15730
C         -0.87030       -1.53180       -1.15390
C         -0.36590       -2.86680       -1.28800
C          0.05430       -3.30890       -2.56840
C          0.80290       -4.57050       -2.77080
O          1.67160       -4.99940       -2.05250
O          0.44800       -5.17510       -3.92160
C          1.17770       -6.34570       -4.25220
C         -0.09200       -2.47060       -3.65020
C         -0.54010       -1.15110       -3.49870
C         -0.87820       -0.66980       -2.26660
C         -1.91350       -0.10600        0.73630
C         -2.82440        0.73030        0.18510
C         -3.39070        0.70050       -1.12450
S         -3.62410        2.24290       -1.88500
C         -3.90800        1.56110       -3.44090
C         -3.91080        0.15660       -3.35360
C         -3.66260       -0.33070       -2.02970
C         -3.73580       -1.73210       -1.79600
C         -3.86740       -2.27940       -0.43000
O         -4.34580       -1.68710        0.50720
O         -3.47420       -3.56750       -0.36320
C         -3.69160       -4.23360        0.87040
C         -3.86310       -2.58110       -2.87140
C         -3.98310       -2.09450       -4.18020
C         -4.05070       -0.74920       -4.41900
C         -4.19730        2.32870       -4.59530
C         -3.97110        3.64270       -4.84470
C         -3.17590        4.59470       -4.14380
O         -3.44290        5.90490       -4.39240
C         -2.54440        6.66320       -3.73220
C         -1.65430        5.85130       -3.06150
C         -2.04240        4.52600       -3.33080
O         -1.44640        3.37410       -2.94770
C         -0.37870        3.50100       -2.03510
C         -2.65510        8.09110       -3.83820
C         -1.85120        8.96850       -3.24090
H          2.03070       -1.60820        0.56240
H          2.49330        2.36310       -1.03170
H          1.60300        1.21050       -3.17740
H          3.36820        0.99340       -3.01060
H          2.41390       -0.15030       -3.99030
H          2.58650        3.58870        1.25180
H          2.91900        3.77020        3.56180
H          3.24250        0.38570        7.11880
H          3.98360        4.14030        7.71540
H          2.90540        2.75710        8.03600
H          4.62490        2.47810        7.64830
H          2.57270       -2.17070        5.97990
H          1.80870       -1.54140        3.07940
H          0.99500       -6.76140        3.82860
H          2.69360       -6.77740        5.74110
H          1.05000       -6.45980        6.36070
H          2.47370       -5.94670        7.30260
H          0.19800       -6.73420        1.18570
H         -0.43720       -5.55840       -0.75670
H          0.75960       -6.71240       -5.18640
H          2.23800       -6.11170       -4.37040
H          1.07330       -7.09530       -3.46450
H          0.21530       -2.81520       -4.62590
H         -0.57360       -0.50280       -4.36150
H         -1.12740        0.37000       -2.13240
H         -1.68360        0.04760        1.78380
H         -3.12810        1.58180        0.78190
H         -4.68920       -4.67920        0.87720
H         -3.60960       -3.52780        1.69950
H         -2.93150       -5.00840        0.95010
H         -3.90560       -3.64460       -2.69630
H         -4.06820       -2.79620       -4.99600
H         -4.20550       -0.37770       -5.42060
H         -4.71740        1.78040       -5.37140
H         -4.44860        4.06900       -5.71840
H         -0.82830        6.17890       -2.46550
H         -0.08770        2.48810       -1.76050
H          0.47090        4.01690       -2.49380
H         -0.68660        4.03880       -1.13400
H         -3.47090        8.42720       -4.46340
H         -1.03440        8.65770       -2.61350
H         -1.98940       10.02740       -3.36400
